data_mof_unit_62895.cif
_audit_creation_date              2012-12-10T17:49:48-0500
_audit_creation_method            fapswitch 2.2
_symmetry_space_group_name_H-M    P1
_symmetry_Int_Tables_number       1
_space_group_crystal_system       triclinic
_cell_length_a                    27.782664
_cell_length_b                    36.282814
_cell_length_c                    27.784549
_cell_angle_alpha                 90.001064
_cell_angle_beta                  89.999723
_cell_angle_gamma                 90.001417
_cell_volume                      28007.7486682

loop_
_atom_site_label
_atom_site_type_symbol
_atom_type_description
_atom_site_fract_x
_atom_site_fract_y
_atom_site_fract_z
_atom_type_partial_charge
C1    C     C_R   0.500026 0.650404 0.249982 0.818494
C2    C     C_R   0.500030 0.650403 0.750018 0.827304
C3    C     C_R   0.500026 0.349596 0.750018 0.818608
C4    C     C_R   0.500030 0.349597 0.249983 0.827246
C5    C     C_R   0.500027 0.150403 0.749982 0.818818
C6    C     C_R   0.500049 0.150400 0.250039 0.823433
C7    C     C_R   0.500044 0.849598 0.250028 0.823788
C8    C     C_R   0.500031 0.849597 0.749983 0.827803
C9    C     C_R   0.000025 0.650404 0.749982 0.818747
C10   C     C_R   0.000047 0.650401 0.250039 0.823543
C11   C     C_R   0.000042 0.349598 0.250030 0.823879
C12   C     C_R   0.000029 0.349597 0.749984 0.827206
C13   C     C_R   0.000028 0.150404 0.249981 0.818516
C14   C     C_R   0.000028 0.150403 0.750017 0.827073
C15   C     C_R   0.000025 0.849596 0.750017 0.818575
C16   C     C_R   0.000032 0.849597 0.249982 0.827636
C17   C     C_3   0.483084 0.978065 0.300572 0.072524
C18   C     C_3   0.490176 0.978366 0.696716 0.114354
C19   C     C_3   0.481932 0.022397 0.698578 0.122371
C20   C     C_3   0.474636 0.022224 0.298370 0.087805
C21   C     C_3   0.485310 0.477597 0.802468 0.123417
C22   C     C_3   0.494332 0.478369 0.196121 0.115068
C23   C     C_3   0.485973 0.522400 0.197355 0.123483
C24   C     C_3   0.493653 0.521629 0.803808 0.114946
C25   C     C_3   0.987531 0.977598 0.803022 0.123406
C26   C     C_3   0.990123 0.978367 0.196714 0.114861
C27   C     C_3   0.981881 0.022398 0.198587 0.123436
C28   C     C_3   0.995922 0.021630 0.804014 0.115042
C29   C     C_3   0.988823 0.478057 0.302063 0.072309
C30   C     C_3   0.996191 0.478368 0.695963 0.114703
C31   C     C_3   0.987795 0.522400 0.696913 0.122426
C32   C     C_3   0.980167 0.522215 0.300790 0.088201
C33   C     C_1   0.999303 0.610987 0.249465 0.022522
C34   C     C_1   0.999417 0.610993 0.750412 0.041803
C35   C     C_1   0.999578 0.389013 0.750300 0.022554
C36   C     C_1   0.999171 0.389004 0.249287 0.015139
C37   C     C_1   0.999574 0.110987 0.749698 0.022273
C38   C     C_1   0.999396 0.110993 0.250466 0.041629
C39   C     C_1   0.999557 0.889013 0.250342 0.022402
C40   C     C_1   0.999416 0.889007 0.749581 0.041601
C41   C     C_1   0.499569 0.610987 0.749687 0.022304
C42   C     C_1   0.499409 0.610993 0.250430 0.041522
C43   C     C_1   0.499571 0.389013 0.250312 0.022383
C44   C     C_1   0.499408 0.389007 0.749562 0.041647
C45   C     C_1   0.499277 0.110986 0.249404 0.022623
C46   C     C_1   0.499393 0.110993 0.750470 0.042012
C47   C     C_1   0.499554 0.889013 0.750348 0.022598
C48   C     C_1   0.499155 0.889005 0.249223 0.014628
C49   C     C_3   0.496100 0.963148 0.247110 -0.108079
C50   C     C_3   0.497241 0.963187 0.751118 -0.071549
C51   C     C_3   0.496808 0.036829 0.751335 -0.102355
C52   C     C_3   0.496228 0.036860 0.247880 -0.070444
C53   C     C_3   0.496795 0.463171 0.748869 -0.102414
C54   C     C_3   0.497232 0.463187 0.250902 -0.071710
C55   C     C_3   0.496790 0.536829 0.251092 -0.102492
C56   C     C_3   0.497235 0.536813 0.749068 -0.071663
C57   C     C_3   0.996788 0.963171 0.748993 -0.102428
C58   C     C_3   0.997244 0.963187 0.251108 -0.071763
C59   C     C_3   0.996813 0.036829 0.251328 -0.102524
C60   C     C_3   0.997231 0.036813 0.749171 -0.071716
C61   C     C_3   0.995984 0.463150 0.247511 -0.107924
C62   C     C_3   0.997235 0.463187 0.750812 -0.071597
C63   C     C_3   0.996788 0.536829 0.750986 -0.102338
C64   C     C_3   0.996178 0.536862 0.248264 -0.070509
C65   C     C_3   0.958333 0.522490 0.206847 -0.354933
C66   C     C_3   0.955407 0.522219 0.788147 -0.350330
C67   C     C_3   0.950190 0.477366 0.780923 -0.330664
C68   C     C_3   0.952488 0.477422 0.212696 -0.310195
C69   C     C_3   0.950334 0.022632 0.718832 -0.330512
C70   C     C_3   0.959810 0.022218 0.292848 -0.350236
C71   C     C_3   0.953827 0.977364 0.286248 -0.330658
C72   C     C_3   0.955587 0.977779 0.711631 -0.350336
C73   C     C_3   0.451633 0.522635 0.716813 -0.330392
C74   C     C_3   0.456691 0.522218 0.289632 -0.350146
C75   C     C_3   0.451233 0.477365 0.282588 -0.330820
C76   C     C_3   0.457178 0.477781 0.709835 -0.350581
C77   C     C_3   0.463072 0.022493 0.202620 -0.355036
C78   C     C_3   0.459761 0.022219 0.792817 -0.350707
C79   C     C_3   0.453787 0.977364 0.786214 -0.330649
C80   C     C_3   0.456605 0.977423 0.207811 -0.310119
C81   C     C_1   0.998032 0.577808 0.248914 0.282342
C82   C     C_1   0.998354 0.577807 0.750718 0.263220
C83   C     C_1   0.998732 0.422219 0.750510 0.201146
C84   C     C_1   0.997829 0.422181 0.248504 0.189803
C85   C     C_1   0.998728 0.077781 0.749483 0.201177
C86   C     C_1   0.998342 0.077808 0.250885 0.263515
C87   C     C_1   0.998711 0.922219 0.250643 0.201445
C88   C     C_1   0.998353 0.922193 0.749269 0.263352
C89   C     C_1   0.498723 0.577781 0.749441 0.201272
C90   C     C_1   0.498348 0.577807 0.250771 0.263378
C91   C     C_1   0.498723 0.422219 0.250550 0.201264
C92   C     C_1   0.498348 0.422192 0.749208 0.263323
C93   C     C_1   0.498024 0.077808 0.248726 0.283027
C94   C     C_1   0.498339 0.077807 0.750892 0.263338
C95   C     C_1   0.498707 0.922219 0.750653 0.201330
C96   C     C_1   0.497851 0.922181 0.248302 0.189469
C97   C     C_1   0.499975 0.750003 0.431102 -0.115567
C98   C     C_1   0.499976 0.750002 0.568898 -0.116112
C99   C     C_1   0.499975 0.249998 0.568898 -0.114577
C100  C     C_1   0.499975 0.249998 0.431102 -0.114338
C101  C     C_1   0.499974 0.250001 0.931102 -0.115797
C102  C     C_1   0.499974 0.250000 0.068898 -0.118322
C103  C     C_1   0.499974 0.749998 0.068898 -0.115479
C104  C     C_1   0.499975 0.749998 0.931102 -0.116220
C105  C     C_1   0.999974 0.750002 0.931102 -0.115807
C106  C     C_1   0.999974 0.750000 0.068898 -0.118530
C107  C     C_1   0.999975 0.249998 0.068898 -0.115580
C108  C     C_1   0.999976 0.249998 0.931102 -0.116258
C109  C     C_1   0.999975 0.250003 0.431102 -0.115604
C110  C     C_1   0.999976 0.250002 0.568898 -0.116140
C111  C     C_1   0.999975 0.749998 0.568898 -0.114418
C112  C     C_1   0.999975 0.749998 0.431102 -0.114178
C113  C     C_1   0.499971 0.750004 0.474548 0.027456
C114  C     C_1   0.499971 0.750004 0.525452 0.027304
C115  C     C_1   0.499971 0.249996 0.525452 0.028555
C116  C     C_1   0.499971 0.249997 0.474548 0.028633
C117  C     C_1   0.499969 0.250002 0.974548 0.026581
C118  C     C_1   0.499970 0.250002 0.025452 0.025627
C119  C     C_1   0.499970 0.749996 0.025452 0.027452
C120  C     C_1   0.499970 0.749997 0.974548 0.027047
C121  C     C_1   0.999969 0.750003 0.974548 0.026553
C122  C     C_1   0.999970 0.750002 0.025452 0.025506
C123  C     C_1   0.999971 0.249996 0.025452 0.027466
C124  C     C_1   0.999971 0.249996 0.974548 0.027047
C125  C     C_1   0.999971 0.250005 0.474548 0.027312
C126  C     C_1   0.999971 0.250004 0.525452 0.027172
C127  C     C_1   0.999971 0.749996 0.525452 0.028659
C128  C     C_1   0.999971 0.749997 0.474548 0.028748
C129  C     C_R   0.499985 0.750003 0.120640 0.826728
C130  C     C_R   0.499985 0.750003 0.879360 0.826530
C131  C     C_R   0.499985 0.249997 0.879360 0.826332
C132  C     C_R   0.499985 0.249996 0.120640 0.826702
C133  C     C_R   0.499985 0.250003 0.620640 0.826665
C134  C     C_R   0.499985 0.250003 0.379360 0.827250
C135  C     C_R   0.499985 0.749997 0.379360 0.826341
C136  C     C_R   0.499985 0.749997 0.620640 0.826931
C137  C     C_R   0.999985 0.750003 0.620640 0.826887
C138  C     C_R   0.999985 0.750003 0.379360 0.827406
C139  C     C_R   0.999985 0.249997 0.379360 0.826182
C140  C     C_R   0.999985 0.249997 0.620640 0.826776
C141  C     C_R   0.999985 0.250003 0.120640 0.826861
C142  C     C_R   0.999985 0.250003 0.879360 0.826418
C143  C     C_R   0.999985 0.749997 0.879360 0.826581
C144  C     C_R   0.999985 0.749996 0.120640 0.826478
C145  C     C_R   0.370636 0.750000 0.250000 0.827262
C146  C     C_R   0.370636 0.750000 0.750000 0.828828
C147  C     C_R   0.370636 0.250000 0.750000 0.825911
C148  C     C_R   0.370636 0.250000 0.250000 0.828635
C149  C     C_R   0.870636 0.750000 0.750000 0.825996
C150  C     C_R   0.870636 0.750000 0.250000 0.828513
C151  C     C_R   0.870636 0.250000 0.250000 0.827182
C152  C     C_R   0.870636 0.250000 0.750000 0.828382
C153  C     C_R   0.629357 0.750000 0.250000 0.823014
C154  C     C_R   0.629357 0.750000 0.750000 0.827483
C155  C     C_R   0.629357 0.250000 0.750000 0.824413
C156  C     C_R   0.629357 0.250000 0.250000 0.827052
C157  C     C_R   0.129357 0.750000 0.750000 0.824346
C158  C     C_R   0.129357 0.750000 0.250000 0.827307
C159  C     C_R   0.129357 0.250000 0.250000 0.823276
C160  C     C_R   0.129357 0.250000 0.750000 0.827578
C161  C     C_1   0.681099 0.750001 0.249999 -0.117744
C162  C     C_1   0.681099 0.750000 0.750000 -0.117660
C163  C     C_1   0.681099 0.250001 0.749999 -0.117163
C164  C     C_1   0.681099 0.250001 0.250000 -0.118874
C165  C     C_1   0.181099 0.750000 0.749999 -0.117482
C166  C     C_1   0.181099 0.750001 0.250000 -0.118773
C167  C     C_1   0.181099 0.250001 0.249999 -0.117769
C168  C     C_1   0.181099 0.250000 0.750000 -0.117515
C169  C     C_1   0.724545 0.750001 0.249999 0.026267
C170  C     C_1   0.724545 0.750000 0.750000 0.025323
C171  C     C_1   0.724545 0.250000 0.750000 0.026591
C172  C     C_1   0.724545 0.250001 0.250000 0.024556
C173  C     C_1   0.224545 0.750000 0.750000 0.026391
C174  C     C_1   0.224545 0.750001 0.249999 0.024661
C175  C     C_1   0.224545 0.250001 0.249999 0.026399
C176  C     C_1   0.224545 0.250000 0.750000 0.025438
C177  C     C_1   0.775449 0.750000 0.250000 0.028546
C178  C     C_1   0.775449 0.750000 0.750000 0.024919
C179  C     C_1   0.775449 0.250000 0.750000 0.028488
C180  C     C_1   0.775449 0.250001 0.249999 0.024596
C181  C     C_1   0.275449 0.750000 0.750000 0.028441
C182  C     C_1   0.275449 0.750001 0.249999 0.024638
C183  C     C_1   0.275449 0.250000 0.250000 0.028734
C184  C     C_1   0.275449 0.250000 0.750000 0.025072
C185  C     C_1   0.818894 0.749999 0.250000 -0.112535
C186  C     C_1   0.818895 0.750000 0.749999 -0.118834
C187  C     C_1   0.818895 0.250000 0.750001 -0.112873
C188  C     C_1   0.818895 0.250000 0.249999 -0.119038
C189  C     C_1   0.318895 0.749999 0.750001 -0.112850
C190  C     C_1   0.318895 0.750000 0.249999 -0.119084
C191  C     C_1   0.318895 0.250000 0.250000 -0.112397
C192  C     C_1   0.318895 0.250000 0.750000 -0.118570
C193  C     C_3   0.548860 0.978104 0.231767 0.212732
C194  C     C_3   0.548346 0.978335 0.771354 0.238263
C195  C     C_3   0.550555 0.022339 0.763211 0.195802
C196  C     C_3   0.551184 0.022224 0.240312 0.183612
C197  C     C_3   0.549675 0.477665 0.733593 0.196315
C198  C     C_3   0.546650 0.478332 0.274971 0.238721
C199  C     C_3   0.549476 0.522336 0.267024 0.196444
C200  C     C_3   0.546948 0.521670 0.725615 0.238643
C201  C     C_3   0.048989 0.977667 0.731541 0.196615
C202  C     C_3   0.048371 0.978335 0.271291 0.238964
C203  C     C_3   0.050572 0.022339 0.263147 0.196396
C204  C     C_3   0.045931 0.021671 0.723680 0.238735
C205  C     C_3   0.046795 0.478108 0.226613 0.212877
C206  C     C_3   0.045810 0.478331 0.776538 0.238036
C207  C     C_3   0.048904 0.522336 0.768691 0.196114
C208  C     C_3   0.050000 0.522241 0.234796 0.183317
O1    O     O_3   0.499990 0.750000 0.250000 -0.504779
O2    O     O_3   0.499990 0.750000 0.750000 -0.505050
O3    O     O_3   0.499990 0.250000 0.750000 -0.505207
O4    O     O_3   0.499990 0.250000 0.250000 -0.504907
O5    O     O_3   0.999990 0.750000 0.750000 -0.505132
O6    O     O_3   0.999990 0.750000 0.250000 -0.504898
O7    O     O_3   0.999990 0.250000 0.250000 -0.504727
O8    O     O_3   0.999990 0.250000 0.750000 -0.505120
O9    O     O_R   0.527870 0.668020 0.277880 -0.618552
O10   O     O_R   0.527870 0.668020 0.722120 -0.626892
O11   O     O_R   0.527870 0.331980 0.722120 -0.618714
O12   O     O_R   0.527870 0.331980 0.277880 -0.626881
O13   O     O_R   0.527870 0.168020 0.777880 -0.618791
O14   O     O_R   0.527870 0.168020 0.222120 -0.629263
O15   O     O_R   0.527870 0.831980 0.222120 -0.618321
O16   O     O_R   0.527870 0.831980 0.777880 -0.626479
O17   O     O_R   0.027870 0.668020 0.777880 -0.619008
O18   O     O_R   0.027870 0.668020 0.222120 -0.629939
O19   O     O_R   0.027870 0.331980 0.222120 -0.619533
O20   O     O_R   0.027870 0.331980 0.777880 -0.626774
O21   O     O_R   0.027870 0.168020 0.277880 -0.618420
O22   O     O_R   0.027870 0.168020 0.722120 -0.626995
O23   O     O_R   0.027870 0.831980 0.722120 -0.618823
O24   O     O_R   0.027870 0.831980 0.277880 -0.626675
O25   O     O_R   0.472130 0.728510 0.143730 -0.627199
O26   O     O_R   0.472130 0.728510 0.856270 -0.627868
O27   O     O_R   0.472130 0.271490 0.856270 -0.626859
O28   O     O_R   0.472130 0.271490 0.143730 -0.627041
O29   O     O_R   0.472130 0.228510 0.643730 -0.626461
O30   O     O_R   0.472130 0.228510 0.356270 -0.625828
O31   O     O_R   0.472130 0.771490 0.356270 -0.629135
O32   O     O_R   0.472130 0.771490 0.643730 -0.627925
O33   O     O_R   0.972130 0.728510 0.643730 -0.626180
O34   O     O_R   0.972130 0.728510 0.356270 -0.625588
O35   O     O_R   0.972130 0.271490 0.356270 -0.629112
O36   O     O_R   0.972130 0.271490 0.643730 -0.627589
O37   O     O_R   0.972130 0.228510 0.143730 -0.627369
O38   O     O_R   0.972130 0.228510 0.856270 -0.627694
O39   O     O_R   0.972130 0.771490 0.856270 -0.626633
O40   O     O_R   0.972130 0.771490 0.143730 -0.627238
O41   O     O_R   0.393720 0.728520 0.222140 -0.627114
O42   O     O_R   0.393720 0.728520 0.777860 -0.624938
O43   O     O_R   0.393720 0.271480 0.777860 -0.626934
O44   O     O_R   0.393720 0.271480 0.222140 -0.625070
O45   O     O_R   0.393720 0.228520 0.722140 -0.626351
O46   O     O_R   0.393720 0.228520 0.277860 -0.624564
O47   O     O_R   0.393720 0.771480 0.277860 -0.625955
O48   O     O_R   0.393720 0.771480 0.722140 -0.624988
O49   O     O_R   0.893720 0.728520 0.722140 -0.626825
O50   O     O_R   0.893720 0.728520 0.277860 -0.624750
O51   O     O_R   0.893720 0.271480 0.277860 -0.626228
O52   O     O_R   0.893720 0.271480 0.722140 -0.624988
O53   O     O_R   0.893720 0.228520 0.222140 -0.626724
O54   O     O_R   0.893720 0.228520 0.777860 -0.624901
O55   O     O_R   0.893720 0.771480 0.777860 -0.626989
O56   O     O_R   0.893720 0.771480 0.222140 -0.625026
O57   O     O_R   0.606280 0.728500 0.277860 -0.626717
O58   O     O_R   0.606280 0.728500 0.722140 -0.628166
O59   O     O_R   0.606280 0.271500 0.722140 -0.627297
O60   O     O_R   0.606280 0.271500 0.277860 -0.627822
O61   O     O_R   0.606280 0.228500 0.777860 -0.627248
O62   O     O_R   0.606280 0.228500 0.222140 -0.629328
O63   O     O_R   0.606280 0.771500 0.222140 -0.628755
O64   O     O_R   0.606280 0.771500 0.777860 -0.628241
O65   O     O_R   0.106280 0.728500 0.777860 -0.627380
O66   O     O_R   0.106280 0.728500 0.222140 -0.629069
O67   O     O_R   0.106280 0.271500 0.222140 -0.629420
O68   O     O_R   0.106280 0.271500 0.777860 -0.628107
O69   O     O_R   0.106280 0.228500 0.277860 -0.626431
O70   O     O_R   0.106280 0.228500 0.722140 -0.628131
O71   O     O_R   0.106280 0.771500 0.722140 -0.627272
O72   O     O_R   0.106280 0.771500 0.277860 -0.627942
O73   O     O_R   0.527850 0.771500 0.143710 -0.624351
O74   O     O_R   0.527850 0.771500 0.856290 -0.626411
O75   O     O_R   0.527850 0.228500 0.856290 -0.626367
O76   O     O_R   0.527850 0.228500 0.143710 -0.628353
O77   O     O_R   0.527850 0.271500 0.643710 -0.626227
O78   O     O_R   0.527850 0.271500 0.356290 -0.627569
O79   O     O_R   0.527850 0.728500 0.356290 -0.625496
O80   O     O_R   0.527850 0.728500 0.643710 -0.626736
O81   O     O_R   0.027850 0.771500 0.643710 -0.626349
O82   O     O_R   0.027850 0.771500 0.356290 -0.627376
O83   O     O_R   0.027850 0.228500 0.356290 -0.625389
O84   O     O_R   0.027850 0.228500 0.643710 -0.626865
O85   O     O_R   0.027850 0.271500 0.143710 -0.624316
O86   O     O_R   0.027850 0.271500 0.856290 -0.626729
O87   O     O_R   0.027850 0.728500 0.856290 -0.626566
O88   O     O_R   0.027850 0.728500 0.143710 -0.628539
O89   O     O_R   0.472140 0.668020 0.222150 -0.616325
O90   O     O_R   0.472140 0.668020 0.777850 -0.612118
O91   O     O_R   0.472140 0.331980 0.777850 -0.616254
O92   O     O_R   0.472140 0.331980 0.222150 -0.612019
O93   O     O_R   0.472140 0.168020 0.722150 -0.616139
O94   O     O_R   0.472140 0.168020 0.277850 -0.609004
O95   O     O_R   0.472140 0.831980 0.277850 -0.618295
O96   O     O_R   0.472140 0.831980 0.722150 -0.612674
O97   O     O_R   0.972140 0.668020 0.722150 -0.615792
O98   O     O_R   0.972140 0.668020 0.277850 -0.608389
O99   O     O_R   0.972140 0.331980 0.277850 -0.617083
O100  O     O_R   0.972140 0.331980 0.722150 -0.611751
O101  O     O_R   0.972140 0.168020 0.222150 -0.616622
O102  O     O_R   0.972140 0.168020 0.777850 -0.611739
O103  O     O_R   0.972140 0.831980 0.777850 -0.616112
O104  O     O_R   0.972140 0.831980 0.222150 -0.612655
Zn1   Zn    Zn3+2 0.539790 0.780710 0.210180 1.022524
Zn2   Zn    Zn3+2 0.539790 0.780710 0.789820 1.019794
Zn3   Zn    Zn3+2 0.539790 0.219290 0.789820 1.022792
Zn4   Zn    Zn3+2 0.539790 0.219290 0.210180 1.015607
Zn5   Zn    Zn3+2 0.539790 0.280710 0.710180 1.023034
Zn6   Zn    Zn3+2 0.539790 0.280710 0.289820 1.019154
Zn7   Zn    Zn3+2 0.539790 0.719290 0.289820 1.022742
Zn8   Zn    Zn3+2 0.539790 0.719290 0.710180 1.019282
Zn9   Zn    Zn3+2 0.039790 0.780710 0.710180 1.022928
Zn10  Zn    Zn3+2 0.039790 0.780710 0.289820 1.019634
Zn11  Zn    Zn3+2 0.039790 0.219290 0.289820 1.023074
Zn12  Zn    Zn3+2 0.039790 0.219290 0.710180 1.019102
Zn13  Zn    Zn3+2 0.039790 0.280710 0.210180 1.021528
Zn14  Zn    Zn3+2 0.039790 0.280710 0.789820 1.019327
Zn15  Zn    Zn3+2 0.039790 0.719290 0.789820 1.022436
Zn16  Zn    Zn3+2 0.039790 0.719290 0.210180 1.015465
Zn17  Zn    Zn3+2 0.460190 0.719300 0.210200 1.024575
Zn18  Zn    Zn3+2 0.460190 0.719300 0.789800 1.029011
Zn19  Zn    Zn3+2 0.460190 0.280700 0.789800 1.024219
Zn20  Zn    Zn3+2 0.460190 0.280700 0.210200 1.029496
Zn21  Zn    Zn3+2 0.460190 0.219300 0.710200 1.025320
Zn22  Zn    Zn3+2 0.460190 0.219300 0.289800 1.033220
Zn23  Zn    Zn3+2 0.460190 0.780700 0.289800 1.021530
Zn24  Zn    Zn3+2 0.460190 0.780700 0.710200 1.028826
Zn25  Zn    Zn3+2 0.960190 0.719300 0.710200 1.025257
Zn26  Zn    Zn3+2 0.960190 0.719300 0.289800 1.033578
Zn27  Zn    Zn3+2 0.960190 0.280700 0.289800 1.021820
Zn28  Zn    Zn3+2 0.960190 0.280700 0.710200 1.029256
Zn29  Zn    Zn3+2 0.960190 0.219300 0.210200 1.024657
Zn30  Zn    Zn3+2 0.960190 0.219300 0.789800 1.029103
Zn31  Zn    Zn3+2 0.960190 0.780700 0.789800 1.024371
Zn32  Zn    Zn3+2 0.960190 0.780700 0.210200 1.028949
C209  C     C_2   0.090414 0.535004 0.269451 0.926312
O105  O     O_2   0.083961 0.559705 0.298574 -0.549773
O106  O     O_R   0.137787 0.523501 0.260977 -0.782847
H1    H     H_    0.161823 0.535137 0.283860 0.375125
C210  C     C_2   0.089082 0.536365 0.734438 1.030402
O107  O     O_2   0.109402 0.516360 0.705482 -0.543352
O108  O     O_R   0.102617 0.573483 0.736929 -0.774936
H2    H     H_    0.128898 0.580056 0.713110 0.355879
C211  C     C_2   0.093178 0.458538 0.762213 0.984754
O109  O     O_2   0.093892 0.432144 0.734860 -0.564495
O110  O     O_R   0.136451 0.470392 0.782928 -0.824917
H3    H     H_    0.165223 0.455510 0.771690 0.372985
C212  C     C_2   0.090218 0.454496 0.244511 0.927837
O111  O     O_2   0.108980 0.458673 0.283827 -0.575336
O112  O     O_R   0.107631 0.426269 0.214785 -0.755150
H4    H     H_    0.135339 0.412148 0.229762 0.358347
C213  C     C_2   0.093229 0.041467 0.738235 0.984401
O113  O     O_2   0.093810 0.067859 0.765593 -0.565313
O114  O     O_R   0.136602 0.029616 0.717727 -0.825601
H5    H     H_    0.165320 0.044497 0.729104 0.372375
C214  C     C_2   0.086704 0.036367 0.224649 1.030951
O115  O     O_2   0.103685 0.016361 0.193617 -0.545495
O116  O     O_R   0.100434 0.073484 0.225624 -0.776476
H6    H     H_    0.123912 0.080056 0.199038 0.354623
C215  C     C_2   0.093862 0.958545 0.251807 0.983375
O117  O     O_2   0.091545 0.932155 0.224536 -0.566711
O118  O     O_R   0.139163 0.970398 0.267607 -0.822917
H7    H     H_    0.166514 0.955518 0.253252 0.373981
C216  C     C_2   0.089001 0.963639 0.765989 1.029989
O119  O     O_2   0.109178 0.983645 0.795045 -0.544659
O120  O     O_R   0.102549 0.926522 0.763562 -0.775231
H8    H     H_    0.128717 0.919950 0.787505 0.355330
C217  C     C_2   0.593604 0.541462 0.742116 0.984178
O121  O     O_2   0.593055 0.567853 0.769478 -0.565477
O122  O     O_R   0.637788 0.529611 0.723420 -0.824739
H9    H     H_    0.666011 0.544491 0.735977 0.373375
C218  C     C_2   0.588472 0.536366 0.231430 1.030751
O123  O     O_2   0.607799 0.516360 0.201802 -0.545475
O124  O     O_R   0.602084 0.573483 0.233463 -0.775397
H10   H     H_    0.627544 0.580056 0.208769 0.354700
C219  C     C_2   0.593507 0.458539 0.259052 0.983807
O125  O     O_2   0.593297 0.432148 0.231687 -0.565840
O126  O     O_R   0.637455 0.470392 0.278295 -0.822871
H11   H     H_    0.665831 0.455511 0.266091 0.374148
C220  C     C_2   0.588225 0.463636 0.769667 1.030574
O127  O     O_2   0.607179 0.483640 0.799537 -0.544006
O128  O     O_R   0.601865 0.426520 0.767797 -0.775700
H12   H     H_    0.627017 0.419947 0.792805 0.355419
C221  C     C_2   0.587588 0.034924 0.279192 0.924532
O129  O     O_2   0.578096 0.059731 0.307316 -0.550178
O130  O     O_R   0.635536 0.023244 0.276071 -0.783496
H13   H     H_    0.656954 0.034855 0.301440 0.374575
C222  C     C_2   0.586728 0.036367 0.724751 1.031187
O131  O     O_2   0.603739 0.016362 0.693735 -0.542921
O132  O     O_R   0.600461 0.073483 0.725744 -0.776309
H14   H     H_    0.623969 0.080055 0.699183 0.355770
C223  C     C_2   0.593858 0.958545 0.751917 0.984047
O133  O     O_2   0.591570 0.932155 0.724646 -0.565449
O134  O     O_R   0.639142 0.970401 0.767763 -0.824152
H15   H     H_    0.666510 0.955521 0.753437 0.373830
C224  C     C_2   0.590163 0.954490 0.254131 0.928363
O135  O     O_2   0.604237 0.958340 0.295411 -0.575367
O136  O     O_R   0.611152 0.926644 0.226151 -0.755927
H16   H     H_    0.637099 0.912503 0.243980 0.357719
C225  C     C_2   0.442289 0.958385 0.327375 1.089824
O137  O     O_2   0.422481 0.930948 0.311504 -0.617453
O138  O     O_R   0.431247 0.969928 0.374199 -0.752946
H17   H     H_    0.404981 0.954560 0.389669 0.362065
C226  C     C_2   0.452603 0.958251 0.665229 0.957066
O139  O     O_2   0.433076 0.929775 0.678025 -0.581356
O140  O     O_R   0.444578 0.970948 0.618281 -0.788803
H18   H     H_    0.420515 0.955287 0.599988 0.373067
C227  C     C_2   0.431814 0.037184 0.683749 0.965818
O141  O     O_2   0.427693 0.070173 0.675336 -0.547065
O142  O     O_R   0.392211 0.014548 0.675116 -0.774631
H19   H     H_    0.362685 0.028736 0.664286 0.373364
C228  C     C_2   0.422751 0.036714 0.306503 0.967239
O143  O     O_2   0.417114 0.069893 0.312416 -0.532907
O144  O     O_R   0.382830 0.013878 0.312667 -0.771355
H20   H     H_    0.352067 0.028048 0.319270 0.378835
C229  C     C_2   0.436240 0.462806 0.820459 0.964756
O145  O     O_2   0.432668 0.429818 0.829126 -0.548686
O146  O     O_R   0.397262 0.485439 0.831581 -0.774742
H21   H     H_    0.368487 0.471249 0.844268 0.373001
C230  C     C_2   0.459266 0.458258 0.161862 0.956158
O147  O     O_2   0.438823 0.429779 0.173129 -0.581406
O148  O     O_R   0.454836 0.470960 0.114442 -0.791387
H22   H     H_    0.432235 0.455302 0.094368 0.372740
C231  C     C_2   0.437131 0.537189 0.178755 0.964768
O149  O     O_2   0.433665 0.570177 0.170049 -0.548822
O150  O     O_R   0.398297 0.514554 0.167138 -0.774615
H23   H     H_    0.369683 0.528743 0.154092 0.373146
C232  C     C_2   0.458162 0.541737 0.837630 0.956324
O151  O     O_2   0.437867 0.570218 0.826115 -0.581403
O152  O     O_R   0.453138 0.529028 0.884988 -0.791383
H24   H     H_    0.430287 0.544684 0.904780 0.372647
C233  C     C_2   0.939249 0.962806 0.823032 0.964854
O153  O     O_2   0.936037 0.929816 0.831826 -0.548752
O154  O     O_R   0.900771 0.985438 0.835780 -0.774559
H25   H     H_    0.872549 0.971247 0.849653 0.373138
C234  C     C_2   0.952518 0.958254 0.165265 0.956806
O155  O     O_2   0.933014 0.929771 0.178074 -0.581114
O156  O     O_R   0.944435 0.970958 0.118330 -0.791392
H26   H     H_    0.920353 0.955297 0.100061 0.372775
C235  C     C_2   0.931748 0.037184 0.183812 0.964750
O157  O     O_2   0.927620 0.070172 0.175394 -0.548516
O158  O     O_R   0.892133 0.014548 0.175237 -0.774676
H27   H     H_    0.862595 0.028735 0.164439 0.373175
C236  C     C_2   0.961862 0.041738 0.839276 0.956015
O159  O     O_2   0.941092 0.070212 0.828605 -0.581544
O160  O     O_R   0.958817 0.029039 0.886807 -0.791284
H28   H     H_    0.936806 0.044696 0.907528 0.372691
C237  C     C_2   0.951177 0.458369 0.333124 1.088938
O161  O     O_2   0.929728 0.430957 0.319467 -0.617561
O162  O     O_R   0.945295 0.469889 0.380882 -0.753101
H29   H     H_    0.920855 0.454521 0.399099 0.361754
C238  C     C_2   0.962305 0.458257 0.660537 0.956168
O163  O     O_2   0.941480 0.429785 0.671110 -0.581780
O164  O     O_R   0.959494 0.470952 0.612990 -0.788802
H30   H     H_    0.937586 0.455293 0.592163 0.372879
C239  C     C_2   0.939611 0.537190 0.676669 0.965889
O165  O     O_2   0.936440 0.570180 0.667863 -0.547427
O166  O     O_R   0.901200 0.514555 0.663725 -0.774487
H31   H     H_    0.873045 0.528745 0.649717 0.373482
C240  C     C_2   0.929454 0.536686 0.314475 0.967125
O167  O     O_2   0.924466 0.569864 0.320957 -0.532846
O168  O     O_R   0.890451 0.513836 0.324931 -0.771264
H32   H     H_    0.860572 0.527995 0.334818 0.378769
O169  O     O_3   0.521873 0.968449 0.330976 -0.727412
H33   H     H_    0.544302 0.989004 0.336448 0.405526
O170  O     O_3   0.534123 0.971107 0.672879 -0.695294
H34   H     H_    0.531729 0.976043 0.637805 0.390668
O171  O     O_3   0.513270 0.039063 0.664781 -0.725916
H35   H     H_    0.502297 0.032900 0.631674 0.369904
O172  O     O_3   0.499590 0.039140 0.336666 -0.706906
H36   H     H_    0.486854 0.029369 0.367601 0.386808
O173  O     O_3   0.518740 0.460931 0.834197 -0.727249
H37   H     H_    0.509898 0.467091 0.867937 0.368529
O174  O     O_3   0.539966 0.471110 0.175700 -0.696360
H38   H     H_    0.540250 0.476047 0.140546 0.389414
O175  O     O_3   0.519794 0.539066 0.166043 -0.727445
H39   H     H_    0.511373 0.532906 0.132196 0.368456
O176  O     O_3   0.539030 0.528889 0.824797 -0.696115
H40   H     H_    0.538875 0.523952 0.859951 0.389564
O177  O     O_3   0.022247 0.960934 0.833333 -0.727188
H41   H     H_    0.014811 0.967093 0.867417 0.368560
O178  O     O_3   0.034045 0.971109 0.172831 -0.696139
H42   H     H_    0.031613 0.976044 0.137760 0.389444
O179  O     O_3   0.013183 0.039064 0.164757 -0.727135
H43   H     H_    0.002175 0.032902 0.131661 0.368458
O180  O     O_3   0.042129 0.028891 0.823103 -0.696230
H44   H     H_    0.043433 0.023953 0.858234 0.389587
O181  O     O_3   0.030692 0.468445 0.328075 -0.728486
H45   H     H_    0.053549 0.489019 0.331129 0.405694
O182  O     O_3   0.042491 0.471110 0.677099 -0.695650
H46   H     H_    0.043965 0.476047 0.641975 0.390547
O183  O     O_3   0.022657 0.539066 0.666764 -0.726359
H47   H     H_    0.015387 0.532905 0.632652 0.369779
O184  O     O_3   0.009091 0.539136 0.336178 -0.707261
H48   H     H_    0.999774 0.529353 0.368302 0.386787
C241  C     C_2   0.459486 0.958095 0.158215 1.119360
O185  O     O_2   0.485550 0.931454 0.151184 -0.550566
O186  O     O_R   0.428242 0.969284 0.121433 -0.743295
H49   H     H_    0.432163 0.954237 0.090934 0.359222
C242  C     C_2   0.451579 0.958131 0.835881 1.110213
O187  O     O_2   0.477164 0.931786 0.845894 -0.564855
O188  O     O_R   0.416466 0.969247 0.869032 -0.747073
H50   H     H_    0.417301 0.954362 0.899904 0.359926
C243  C     C_2   0.479809 0.035524 0.842524 1.112964
O189  O     O_2   0.480507 0.068658 0.851263 -0.615403
O190  O     O_R   0.497963 0.011746 0.877715 -0.713872
H51   H     H_    0.509793 0.025122 0.907497 0.362737
C244  C     C_2   0.486793 0.036272 0.155082 1.116165
O191  O     O_2   0.505165 0.015608 0.125650 -0.534441
O192  O     O_R   0.487953 0.074249 0.145653 -0.802149
H52   H     H_    0.504472 0.080455 0.114136 0.360005
C245  C     C_2   0.474018 0.464483 0.658949 1.113160
O193  O     O_2   0.474162 0.431349 0.650179 -0.615920
O194  O     O_R   0.489890 0.488266 0.622677 -0.715891
H53   H     H_    0.499802 0.474894 0.592200 0.360988
C246  C     C_2   0.445246 0.458130 0.331941 1.110229
O195  O     O_2   0.469994 0.431785 0.343874 -0.566434
O196  O     O_R   0.407707 0.469244 0.362320 -0.747036
H54   H     H_    0.406186 0.454356 0.393162 0.360196
C247  C     C_2   0.472898 0.535519 0.340722 1.112943
O197  O     O_2   0.472933 0.568653 0.349492 -0.616289
O198  O     O_R   0.488317 0.511737 0.377190 -0.715864
H55   H     H_    0.497851 0.525110 0.407786 0.360995
C248  C     C_2   0.446260 0.541871 0.667390 1.109908
O199  O     O_2   0.471156 0.568216 0.655767 -0.566480
O200  O     O_R   0.409102 0.530757 0.636547 -0.747241
H56   H     H_    0.407964 0.545646 0.605689 0.359905
C249  C     C_2   0.970307 0.964481 0.660092 1.113153
O201  O     O_2   0.970088 0.931347 0.651324 -0.616601
O202  O     O_R   0.984663 0.988263 0.623194 -0.715731
H57   H     H_    0.993304 0.974891 0.592333 0.360886
C250  C     C_2   0.951668 0.958129 0.335917 1.110115
O203  O     O_2   0.977265 0.931785 0.345904 -0.565622
O204  O     O_R   0.916586 0.969243 0.369102 -0.747409
H58   H     H_    0.917451 0.954356 0.399971 0.359884
C251  C     C_2   0.979910 0.035521 0.342535 1.112849
O205  O     O_2   0.980623 0.068655 0.351273 -0.615255
O206  O     O_R   0.998096 0.011740 0.377706 -0.715990
H59   H     H_    0.009960 0.025115 0.407475 0.361087
C252  C     C_2   0.942918 0.041868 0.669674 1.110032
O207  O     O_2   0.967310 0.068213 0.657029 -0.566807
O208  O     O_R   0.904515 0.030752 0.640396 -0.747163
H60   H     H_    0.902100 0.045639 0.609610 0.360160
C253  C     C_2   0.950029 0.458102 0.163073 1.119138
O209  O     O_2   0.975211 0.431478 0.153265 -0.551638
O210  O     O_R   0.914997 0.469280 0.129873 -0.743561
H61   H     H_    0.915625 0.454240 0.099124 0.359178
C254  C     C_2   0.942536 0.458131 0.830046 1.110338
O211  O     O_2   0.966867 0.431787 0.842810 -0.566057
O212  O     O_R   0.903991 0.469246 0.859137 -0.747322
H62   H     H_    0.901426 0.454358 0.889910 0.359776
C255  C     C_2   0.969875 0.535520 0.839756 1.112842
O213  O     O_2   0.969611 0.568654 0.848522 -0.616926
O214  O     O_R   0.984055 0.511739 0.876724 -0.713807
H63   H     H_    0.992548 0.525113 0.907624 0.362648
C256  C     C_2   0.976769 0.536271 0.157023 1.116235
O215  O     O_2   0.991953 0.515613 0.125818 -0.534274
O216  O     O_R   0.976822 0.574244 0.147493 -0.803725
H64   H     H_    0.989856 0.580452 0.114383 0.359393
C257  C     C_2   0.406172 0.963134 0.222613 0.927373
O217  O     O_2   0.372833 0.983503 0.232696 -0.549743
O218  O     O_R   0.396995 0.925107 0.220559 -0.772863
H65   H     H_    0.362600 0.918597 0.229341 0.376597
C258  C     C_2   0.404960 0.963169 0.765824 0.923696
O219  O     O_2   0.397725 0.929835 0.764434 -0.580830
O220  O     O_R   0.366826 0.986158 0.753046 -0.730025
H66   H     H_    0.337214 0.972143 0.742046 0.379641
C259  C     C_2   0.410333 0.041686 0.794172 0.967451
O221  O     O_2   0.380581 0.031958 0.824157 -0.522601
O222  O     O_R   0.400238 0.072814 0.766424 -0.788521
H67   H     H_    0.366888 0.083139 0.772571 0.365152
C260  C     C_2   0.414083 0.041967 0.196556 0.951226
O223  O     O_2   0.403800 0.069854 0.218872 -0.594367
O224  O     O_R   0.382930 0.030208 0.159986 -0.711533
H68   H     H_    0.352626 0.045689 0.157794 0.369179
C261  C     C_2   0.407765 0.458309 0.711630 0.967284
O225  O     O_2   0.376165 0.468033 0.683598 -0.522600
O226  O     O_R   0.399459 0.427182 0.739968 -0.787620
H69   H     H_    0.365787 0.416854 0.735955 0.365422
C262  C     C_2   0.404099 0.463174 0.258539 0.924320
O227  O     O_2   0.396991 0.429840 0.256592 -0.579097
O228  O     O_R   0.367045 0.486165 0.242908 -0.729615
H70   H     H_    0.338354 0.472152 0.229687 0.380208
C263  C     C_2   0.407305 0.541688 0.287223 0.967019
O229  O     O_2   0.375358 0.531963 0.314858 -0.523935
O230  O     O_R   0.399353 0.572816 0.258786 -0.787481
H71   H     H_    0.365634 0.583145 0.262382 0.365183
C264  C     C_2   0.404203 0.536825 0.740275 0.924010
O231  O     O_2   0.397076 0.570158 0.742140 -0.579712
O232  O     O_R   0.366953 0.513832 0.755433 -0.729970
H72   H     H_    0.338100 0.527845 0.768296 0.379668
C265  C     C_2   0.906291 0.958307 0.715471 0.967042
O233  O     O_2   0.873555 0.968032 0.688774 -0.523289
O234  O     O_R   0.899166 0.927178 0.744125 -0.787117
H73   H     H_    0.865357 0.916849 0.741509 0.365365
C266  C     C_2   0.904978 0.963169 0.265909 0.924168
O235  O     O_2   0.897747 0.929835 0.264513 -0.580246
O236  O     O_R   0.866823 0.986158 0.253192 -0.729553
H74   H     H_    0.837200 0.972143 0.242223 0.380128
C267  C     C_2   0.910384 0.041687 0.294256 0.967231
O237  O     O_2   0.880666 0.031962 0.324276 -0.524086
O238  O     O_R   0.900260 0.072813 0.266516 -0.788413
H75   H     H_    0.866918 0.083140 0.272701 0.364835
C268  C     C_2   0.903915 0.036820 0.744238 0.924041
O239  O     O_2   0.896861 0.070152 0.746385 -0.579007
O240  O     O_R   0.867337 0.013824 0.760946 -0.730207
H76   H     H_    0.839041 0.027834 0.774994 0.379679
C269  C     C_2   0.903947 0.463117 0.232840 0.927527
O241  O     O_2   0.871892 0.483476 0.246491 -0.549703
O242  O     O_R   0.894607 0.425090 0.231758 -0.771753
H77   H     H_    0.861364 0.418571 0.244200 0.377084
C270  C     C_2   0.903897 0.463176 0.755292 0.923752
O243  O     O_2   0.896850 0.429843 0.753117 -0.579274
O244  O     O_R   0.867405 0.486170 0.738397 -0.730325
H78   H     H_    0.839178 0.472158 0.724211 0.379582
C271  C     C_2   0.906130 0.541688 0.784067 0.967016
O245  O     O_2   0.873264 0.531959 0.810601 -0.523202
O246  O     O_R   0.899145 0.572819 0.755382 -0.787182
H79   H     H_    0.865324 0.583146 0.757835 0.365441
C272  C     C_2   0.908964 0.541950 0.206112 0.951086
O247  O     O_2   0.901139 0.569834 0.229408 -0.593091
O248  O     O_R   0.874049 0.530181 0.173121 -0.711833
H80   H     H_    0.843677 0.545652 0.174216 0.369151
O249  O     O_3   0.553431 0.971877 0.181826 -0.658870
H81   H     H_    0.587010 0.976409 0.171065 0.378798
O250  O     O_3   0.548999 0.970836 0.821166 -0.694891
H82   H     H_    0.581109 0.976021 0.835300 0.377234
O251  O     O_3   0.566550 0.039250 0.806205 -0.729758
H83   H     H_    0.600944 0.032866 0.811515 0.357023
O252  O     O_3   0.569292 0.039567 0.198367 -0.748968
H84   H     H_    0.603472 0.032574 0.193111 0.359893
O253  O     O_3   0.562898 0.460759 0.689665 -0.729719
H85   H     H_    0.596882 0.467147 0.682175 0.356864
O254  O     O_3   0.543508 0.470830 0.324686 -0.695579
H86   H     H_    0.574450 0.476013 0.341223 0.376885
O255  O     O_3   0.562153 0.539244 0.311112 -0.729531
H87   H     H_    0.596042 0.532858 0.319023 0.357310
O256  O     O_3   0.544425 0.529173 0.675864 -0.695639
H88   H     H_    0.575570 0.523993 0.659712 0.376641
O257  O     O_3   0.060383 0.960760 0.687103 -0.729798
H89   H     H_    0.094028 0.967148 0.678212 0.356786
O258  O     O_3   0.049075 0.970835 0.321102 -0.695562
H90   H     H_    0.081199 0.976020 0.335203 0.376913
O259  O     O_3   0.066613 0.039249 0.306124 -0.729560
H91   H     H_    0.101012 0.032864 0.311397 0.357270
O260  O     O_3   0.041351 0.029174 0.674076 -0.695664
H92   H     H_    0.071800 0.023993 0.656649 0.376644
O261  O     O_3   0.046037 0.471841 0.176478 -0.658597
H93   H     H_    0.078327 0.476250 0.162240 0.378005
O262  O     O_3   0.040988 0.470830 0.826119 -0.694786
H94   H     H_    0.071353 0.476011 0.843693 0.377343
O263  O     O_3   0.060082 0.539244 0.813183 -0.729777
H95   H     H_    0.093683 0.532857 0.822237 0.356957
O264  O     O_3   0.063426 0.539553 0.191107 -0.748435
H96   H     H_    0.096806 0.532522 0.182125 0.360308

loop_
_geom_bond_atom_site_label_1
_geom_bond_atom_site_label_2
_ccdc_geom_bond_type
C255  O214  S    
O232  H72   S    
C8    O96   A    
C212  O111  D    
C66   C271  S    
C229  O145  D    
O8    Zn12  S    
O180  H44   S    
C52   C196  S    
C39   C87   T    
O216  H64   S    
C253  O210  S    
C50   C79   S    
C150  C185  S    
C139  O83   A    
C254  O211  D    
C111  C137  S    
C196  C221  S    
C23   O175  S    
C133  O29   A    
C170  C178  S    
C102  C132  S    
C265  O234  S    
C219  O125  D    
C270  O243  D    
C222  O132  S    
C230  O147  D    
C71   C250  S    
C220  O128  S    
C98   C114  T    
O182  H46   S    
C2    C41   S    
O49   Zn25  S    
C10   O98   A    
O238  H75   S    
O31   Zn23  S    
C22   C230  S    
C27   O179  S    
C197  O253  S    
C237  O161  D    
C235  O157  D    
O226  H69   S    
C12   O20   A    
C263  O230  S    
C55   C74   S    
C67   C270  S    
C55   C199  S    
O198  H55   S    
C235  O158  S    
O257  H89   S    
C208  O264  S    
O4    Zn6   S    
C204  C213  S    
O95   Zn23  S    
C63   C207  S    
C68   C253  S    
C44   C92   T    
O72   Zn10  S    
O1    Zn23  S    
C137  O33   A    
C148  C191  S    
C238  O164  S    
C226  O140  S    
C149  C186  S    
C268  O240  S    
C262  O227  D    
O69   Zn11  S    
C134  O30   A    
C153  O63   A    
C108  C124  T    
C152  C187  S    
C154  O64   A    
C108  C142  S    
C211  O110  S    
C78   C243  S    
C211  O109  D    
O66   Zn16  S    
C151  C188  S    
C166  C174  T    
C51   C78   S    
C202  C203  S    
O164  H30   S    
C112  C138  S    
O122  H9    S    
C160  O70   A    
C244  O192  S    
C206  C207  S    
C72   C249  S    
C131  O27   A    
C240  O167  D    
C78   C259  S    
C153  C161  S    
C140  O36   A    
O146  H21   S    
C26   O178  S    
C243  O190  S    
C231  O149  D    
C7    O15   A    
O110  H3    S    
C19   O171  S    
O130  H13   S    
C65   C68   S    
O2    Zn24  S    
O30   Zn22  S    
C261  O225  D    
O10   Zn8   S    
C132  O28   A    
C3    O91   A    
O249  H81   S    
C201  O257  S    
C67   C254  S    
O13   Zn3   S    
O100  Zn28  S    
C248  O200  S    
C218  O123  D    
O50   Zn26  S    
C24   C56   S    
C68   C269  S    
C17   C49   S    
C52   C77   S    
O208  H60   S    
O98   Zn26  S    
C57   C88   S    
C175  C183  S    
C5    C46   S    
C176  C184  S    
C194  O250  S    
C56   C73   S    
C48   C96   T    
C75   C262  S    
C239  O165  D    
O148  H22   S    
C61   C84   S    
O120  H8    S    
C23   C55   S    
C27   C235  S    
C4    C43   S    
C142  O86   A    
O23   Zn9   S    
C269  O241  D    
C49   C80   S    
C80   C241  S    
C155  C163  S    
C7    C48   S    
O96   Zn24  S    
C206  C211  S    
C272  O248  S    
C249  O201  D    
C8    C47   S    
O41   Zn17  S    
C252  O208  S    
O210  H61   S    
C51   C195  S    
O263  H95   S    
C99   C115  T    
C72   C265  S    
C143  O87   A    
C30   C31   S    
C144  O88   A    
C26   C234  S    
C18   O170  S    
O43   Zn19  S    
C12   O100  A    
C159  C167  S    
C13   O101  A    
O222  H67   S    
C160  C168  S    
C234  O155  D    
C14   O22   A    
O244  H78   S    
C29   C237  S    
C32   O184  S    
C25   O177  S    
C178  C186  T    
C70   C251  S    
C205  O261  S    
O6    Zn10  S    
C179  C187  T    
C58   C202  S    
O8    Zn28  S    
C21   C24   S    
O112  H4    S    
C2    O10   A    
C22   C23   S    
C4    O92   A    
O104  Zn32  S    
C73   C248  S    
C265  O233  D    
C214  O115  D    
C5    O93   A    
C62   C206  S    
O118  H7    S    
C6    O14   A    
C7    O95   A    
C41   C89   T    
O27   Zn19  S    
C266  O235  D    
O85   Zn13  S    
C145  C190  S    
O236  H74   S    
C18   C50   S    
C223  O133  D    
C45   C93   T    
C174  C182  S    
C131  O75   A    
C267  O237  D    
O81   Zn9   S    
C123  C124  S    
C22   C54   S    
C256  O215  D    
C250  O203  D    
C38   C86   T    
C145  O41   A    
C198  O254  S    
C55   C90   S    
C259  O222  S    
O254  H86   S    
O246  H79   S    
C204  O260  S    
C17   O169  S    
O15   Zn1   S    
C258  O220  S    
C253  O209  D    
O1    Zn7   S    
C134  O78   A    
C77   C260  S    
C60   C204  S    
O212  H62   S    
O52   Zn28  S    
C141  O37   A    
C109  C125  T    
C200  C217  S    
C107  C141  S    
C6    O94   A    
C74   C247  S    
C70   C267  S    
O35   Zn27  S    
C161  C169  T    
O4    Zn20  S    
C195  O251  S    
C66   C67   S    
O3    Zn21  S    
C246  O195  D    
O192  H52   S    
C196  O252  S    
C171  C179  S    
C260  O223  D    
C25   C57   S    
C169  C177  S    
C227  O142  S    
C20   O172  S    
C100  C134  S    
O173  H37   S    
C28   C60   S    
O7    Zn29  S    
C29   C61   S    
C3    C44   S    
C241  O186  S    
C11   O99   A    
C63   C82   S    
C31   C63   S    
C32   C64   S    
C157  C165  S    
C208  C209  S    
C197  C220  S    
C203  O259  S    
C142  O38   A    
O89   Zn17  S    
C147  O45   A    
C42   C90   T    
C62   C83   S    
C69   C72   S    
O39   Zn31  S    
O175  H39   S    
C157  O71   A    
O60   Zn6   S    
O25   Zn17  S    
O230  H71   S    
C156  O60   A    
O264  H96   S    
C193  C196  S    
C17   C225  S    
C106  C122  T    
C247  O197  D    
C257  O217  D    
C52   C93   S    
C12   C35   S    
O37   Zn29  S    
C245  O194  S    
C149  O49   A    
C13   C38   S    
C77   C244  S    
C110  C126  T    
C56   C89   S    
C21   C229  S    
C216  O119  D    
O2    Zn2   S    
C159  O69   A    
C164  C172  T    
O40   Zn32  S    
C97   C135  S    
C74   C263  S    
O188  H50   S    
O240  H76   S    
C21   O173  S    
C167  C175  T    
C152  O54   A    
C168  C176  T    
C200  O256  S    
C15   O23   A    
O7    Zn27  S    
O5    Zn15  S    
O101  Zn29  S    
O184  H48   S    
C69   C268  S    
C249  O202  S    
C75   C246  S    
C117  C118  S    
O78   Zn6   S    
C225  O137  D    
O33   Zn25  S    
O75   Zn3   S    
C222  O131  D    
C193  C224  S    
C60   C69   S    
O45   Zn21  S    
C251  O206  S    
C149  O55   A    
C10   C33   S    
C64   C81   S    
C217  O122  S    
O67   Zn13  S    
C59   C70   S    
O220  H66   S    
O4    Zn22  S    
O160  H28   S    
C135  O79   A    
O3    Zn19  S    
C255  O213  D    
C57   C201  S    
O176  H40   S    
O87   Zn15  S    
O252  H84   S    
C194  C223  S    
C9    O17   A    
C22   O174  S    
C34   C82   T    
C233  O154  S    
C271  O246  S    
O179  H43   S    
O178  H42   S    
C232  O151  D    
O190  H51   S    
C219  O126  S    
C215  O118  S    
O20   Zn14  S    
C199  O255  S    
C226  O139  D    
C6    C45   S    
O63   Zn1   S    
O17   Zn15  S    
O172  H36   S    
C100  C116  T    
C107  C123  T    
O5    Zn9   S    
O86   Zn14  S    
O261  H93   S    
C155  O61   A    
C183  C191  T    
O256  H88   S    
O144  H20   S    
C25   C28   S    
C148  O46   A    
C66   C255  S    
C213  O114  S    
C147  O43   A    
C26   C27   S    
C228  O143  D    
C25   C233  S    
O204  H58   S    
C32   C240  S    
C1    O89   A    
C14   O102  A    
O253  H85   S    
C29   C32   S    
C30   O182  S    
C216  O120  S    
C30   C62   S    
C157  O65   A    
C242  O187  D    
O108  H2    S    
C69   C252  S    
C58   C71   S    
C257  O218  S    
C156  O62   A    
C228  O144  S    
O260  H92   S    
C17   C20   S    
C177  C185  T    
C18   C19   S    
O8    Zn14  S    
C236  O160  S    
C199  C218  S    
C180  C188  T    
O2    Zn8   S    
C181  C189  T    
O3    Zn5   S    
C198  C219  S    
O142  H19   S    
C4    O12   A    
O22   Zn12  S    
O255  H87   S    
O114  H5    S    
C184  C192  T    
C146  C189  S    
C70   C71   S    
C160  O68   A    
C209  O106  S    
C163  C171  T    
C28   C236  S    
C8    O16   A    
O18   Zn16  S    
C244  O191  D    
O53   Zn29  S    
C172  C180  S    
C232  O152  S    
C194  C195  S    
C63   C66   S    
C173  C181  S    
O218  H65   S    
O36   Zn28  S    
C18   C226  S    
C104  C130  S    
C248  O199  D    
C229  O146  S    
O68   Zn14  S    
C154  C162  S    
C207  C210  S    
C240  O168  S    
C210  O107  D    
O91   Zn19  S    
O77   Zn5   S    
O262  H94   S    
O90   Zn18  S    
C261  O226  S    
O76   Zn4   S    
C151  O51   A    
O156  H26   S    
C195  C222  S    
O16   Zn2   S    
O250  H82   S    
O80   Zn8   S    
O106  H1    S    
O102  Zn30  S    
C29   O181  S    
C31   O183  S    
O1    Zn17  S    
O59   Zn5   S    
C264  O231  D    
C130  O26   A    
O214  H63   S    
O6    Zn16  S    
C197  C200  S    
C153  O57   A    
O152  H24   S    
C252  O207  D    
O79   Zn7   S    
C140  O84   A    
C269  O242  S    
C141  O85   A    
C162  C170  T    
O194  H53   S    
C24   O176  S    
O64   Zn2   S    
C56   C200  S    
C137  O81   A    
C103  C129  S    
C121  C122  S    
O44   Zn20  S    
C101  C131  S    
C132  O76   A    
C133  O77   A    
O5    Zn31  S    
C28   O180  S    
O51   Zn27  S    
C125  C126  S    
C73   C76   S    
C53   C76   S    
O7    Zn13  S    
C127  C128  S    
O99   Zn27  S    
O150  H23   S    
C158  C166  S    
C242  O188  S    
C271  O245  D    
C79   C258  S    
C77   C80   S    
C46   C94   T    
O47   Zn23  S    
O126  H11   S    
C35   C83   T    
O88   Zn16  S    
C202  C215  S    
C231  O150  S    
C53   C197  S    
C262  O228  S    
O248  H80   S    
O84   Zn12  S    
O61   Zn3   S    
O62   Zn4   S    
C264  O232  S    
O54   Zn30  S    
C130  O74   A    
C101  C117  T    
C64   C65   S    
O42   Zn18  S    
C224  O136  S    
C54   C91   S    
C138  O82   A    
C76   C245  S    
C14   C37   S    
C50   C194  S    
O3    Zn3   S    
C115  C116  S    
C110  C140  S    
O206  H59   S    
C143  O39   A    
C9    C34   S    
C57   C72   S    
O103  Zn31  S    
C15   C40   S    
C112  C128  T    
C151  O53   A    
C16   C39   S    
C13   O21   A    
C59   C203  S    
C1    C42   S    
O224  H68   S    
C9    O97   A    
C3    O11   A    
O138  H17   S    
C218  O124  S    
C65   C272  S    
C145  O47   A    
C60   C85   S    
C1    O9    A    
O74   Zn2   S    
C272  O247  D    
C40   C88   T    
O132  H14   S    
C104  C120  T    
C5    O13   A    
C80   C257  S    
C16   O104  A    
C203  C214  S    
C193  O249  S    
C202  O258  S    
C266  O236  S    
O134  H15   S    
C31   C239  S    
O168  H32   S    
C58   C87   S    
O82   Zn10  S    
C227  O141  D    
C79   C242  S    
C263  O229  D    
O128  H12   S    
C64   C208  S    
C241  O185  D    
O171  H35   S    
O200  H56   S    
O8    Zn30  S    
C62   C67   S    
C146  O42   A    
O174  H38   S    
C206  O262  S    
C37   C85   T    
C11   C36   S    
O46   Zn22  S    
O181  H45   S    
C214  O116  S    
C50   C95   S    
C165  C173  T    
O196  H54   S    
C98   C136  S    
C99   C133  S    
O92   Zn20  S    
C243  O189  D    
C237  O162  S    
C260  O224  S    
C76   C261  S    
C239  O166  S    
C24   C232  S    
C113  C114  S    
C26   C58   S    
O234  H73   S    
O55   Zn31  S    
O5    Zn25  S    
O136  H16   S    
C198  C199  S    
C225  O138  S    
C245  O193  D    
C148  O44   A    
C205  C212  S    
C102  C118  T    
C207  O263  S    
O71   Zn9   S    
O28   Zn20  S    
C65   C256  S    
C258  O219  D    
O73   Zn1   S    
C2    O90   A    
O97   Zn25  S    
O1    Zn1   S    
C223  O134  S    
O12   Zn6   S    
C182  C190  T    
C158  O66   A    
C254  O212  S    
O48   Zn24  S    
C256  O216  S    
O6    Zn32  S    
C23   C231  S    
C270  O244  S    
O186  H49   S    
C74   C75   S    
C230  O148  S    
O251  H83   S    
O166  H31   S    
O6    Zn26  S    
O19   Zn13  S    
O32   Zn24  S    
O170  H34   S    
O94   Zn22  S    
C78   C79   S    
O7    Zn11  S    
O169  H33   S    
C16   O24   A    
C43   C91   T    
O158  H27   S    
C129  O25   A    
O56   Zn32  S    
C212  O112  S    
O29   Zn21  S    
C238  O163  D    
C19   C51   S    
O26   Zn18  S    
O116  H6    S    
O11   Zn5   S    
C152  O52   A    
O140  H18   S    
O83   Zn11  S    
C147  C192  S    
O242  H77   S    
C73   C264  S    
C53   C92   S    
C19   C227  S    
C251  O205  D    
O9    Zn7   S    
C105  C121  T    
O38   Zn30  S    
C119  C120  S    
C129  O73   A    
C20   C228  S    
O70   Zn12  S    
C217  O121  D    
C103  C119  T    
C11   O19   A    
O14   Zn4   S    
O65   Zn15  S    
C246  O196  S    
C111  C127  T    
C201  C204  S    
O4    Zn4   S    
C201  C216  S    
C97   C113  T    
C136  O80   A    
C144  O40   A    
C221  O130  S    
C158  O72   A    
O202  H57   S    
C139  O35   A    
O2    Zn18  S    
C215  O117  D    
O177  H41   S    
C205  C208  S    
O24   Zn10  S    
C146  O48   A    
O57   Zn7   S    
O58   Zn8   S    
C154  O58   A    
C138  O34   A    
C105  C143  S    
C106  C144  S    
C71   C266  S    
O258  H90   S    
C234  O156  S    
C213  O113  D    
C54   C198  S    
C268  O239  D    
C109  C139  S    
C159  O67   A    
O34   Zn26  S    
C136  O32   A    
C267  O238  S    
C59   C86   S    
O154  H25   S    
C20   C52   S    
C27   C59   S    
O259  H91   S    
C150  O50   A    
C21   C53   S    
C61   C68   S    
C233  O153  D    
C220  O127  D    
C49   C193  S    
C36   C84   T    
C247  O198  S    
O162  H29   S    
C135  O31   A    
C224  O135  D    
C49   C96   S    
C236  O159  D    
C61   C205  S    
C51   C94   S    
O228  H70   S    
O21   Zn11  S    
C250  O204  S    
C156  C164  S    
C210  O108  S    
C259  O221  D    
C150  O56   A    
C10   O18   A    
C47   C95   T    
O93   Zn21  S    
C209  O105  D    
O183  H47   S    
C30   C238  S    
C33   C81   T    
C221  O129  D    
C155  O59   A    
O124  H10   S    
C54   C75   S    
C15   O103  A    
