data_mof_unit_66394.cif
_audit_creation_date              2012-12-10T19:28:24-0500
_audit_creation_method            fapswitch 2.2
_symmetry_space_group_name_H-M    P1
_symmetry_Int_Tables_number       1
_space_group_crystal_system       triclinic
_cell_length_a                    17.758026
_cell_length_b                    16.446742
_cell_length_c                    15.892232
_cell_angle_alpha                 90.017717
_cell_angle_beta                  90.490854
_cell_angle_gamma                 89.929803
_cell_volume                      4641.33783196

loop_
_atom_site_label
_atom_site_type_symbol
_atom_type_description
_atom_site_fract_x
_atom_site_fract_y
_atom_site_fract_z
_atom_type_partial_charge
C1    C     C_R   0.354989 0.500035 0.502133 0.874531
C2    C     C_3   0.589077 0.511916 0.952491 0.711214
C3    C     C_3   0.584282 0.506136 0.051488 -0.474120
C4    C     C_1   0.503462 0.501334 0.824780 0.065805
C5    C     C_1   0.500578 0.500487 0.174777 0.006107
C6    C     C_1   0.500035 0.500058 0.250260 -0.136571
C7    C     C_R   0.845924 0.573169 0.502188 -0.149465
C8    C     C_R   0.845766 0.425739 0.500950 -0.148538
C9    C     C_R   0.767437 0.573481 0.501732 -0.189606
C10   C     C_R   0.767286 0.425849 0.500495 -0.184439
C11   C     C_R   0.727448 0.499771 0.500796 -0.042192
C12   C     C_R   0.884953 0.499347 0.501737 0.135239
C13   C     C_1   0.965339 0.499143 0.502433 -0.064252
C14   C     C_R   0.499785 0.499993 0.339858 0.854788
C15   C     C_1   0.032835 0.499114 0.503311 0.012753
C16   C     C_R   0.151825 0.572957 0.504099 -0.256081
C17   C     C_R   0.152477 0.426144 0.508962 -0.252367
C18   C     C_R   0.230706 0.574266 0.506998 0.403716
C19   C     C_R   0.231301 0.425658 0.511564 0.405596
C20   C     C_R   0.271471 0.500006 0.506101 -0.256103
C21   C     C_R   0.113234 0.499359 0.504875 0.014763
C22   C     C_R   0.545712 0.827999 0.558350 0.493890
C23   C     C_R   0.546975 0.171879 0.556998 0.492698
C24   C     C_R   0.544581 0.742224 0.556147 -0.195233
C25   C     C_R   0.545848 0.257659 0.554834 -0.195882
C26   C     C_R   0.455635 0.743954 0.444698 0.708905
C27   C     C_R   0.454241 0.256166 0.446106 0.710741
C28   C     C_R   0.455197 0.829792 0.444791 0.391551
C29   C     C_R   0.453652 0.170328 0.446313 0.395912
C30   C     C_R   0.500610 0.873084 0.502108 -0.245027
C31   C     C_R   0.500466 0.126915 0.502188 -0.247397
C32   C     C_R   0.644695 0.499947 0.500269 0.771703
C33   C     C_1   0.500883 0.962725 0.502880 0.221880
C34   C     C_1   0.500829 0.037272 0.502896 0.221501
C35   C     C_R   0.499915 0.500033 0.660041 0.796523
C36   C     C_3   0.456968 0.575848 0.049169 -0.460624
C37   C     C_3   0.466271 0.422597 0.047328 -0.454793
C38   C     C_3   0.473972 0.419563 0.950051 0.248476
C39   C     C_3   0.457921 0.575958 0.950910 0.297443
C40   C     C_1   0.501356 0.500313 0.749403 -0.168226
C41   C     C_3   0.501785 0.501510 0.082652 0.110925
C42   C     C_3   0.505552 0.502418 0.916976 0.046300
Cu1   Cu    Cu3+1 0.499980 0.580420 0.500000 1.010507
Cu2   Cu    Cu3+1 0.499980 0.419580 0.500000 1.012032
H1    H     H_    0.579677 0.708373 0.599711 0.192791
H2    H     H_    0.581964 0.291420 0.597384 0.200879
H3    H     H_    0.399759 0.576894 0.076286 0.190379
H4    H     H_    0.406300 0.418417 0.066295 0.201604
H5    H     H_    0.495121 0.368634 0.075078 0.164075
H6    H     H_    0.484315 0.632453 0.072795 0.183169
H7    H     H_    0.516611 0.371905 0.934554 0.123733
H8    H     H_    0.490224 0.631486 0.934746 0.167536
H9    H     H_    0.612878 0.559414 0.080850 0.192647
H10   H     H_    0.614182 0.451391 0.075463 0.156548
H11   H     H_    0.876138 0.630375 0.502931 0.141578
H12   H     H_    0.875848 0.368374 0.500722 0.142156
H13   H     H_    0.738177 0.631297 0.502143 0.162663
H14   H     H_    0.737911 0.368176 0.499902 0.163491
H15   H     H_    0.120689 0.629634 0.501447 0.160130
H16   H     H_    0.121975 0.369119 0.510410 0.162311
N1    N     N_R   0.499970 0.701220 0.499980 -0.291546
N2    N     N_R   0.499970 0.298780 0.499980 -0.294186
O1    O     O_R   0.391240 0.567930 0.499990 -0.501350
O2    O     O_R   0.391240 0.432070 0.499990 -0.499986
O3    O     O_R   0.499990 0.567940 0.379430 -0.529019
O4    O     O_R   0.499990 0.432060 0.379430 -0.532882
O5    O     O_R   0.608730 0.567880 0.500000 -0.589793
O6    O     O_R   0.608730 0.432120 0.500000 -0.588975
O7    O     O_R   0.499980 0.567880 0.620560 -0.588647
O8    O     O_R   0.499980 0.432120 0.620560 -0.584001
O9    O     O_3   0.388429 0.589304 0.906947 -0.573665
C43   C     C_3   0.323880 0.549951 0.938813 0.178558
H17   H     H_    0.334626 0.505262 0.989306 0.165717
H18   H     H_    0.296964 0.515835 0.886290 0.182410
C44   C     C_3   0.267786 0.613298 0.969290 -0.842991
H19   H     H_    0.251810 0.654500 0.916711 0.258883
H20   H     H_    0.216348 0.582675 0.992665 0.212178
H21   H     H_    0.292817 0.649935 0.021066 0.260486
O10   O     O_3   0.403759 0.401669 0.911013 -0.586470
C45   C     C_3   0.392651 0.316930 0.904214 0.063135
H22   H     H_    0.397854 0.286836 0.966764 0.158266
H23   H     H_    0.434098 0.289973 0.860010 0.161032
C46   C     C_3   0.313993 0.301166 0.869432 -0.790465
H24   H     H_    0.307361 0.330467 0.806848 0.239272
H25   H     H_    0.304725 0.234727 0.862587 0.213834
H26   H     H_    0.271222 0.326415 0.912861 0.245081
O11   O     O_3   0.267962 0.648195 0.507974 -0.510830
C47   C     C_3   0.257040 0.685990 0.586912 0.082397
H27   H     H_    0.266343 0.642728 0.640136 0.119778
H28   H     H_    0.199174 0.711634 0.590667 0.139771
C48   C     C_3   0.312845 0.755374 0.597369 -0.702411
H29   H     H_    0.307356 0.798623 0.544005 0.267623
H30   H     H_    0.301683 0.788294 0.656995 0.195775
H31   H     H_    0.371098 0.730965 0.599821 0.232713
O12   O     O_3   0.268949 0.352098 0.517170 -0.509512
C49   C     C_3   0.263227 0.322568 0.600421 0.079658
H32   H     H_    0.205261 0.299894 0.612236 0.138968
H33   H     H_    0.277657 0.370408 0.647705 0.110993
C50   C     C_3   0.317940 0.252298 0.612895 -0.718882
H34   H     H_    0.376691 0.274554 0.608022 0.236791
H35   H     H_    0.310245 0.225293 0.676264 0.190565
H36   H     H_    0.307808 0.204690 0.564541 0.266504
F1    F     F_    0.590681 0.866529 0.615113 -0.620221
F2    F     F_    0.593314 0.133213 0.612333 -0.618024
F3    F     F_    0.410523 0.703672 0.389599 -0.577680
F4    F     F_    0.408119 0.296590 0.392099 -0.578702
F5    F     F_    0.410285 0.870283 0.389363 -0.581093
F6    F     F_    0.407405 0.129954 0.392249 -0.580751
O13   O     O_3   0.618599 0.590808 0.932972 -0.628282
C51   C     C_3   0.650478 0.598915 0.851795 0.061620
H37   H     H_    0.642029 0.546040 0.809438 0.170992
H38   H     H_    0.712189 0.607413 0.859321 0.168461
C52   C     C_3   0.618608 0.674385 0.808927 -0.773890
H39   H     H_    0.629460 0.728885 0.848458 0.271980
H40   H     H_    0.645885 0.682926 0.746945 0.213791
H41   H     H_    0.556992 0.667873 0.798848 0.244545
O14   O     O_3   0.634829 0.447684 0.919489 -0.627708
C53   C     C_3   0.709725 0.447329 0.951485 0.051850
H42   H     H_    0.714085 0.402711 0.003748 0.156040
H43   H     H_    0.728988 0.507486 0.975438 0.167268
C54   C     C_3   0.763004 0.419738 0.882590 -0.787887
H44   H     H_    0.761255 0.462995 0.829026 0.229488
H45   H     H_    0.821476 0.416922 0.907758 0.207972
H46   H     H_    0.746534 0.358415 0.859705 0.265185

loop_
_geom_bond_atom_site_label_1
_geom_bond_atom_site_label_2
_ccdc_geom_bond_type
O11   C47   S    
C2    O13   S    
C16   C21   A    
C27   C29   A    
Cu2   O4    S    
O12   C49   S    
C7    H11   S    
Cu1   Cu2   S    
C8    H12   S    
Cu1   O1    S    
Cu2   O2    S    
C24   N1    A    
C46   H24   S    
C24   H1    S    
C10   H14   S    
C26   N1    A    
C38   C42   S    
C43   C44   S    
C5    C6    T    
C8    C10   A    
C3    H10   S    
C48   H30   S    
C38   O10   S    
C28   F5    S    
C49   C50   S    
C36   H3    S    
C44   H20   S    
C51   H37   S    
C54   H46   S    
C53   H42   S    
C14   O3    A    
C19   C20   A    
C35   O8    A    
C49   H33   S    
C29   F6    S    
Cu2   O8    S    
C9    H13   S    
Cu1   O3    S    
C32   O6    A    
C52   H41   S    
C39   H8    S    
Cu1   O7    S    
C36   C41   S    
C45   C46   S    
C1    O1    A    
C26   F3    S    
C2    O14   S    
C39   C42   S    
C53   H43   S    
C7    C12   A    
C36   H6    S    
C4    C40   T    
C43   H18   S    
C48   H29   S    
C43   H17   S    
C38   H7    S    
C27   F4    S    
Cu2   N2    S    
C17   C21   A    
C22   F1    S    
C53   C54   S    
C23   C31   A    
C44   H19   S    
C37   C38   S    
C27   N2    A    
C6    C14   S    
C37   H5    S    
C23   F2    S    
C47   C48   S    
C8    C12   A    
C49   H32   S    
C46   H26   S    
C33   C34   T    
C14   O4    A    
C31   C34   S    
C12   C13   S    
C37   H4    S    
C9    C11   A    
C51   C52   S    
C54   H44   S    
C32   O5    A    
Cu1   O5    S    
C50   H35   S    
C47   H28   S    
C11   C32   S    
C13   C15   T    
C22   C24   A    
Cu2   O6    S    
C1    O2    A    
C19   O12   S    
Cu1   N1    S    
C52   H39   S    
C7    C9    A    
C5    C41   S    
C3    C41   S    
C1    C20   S    
C22   C30   A    
C30   C33   S    
C46   H25   S    
C36   C39   S    
C45   H22   S    
C26   C28   A    
C18   O11   S    
C50   H34   S    
C28   C30   A    
C2    C3    S    
O9    C43   S    
C29   C31   A    
O13   C51   S    
C48   H31   S    
C3    H9    S    
C4    C42   S    
C2    C42   S    
C17   C19   A    
C45   H23   S    
C35   C40   S    
C18   C20   A    
C25   N2    A    
C23   C25   A    
C37   C41   S    
C44   H21   S    
C51   H38   S    
C54   H45   S    
C10   C11   A    
C17   H16   S    
O10   C45   S    
C15   C21   S    
C50   H36   S    
C47   H27   S    
C35   O7    A    
C16   C18   A    
C39   O9    S    
O14   C53   S    
C25   H2    S    
C16   H15   S    
C52   H40   S    
