data_mof_unit_62356.cif
_audit_creation_date              2012-12-10T21:01:53-0500
_audit_creation_method            fapswitch 2.2
_symmetry_space_group_name_H-M    P1
_symmetry_Int_Tables_number       1
_space_group_crystal_system       triclinic
_cell_length_a                    22.213778
_cell_length_b                    22.235817
_cell_length_c                    22.182892
_cell_angle_alpha                 108.384108
_cell_angle_beta                  109.969642
_cell_angle_gamma                 110.033539
_cell_volume                      8435.8101839

loop_
_atom_site_label
_atom_site_type_symbol
_atom_type_description
_atom_site_fract_x
_atom_site_fract_y
_atom_site_fract_z
_atom_type_partial_charge
C1    C     C_R   0.699593 0.849899 0.349929 0.818704
C2    C     C_R   0.300406 0.150101 0.650071 0.818703
C3    C     C_3   0.549307 0.502383 0.477446 -0.155613
C4    C     C_3   0.450694 0.497617 0.522554 -0.155612
C5    C     C_3   0.499923 0.536470 0.463538 0.185837
C6    C     C_3   0.500077 0.463530 0.536462 0.185837
C7    C     C_1   0.499867 0.577057 0.422965 -0.062522
C8    C     C_1   0.500133 0.422943 0.577035 -0.062522
C9    C     C_3   0.974792 0.431322 0.984636 0.498517
C10   C     C_3   0.025208 0.568678 0.015364 0.498518
C11   C     C_3   0.024078 0.468488 0.957781 -0.301095
C12   C     C_3   0.975922 0.531512 0.042219 -0.301095
C13   C     C_1   0.221136 0.609883 0.110274 -0.129201
C14   C     C_1   0.778864 0.390116 0.889726 -0.129201
C15   C     C_3   0.024703 0.497049 0.063376 -0.250395
C16   C     C_3   0.975297 0.502951 0.936624 -0.250395
C17   C     C_3   0.073390 0.535321 0.036288 0.087403
C18   C     C_3   0.926610 0.464679 0.963712 0.087403
C19   C     C_1   0.154435 0.576055 0.076709 0.007259
C20   C     C_1   0.845565 0.423945 0.923291 0.007259
C21   C     C_R   0.256985 0.473811 0.993827 -0.098217
C22   C     C_R   0.743014 0.526186 0.006172 -0.098214
C23   C     C_R   0.300443 0.650103 0.150152 0.846297
C24   C     C_R   0.699557 0.349897 0.849848 0.846300
C25   C     C_R   0.323803 0.473534 0.008787 0.022825
C26   C     C_R   0.676197 0.526463 0.991211 0.022828
C27   C     C_R   0.359476 0.492893 0.970058 0.038977
C28   C     C_R   0.640525 0.507107 0.029942 0.038978
C29   C     C_R   0.326626 0.510071 0.916531 -0.116872
C30   C     C_R   0.673375 0.489932 0.083471 -0.116877
C31   C     C_R   0.260229 0.509724 0.902320 -0.115696
C32   C     C_R   0.739772 0.490279 0.097683 -0.115697
C33   C     C_R   0.225696 0.492005 0.941142 -0.139977
C34   C     C_R   0.774305 0.507995 0.058859 -0.139977
C35   C     C_R   0.434945 0.447008 0.932754 -0.237131
C36   C     C_R   0.565056 0.552993 0.067246 -0.237132
C37   C     C_R   0.501638 0.447747 0.946489 -0.061641
C38   C     C_R   0.498362 0.552253 0.053511 -0.061640
C39   C     C_R   0.567715 0.501790 0.014037 -0.020189
C40   C     C_R   0.432285 0.498210 0.985962 -0.020189
C41   C     C_3   0.024885 0.995323 0.560114 0.524623
C42   C     C_3   0.975115 0.004677 0.439886 0.524622
C43   C     C_3   0.975504 0.029148 0.543144 -0.292532
C44   C     C_3   0.024496 0.970852 0.456856 -0.292532
C45   C     C_R   0.499214 0.890140 0.389636 0.795401
C46   C     C_R   0.500786 0.109860 0.610364 0.795400
C47   C     C_1   0.778904 0.889539 0.389802 -0.129439
C48   C     C_1   0.221096 0.110461 0.610198 -0.129439
C49   C     C_3   0.975392 0.928555 0.482018 -0.290770
C50   C     C_3   0.024608 0.071445 0.517982 -0.290770
C51   C     C_3   0.926621 0.963114 0.464157 0.091608
C52   C     C_3   0.073379 0.036886 0.535843 0.091608
C53   C     C_1   0.845603 0.922791 0.423373 0.019441
C54   C     C_1   0.154397 0.077209 0.576627 0.019442
C55   C     C_3   0.469409 0.040909 0.016320 -0.158779
C56   C     C_3   0.530591 0.959091 0.983680 -0.158779
C57   C     C_3   0.429852 0.956166 0.980823 -0.151901
C58   C     C_3   0.570148 0.043834 0.019177 -0.151901
C59   C     C_1   0.499883 0.889449 0.110356 -0.121654
C60   C     C_1   0.500117 0.110550 0.889644 -0.121653
C61   C     C_3   0.539477 0.047561 0.072538 -0.154425
C62   C     C_3   0.460523 0.952439 0.927462 -0.154425
C63   C     C_3   0.499921 0.963462 0.036397 0.185500
C64   C     C_3   0.500079 0.036538 0.963603 0.185500
C65   C     C_1   0.499866 0.922833 0.076933 -0.061735
C66   C     C_1   0.500134 0.077167 0.923067 -0.061735
C67   C     C_R   0.499556 0.609324 0.109784 0.793365
C68   C     C_R   0.500444 0.390676 0.890216 0.793366
C69   C     C_R   0.254034 0.785565 0.265938 -0.201867
C70   C     C_R   0.745966 0.214435 0.734062 -0.201867
C71   C     C_R   0.321977 0.851444 0.316976 -0.026729
C72   C     C_R   0.678023 0.148556 0.683023 -0.026730
C73   C     C_R   0.359461 0.866454 0.390488 -0.006092
C74   C     C_R   0.640539 0.133546 0.609512 -0.006092
C75   C     C_R   0.328033 0.816072 0.411304 -0.181832
C76   C     C_R   0.671967 0.183928 0.588696 -0.181832
C77   C     C_R   0.260147 0.750336 0.360185 0.011783
C78   C     C_R   0.739853 0.249664 0.639815 0.011784
C79   C     C_R   0.222678 0.734974 0.286946 0.385201
C80   C     C_R   0.777322 0.265026 0.713054 0.385202
C81   C     C_R   0.435199 0.987943 0.502719 -0.238883
C82   C     C_R   0.564801 0.012057 0.497281 -0.238884
C83   C     C_R   0.501832 0.054039 0.555158 -0.064749
C84   C     C_R   0.498168 0.945961 0.444841 -0.064750
C85   C     C_R   0.567636 0.066090 0.553103 0.006664
C86   C     C_R   0.432363 0.933910 0.446896 0.006664
C87   C     C_R   0.499992 0.849831 0.150201 0.838863
C88   C     C_R   0.500008 0.150169 0.849799 0.838863
C89   C     C_R   0.499970 0.650214 0.349862 0.838773
C90   C     C_R   0.500030 0.349786 0.650138 0.838776
C91   C     C_3   0.481307 0.431384 0.455910 -0.157130
C92   C     C_3   0.518693 0.568616 0.544090 -0.157130
C93   C     C_3   0.431923 0.466115 0.441358 -0.152280
C94   C     C_3   0.568077 0.533885 0.558642 -0.152279
C95   C     C_1   0.499878 0.610470 0.389576 -0.122550
C96   C     C_1   0.500122 0.389530 0.610424 -0.122550
H1    H     H_    0.375966 0.438762 0.392663 0.149704
H2    H     H_    0.624034 0.561238 0.607337 0.149704
H3    H     H_    0.353261 0.524977 0.886596 0.137680
H4    H     H_    0.646741 0.475028 0.113408 0.137681
H5    H     H_    0.235733 0.523667 0.861414 0.139901
H6    H     H_    0.764269 0.476338 0.138591 0.139901
H7    H     H_    0.384200 0.405004 0.881131 0.166038
H8    H     H_    0.615801 0.594997 0.118868 0.166037
H9    H     H_    0.955186 0.051807 0.578822 0.168487
H10   H     H_    0.044814 0.948193 0.421178 0.168487
H11   H     H_    0.045021 0.129668 0.531453 0.168616
H12   H     H_    0.954979 0.870332 0.468547 0.168616
H13   H     H_    0.372192 0.919639 0.965550 0.150098
H14   H     H_    0.627808 0.080361 0.034449 0.150098
H15   H     H_    0.444269 0.075034 0.029247 0.146078
H16   H     H_    0.555731 0.924966 0.970753 0.146077
H17   H     H_    0.428075 0.913840 0.867341 0.149430
H18   H     H_    0.571925 0.086160 0.132659 0.149430
H19   H     H_    0.465949 0.374490 0.420166 0.146851
H20   H     H_    0.534050 0.625510 0.579834 0.146851
H21   H     H_    0.224911 0.773477 0.209496 0.195443
H22   H     H_    0.775088 0.226523 0.790504 0.195443
H23   H     H_    0.357357 0.828117 0.467737 0.197123
H24   H     H_    0.642643 0.171883 0.532263 0.197123
H25   H     H_    0.384601 0.979166 0.503978 0.170164
H26   H     H_    0.615399 0.020834 0.496022 0.170164
H27   H     H_    0.410167 0.495165 0.541591 0.146889
H28   H     H_    0.589833 0.504835 0.458409 0.146889
H29   H     H_    0.043895 0.441785 0.923988 0.163219
H30   H     H_    0.956105 0.558215 0.076012 0.163219
H31   H     H_    0.954763 0.506481 0.885398 0.182831
H32   H     H_    0.045237 0.493519 0.114602 0.182831
H33   H     H_    0.174421 0.492181 0.930280 0.136681
H34   H     H_    0.825580 0.507819 0.069722 0.136682
H35   H     H_    0.228674 0.459761 0.022769 0.164441
H36   H     H_    0.771325 0.540234 0.977229 0.164440
O1    O     O_3   0.500050 0.750060 0.250070 -0.491276
O2    O     O_3   0.499950 0.249940 0.749930 -0.491277
O3    O     O_R   0.456830 0.822700 0.365800 -0.631842
O4    O     O_R   0.543170 0.177300 0.634200 -0.631842
O5    O     O_R   0.543260 0.634320 0.177440 -0.642815
O6    O     O_R   0.456740 0.365680 0.822560 -0.642815
O7    O     O_R   0.664430 0.884240 0.341140 -0.631020
O8    O     O_R   0.335570 0.115760 0.658860 -0.631020
O9    O     O_R   0.335680 0.659000 0.115900 -0.628362
O10   O     O_R   0.664320 0.341000 0.884100 -0.628363
O11   O     O_R   0.664480 0.780430 0.323540 -0.640667
O12   O     O_R   0.335520 0.219570 0.676460 -0.640667
O13   O     O_R   0.335610 0.676590 0.219700 -0.629065
O14   O     O_R   0.664390 0.323410 0.780300 -0.629064
O15   O     O_R   0.543050 0.908950 0.365840 -0.642822
O16   O     O_R   0.456950 0.091050 0.634160 -0.642823
O17   O     O_R   0.457060 0.634290 0.091200 -0.631794
O18   O     O_R   0.542940 0.365710 0.908800 -0.631794
O19   O     O_R   0.543140 0.884190 0.219790 -0.629907
O20   O     O_R   0.456860 0.115810 0.780210 -0.629908
O21   O     O_R   0.543170 0.659080 0.323490 -0.636267
O22   O     O_R   0.456830 0.340920 0.676510 -0.636268
O23   O     O_R   0.456990 0.780350 0.115960 -0.634806
O24   O     O_R   0.543010 0.219650 0.884040 -0.634806
O25   O     O_R   0.456900 0.676640 0.341050 -0.630486
O26   O     O_R   0.543100 0.323360 0.658950 -0.630485
Zn1   Zn    Zn3+2 0.438420 0.731820 0.293400 1.005206
Zn2   Zn    Zn3+2 0.561580 0.268180 0.706600 1.005208
Zn3   Zn    Zn3+2 0.561600 0.855040 0.293450 0.992963
Zn4   Zn    Zn3+2 0.438400 0.144960 0.706550 0.992963
Zn5   Zn    Zn3+2 0.438510 0.706680 0.145100 1.004573
Zn6   Zn    Zn3+2 0.561490 0.293320 0.854900 1.004575
Zn7   Zn    Zn3+2 0.561670 0.706730 0.268320 0.983451
Zn8   Zn    Zn3+2 0.438330 0.293270 0.731680 0.983452
O27   O     O_3   0.053239 0.991411 0.624642 -0.747030
H37   H     H_    0.009196 0.961215 0.625633 0.328611
O28   O     O_3   0.946761 0.008589 0.375358 -0.747030
H38   H     H_    0.990804 0.038785 0.374367 0.328611
O29   O     O_3   0.155504 0.670638 0.237014 -0.803200
H39   H     H_    0.135533 0.669445 0.189015 0.358623
O30   O     O_3   0.844496 0.329362 0.762986 -0.803200
H40   H     H_    0.864467 0.330555 0.810985 0.358624
C97   C     C_2   0.352423 0.904345 0.293215 0.383755
H41   H     H_    0.401998 0.957565 0.332819 0.074884
O31   O     O_2   0.322331 0.889201 0.228806 -0.562872
C98   C     C_2   0.647577 0.095655 0.706785 0.383754
H42   H     H_    0.598001 0.042435 0.667181 0.074884
O32   O     O_2   0.677668 0.110799 0.771194 -0.562872
C99   C     C_2   0.228244 0.697530 0.383245 0.434705
H43   H     H_    0.175862 0.646656 0.343850 0.123999
O33   O     O_2   0.260043 0.710065 0.446597 -0.576909
C100  C     C_2   0.771756 0.302470 0.616755 0.434706
H44   H     H_    0.824138 0.353344 0.656150 0.123999
O34   O     O_2   0.739957 0.289935 0.553403 -0.576909
O35   O     O_3   0.946061 0.357736 0.967371 -0.758345
H45   H     H_    0.989921 0.352122 0.987013 0.334370
O36   O     O_3   0.053939 0.642264 0.032629 -0.758345
H46   H     H_    0.010079 0.647878 0.012987 0.334370
C101  C     C_2   0.355019 0.452277 0.063839 0.343459
H47   H     H_    0.403399 0.446632 0.072275 0.079430
O37   O     O_2   0.326873 0.440539 0.100535 -0.573366
C102  C     C_2   0.644980 0.547718 0.936157 0.343457
H48   H     H_    0.596602 0.553365 0.927722 0.079429
O38   O     O_2   0.673123 0.559450 0.899458 -0.573368

loop_
_geom_bond_atom_site_label_1
_geom_bond_atom_site_label_2
_ccdc_geom_bond_type
C44   C49   S    
O2    Zn2   S    
O29   H39   S    
C63   C65   S    
C89   C95   S    
C9    O35   S    
C67   O17   A    
C2    O12   A    
O28   H38   S    
C102  O38   D    
C6    C94   S    
C8    C96   T    
C72   C98   S    
O14   Zn2   S    
C49   C51   S    
O5    Zn7   S    
C98   H42   S    
C60   C88   S    
C57   C62   S    
C97   O31   D    
C99   H43   S    
C48   C54   T    
C23   O13   A    
C76   H24   S    
C74   C76   A    
C31   H5    S    
C11   H29   S    
C76   C78   A    
C80   O30   S    
C35   H7    S    
O10   Zn6   S    
O13   Zn1   S    
C78   C80   A    
C46   C83   S    
C21   C33   A    
C94   H2    S    
C10   C17   S    
O8    Zn4   S    
C6    C91   S    
C91   H19   S    
C37   C68   S    
C30   H4    S    
C100  H44   S    
C13   C23   S    
C3    C91   S    
C43   H9    S    
C55   C61   S    
C14   C24   S    
C69   C71   A    
O11   Zn7   S    
C62   C64   S    
C58   H14   S    
C68   O6    A    
C57   H13   S    
C24   O10   A    
O19   Zn3   S    
C77   C99   S    
O2    Zn8   S    
O17   Zn5   S    
C90   O22   A    
C41   C52   S    
C78   C100  S    
C81   C86   A    
C1    O7    A    
C42   C51   S    
C47   C53   T    
C56   C62   S    
C55   H15   S    
C5    C93   S    
C44   C52   S    
C58   C61   S    
C99   O33   D    
C102  H48   S    
C60   C66   T    
O25   Zn1   S    
C38   C40   A    
C87   O19   A    
O26   Zn2   S    
C41   C43   S    
C56   H16   S    
C42   C44   S    
C81   H25   S    
O1    Zn5   S    
C41   C49   S    
C81   C83   A    
C52   C54   S    
C57   C63   S    
C49   H12   S    
C77   C79   A    
C58   C64   S    
C22   C34   A    
C46   O16   A    
C45   O3    A    
C10   O36   S    
O3    Zn1   S    
C31   C33   A    
C29   H3    S    
C70   C80   A    
C101  H47   S    
C14   C20   T    
O7    Zn3   S    
C75   H23   S    
C62   H17   S    
C4    C6    S    
C25   C101  S    
O27   H37   S    
C5    C7    S    
C13   C19   T    
C1    C47   S    
C6    C8    S    
C28   C39   S    
C2    C48   S    
O30   H40   S    
C70   C72   A    
C89   O21   A    
C71   C97   S    
C4    H27   S    
O12   Zn8   S    
O1    Zn1   S    
C64   C66   S    
C90   O26   A    
C101  O37   D    
C1    O11   A    
C42   O28   S    
O1    Zn7   S    
C91   C93   S    
C9    C11   S    
C11   C16   S    
C50   C52   S    
C97   H41   S    
C12   C15   S    
C27   C40   S    
C55   C64   S    
C61   C63   S    
C56   C63   S    
C16   C18   S    
C89   O25   A    
C92   H20   S    
O24   Zn6   S    
C10   C12   S    
C42   C50   S    
C72   C74   A    
C83   C85   A    
O9    Zn5   S    
C82   C84   A    
C15   H32   S    
C55   C57   S    
O15   Zn3   S    
C50   H11   S    
C32   H6    S    
C69   C79   A    
C45   C84   S    
C79   O29   S    
C73   C75   A    
C26   C102  S    
O21   Zn7   S    
C93   H1    S    
C7    C95   T    
C3    H28   S    
C35   C37   A    
C71   C73   A    
C33   H33   S    
C15   C17   S    
C21   C25   A    
C11   C17   S    
C22   H36   S    
C45   O15   A    
C36   C39   A    
C23   O9    A    
C84   C86   A    
C3    C5    S    
O1    Zn3   S    
C88   O20   A    
C98   O32   D    
C43   C50   S    
C90   C96   S    
C87   O23   A    
C44   H10   S    
C25   C27   A    
C82   C85   A    
O18   Zn6   S    
C26   C28   A    
C100  O34   D    
C36   H8    S    
O6    Zn8   S    
O23   Zn5   S    
C36   C38   A    
C35   C40   A    
C9    C15   S    
O16   Zn4   S    
O35   H45   S    
C37   C39   A    
C24   O14   A    
C59   C65   T    
C30   C32   A    
C69   H21   S    
C43   C51   S    
C92   C94   S    
C27   C29   A    
C70   H22   S    
C21   H35   S    
C41   O27   S    
C28   C30   A    
C17   C19   S    
C56   C58   S    
C3    C94   S    
C18   C20   S    
C74   C85   S    
O36   H46   S    
C67   O5    A    
C16   H31   S    
C59   C87   S    
C73   C86   S    
C5    C92   S    
C68   O18   A    
O2    Zn6   S    
C46   O4    A    
C4    C93   S    
O4    Zn2   S    
O2    Zn4   S    
C9    C18   S    
C12   H30   S    
C38   C67   S    
C34   H34   S    
C29   C31   A    
C22   C26   A    
C75   C77   A    
C12   C18   S    
C61   H18   S    
O22   Zn8   S    
C10   C16   S    
C2    O8    A    
C88   O24   A    
C51   C53   S    
C82   H26   S    
O20   Zn4   S    
C32   C34   A    
C4    C92   S    
