data_mof_unit_35060.cif
_audit_creation_date              2012-12-11T15:08:55-0500
_audit_creation_method            fapswitch 2.2
_symmetry_space_group_name_H-M    P1
_symmetry_Int_Tables_number       1
_space_group_crystal_system       triclinic
_cell_length_a                    19.435526
_cell_length_b                    11.298668
_cell_length_c                    18.71856
_cell_angle_alpha                 90.122009
_cell_angle_beta                  90.254738
_cell_angle_gamma                 89.834226
_cell_volume                      4110.445546

loop_
_atom_site_label
_atom_site_type_symbol
_atom_type_description
_atom_site_fract_x
_atom_site_fract_y
_atom_site_fract_z
_atom_type_partial_charge
C1    C     C_R   0.272677 0.043362 0.854669 0.530690
C2    C     C_R   0.728441 0.044983 0.146618 0.545397
C3    C     C_R   0.772676 0.543365 0.854669 0.530692
C4    C     C_R   0.228441 0.544982 0.146618 0.545393
C5    C     C_3   0.522402 0.728189 0.961526 -0.140035
C6    C     C_3   0.483586 0.715789 0.032536 -0.136637
C7    C     C_3   0.022395 0.228182 0.961529 -0.140034
C8    C     C_3   0.983581 0.215797 0.032540 -0.136646
C9    C     C_3   0.315837 0.532312 0.045158 -0.286037
C10   C     C_3   0.692508 0.513120 0.959038 -0.279547
C11   C     C_3   0.815838 0.032315 0.045158 -0.286038
C12   C     C_3   0.192506 0.013125 0.959036 -0.279546
C13   C     C_3   0.322803 0.550218 0.963414 -0.254682
C14   C     C_3   0.685283 0.524818 0.041025 -0.261021
C15   C     C_3   0.822804 0.050218 0.963414 -0.254680
C16   C     C_3   0.185277 0.024824 0.041023 -0.261014
C17   C     C_3   0.185320 0.519577 0.024948 0.182300
C18   C     C_3   0.825634 0.541311 0.975574 0.194858
C19   C     C_3   0.685323 0.019571 0.024948 0.182295
C20   C     C_3   0.325635 0.041305 0.975575 0.194859
C21   C     C_3   0.245548 0.709235 0.057736 -0.248227
C22   C     C_3   0.743921 0.705575 0.944005 -0.244769
C23   C     C_3   0.745542 0.209234 0.057733 -0.248230
C24   C     C_3   0.243932 0.205573 0.944006 -0.244759
C25   C     C_3   0.243868 0.577001 0.071253 0.067112
C26   C     C_3   0.758924 0.575577 0.930890 0.067340
C27   C     C_3   0.743867 0.077000 0.071252 0.067108
C28   C     C_3   0.258925 0.075573 0.930891 0.067343
C29   C     C_3   0.257238 0.611605 0.932592 0.027798
C30   C     C_3   0.743694 0.604983 0.069666 0.036067
C31   C     C_3   0.757238 0.111601 0.932591 0.027797
C32   C     C_3   0.243693 0.104979 0.069666 0.036073
C33   C     C_3   0.196004 0.529988 0.943692 -0.221338
C34   C     C_3   0.812448 0.543549 0.056486 -0.211671
C35   C     C_3   0.696004 0.029987 0.943692 -0.221338
C36   C     C_3   0.312442 0.043530 0.056488 -0.211674
C37   C     C_3   0.242893 0.726629 0.975868 -0.222826
C38   C     C_3   0.737817 0.721215 0.026437 -0.226399
C39   C     C_3   0.742896 0.226625 0.975865 -0.222826
C40   C     C_3   0.237824 0.221212 0.026438 -0.226395
C41   C     C_3   0.503886 0.701470 0.460221 -0.227276
C42   C     C_3   0.496252 0.701308 0.539509 -0.228162
C43   C     C_3   0.003884 0.201470 0.460221 -0.227274
C44   C     C_3   0.996251 0.201308 0.539508 -0.228162
C45   C     C_R   0.442255 0.816782 0.862030 0.545945
C46   C     C_R   0.554126 0.817072 0.137344 0.566331
C47   C     C_R   0.942253 0.316782 0.862030 0.545953
C48   C     C_R   0.054127 0.317072 0.137343 0.566320
C49   C     C_3   0.564446 0.905113 0.473935 -0.216293
C50   C     C_3   0.435391 0.904936 0.526392 -0.215916
C51   C     C_3   0.064445 0.405113 0.473933 -0.216289
C52   C     C_3   0.935390 0.404936 0.526392 -0.215915
C53   C     C_3   0.440982 0.887539 0.444426 -0.263507
C54   C     C_3   0.558940 0.887225 0.555820 -0.263282
C55   C     C_3   0.940981 0.387539 0.444425 -0.263509
C56   C     C_3   0.058939 0.387225 0.555819 -0.263283
C57   C     C_3   0.510677 0.829476 0.430959 0.063801
C58   C     C_3   0.489364 0.829167 0.569124 0.062858
C59   C     C_3   0.010675 0.329476 0.430958 0.063803
C60   C     C_3   0.989363 0.329167 0.569123 0.062858
C61   C     C_3   0.179644 0.646846 0.459306 -0.228322
C62   C     C_3   0.820099 0.646614 0.540834 -0.227715
C63   C     C_3   0.679644 0.146845 0.459306 -0.228322
C64   C     C_3   0.320099 0.146613 0.540834 -0.227715
C65   C     C_3   0.184600 0.659863 0.538509 -0.227525
C66   C     C_3   0.815293 0.659516 0.461635 -0.227750
C67   C     C_3   0.684600 0.159863 0.538510 -0.227525
C68   C     C_3   0.315293 0.159513 0.461634 -0.227752
C69   C     C_3   0.252523 0.454830 0.472812 -0.214322
C70   C     C_3   0.747560 0.454756 0.526719 -0.214735
C71   C     C_3   0.752522 0.954829 0.472812 -0.214323
C72   C     C_3   0.247560 0.954756 0.526719 -0.214736
C73   C     C_3   0.304572 0.647700 0.442683 -0.264421
C74   C     C_3   0.695316 0.647787 0.557505 -0.264035
C75   C     C_3   0.804572 0.147699 0.442683 -0.264421
C76   C     C_3   0.195316 0.147787 0.557505 -0.264035
C77   C     C_3   0.240596 0.572562 0.429978 0.067476
C78   C     C_3   0.759360 0.572309 0.569974 0.066561
C79   C     C_3   0.740595 0.072561 0.429979 0.067477
C80   C     C_3   0.259360 0.072308 0.569974 0.066561
C81   C     C_3   0.252840 0.605962 0.567572 0.064605
C82   C     C_3   0.747186 0.606138 0.432401 0.065019
C83   C     C_3   0.752840 0.105962 0.567572 0.064606
C84   C     C_3   0.247185 0.106138 0.432402 0.065018
C85   C     C_3   0.247334 0.473001 0.554553 -0.264932
C86   C     C_3   0.752786 0.473089 0.445026 -0.264333
C87   C     C_3   0.747334 0.973001 0.554553 -0.264932
C88   C     C_3   0.252782 0.973090 0.445026 -0.264332
C89   C     C_R   0.263126 0.644114 0.855653 0.538249
C90   C     C_R   0.738139 0.638705 0.146327 0.534044
C91   C     C_R   0.763125 0.144109 0.855652 0.538247
C92   C     C_R   0.238139 0.138704 0.146327 0.534040
C93   C     C_3   0.317293 0.648182 0.524389 -0.216883
C94   C     C_3   0.682716 0.648701 0.475763 -0.216764
C95   C     C_3   0.817293 0.148182 0.524389 -0.216884
C96   C     C_3   0.182717 0.148704 0.475764 -0.216765
C97   C     C_R   0.273128 0.043080 0.645714 0.534810
C98   C     C_R   0.726916 0.043395 0.354230 0.534109
C99   C     C_R   0.773128 0.543081 0.645714 0.534808
C100  C     C_R   0.226916 0.543396 0.354230 0.534108
C101  C     C_R   0.468618 0.823005 0.645357 0.540590
C102  C     C_R   0.531398 0.823246 0.354676 0.539533
C103  C     C_R   0.968618 0.323005 0.645357 0.540591
C104  C     C_R   0.031396 0.323246 0.354676 0.539529
C105  C     C_R   0.260970 0.640101 0.643564 0.541028
C106  C     C_R   0.739021 0.640426 0.356457 0.538652
C107  C     C_R   0.760971 0.140101 0.643564 0.541028
C108  C     C_R   0.239021 0.140427 0.356457 0.538653
C109  C     C_3   0.471122 0.907783 0.038118 -0.059715
C110  C     C_3   0.510238 0.920210 0.966603 -0.034472
C111  C     C_3   0.971128 0.407793 0.038115 -0.059687
C112  C     C_3   0.010242 0.420204 0.966599 -0.034459
C113  C     C_3   0.429166 0.804663 0.006127 -0.165551
C114  C     C_3   0.564629 0.830326 0.992393 -0.112979
C115  C     C_3   0.929165 0.304677 0.006130 -0.165546
C116  C     C_3   0.064629 0.330315 0.992391 -0.112999
C117  C     C_3   0.468725 0.818394 0.935886 0.048428
C118  C     C_3   0.525456 0.819333 0.063531 0.077295
C119  C     C_3   0.968723 0.318392 0.935887 0.048429
C120  C     C_3   0.025457 0.319336 0.063531 0.077285
Cr1   Cr    Cr6+3 0.229620 0.836040 0.749110 0.988842
Cr2   Cr    Cr6+3 0.770380 0.836040 0.250890 0.987915
Cr3   Cr    Cr6+3 0.729620 0.336040 0.749110 0.988843
Cr4   Cr    Cr6+3 0.270380 0.336040 0.250890 0.987912
Cr5   Cr    Cr6+3 0.387630 0.990680 0.750730 1.022343
Cr6   Cr    Cr6+3 0.612370 0.990680 0.249270 1.014143
Cr7   Cr    Cr6+3 0.887630 0.490680 0.750730 1.022342
Cr8   Cr    Cr6+3 0.112370 0.490680 0.249270 1.014158
Cr9   Cr    Cr6+3 0.386020 0.676590 0.749210 0.993312
Cr10  Cr    Cr6+3 0.613980 0.676590 0.250790 0.989970
Cr11  Cr    Cr6+3 0.886020 0.176590 0.749210 0.993309
Cr12  Cr    Cr6+3 0.113980 0.176590 0.250790 0.989973
H1    H     H_    0.374633 0.789147 0.013108 0.089433
H2    H     H_    0.616989 0.840104 0.973587 0.103603
H3    H     H_    0.874632 0.289166 0.013119 0.089432
H4    H     H_    0.116990 0.340086 0.973585 0.103587
H5    H     H_    0.203932 0.755264 0.085448 0.114436
H6    H     H_    0.782539 0.763625 0.919125 0.131903
H7    H     H_    0.703913 0.255251 0.085432 0.114441
H8    H     H_    0.282559 0.263613 0.919131 0.131944
H9    H     H_    0.292059 0.748573 0.082180 0.097176
H10   H     H_    0.695124 0.730949 0.916998 0.091607
H11   H     H_    0.792047 0.248584 0.082184 0.097175
H12   H     H_    0.195138 0.230959 0.916995 0.091601
H13   H     H_    0.277208 0.796682 0.958316 0.089644
H14   H     H_    0.686028 0.752037 0.039954 0.099907
H15   H     H_    0.777216 0.296673 0.958315 0.089645
H16   H     H_    0.186037 0.252045 0.039953 0.099896
H17   H     H_    0.189793 0.751525 0.962900 0.129744
H18   H     H_    0.776091 0.784009 0.045538 0.125672
H19   H     H_    0.689799 0.251527 0.962892 0.129740
H20   H     H_    0.276101 0.283997 0.045543 0.125677
H21   H     H_    0.149294 0.562265 0.915624 0.136701
H22   H     H_    0.853851 0.584514 0.088061 0.133218
H23   H     H_    0.649291 0.062269 0.915629 0.136708
H24   H     H_    0.353844 0.084474 0.088074 0.133199
H25   H     H_    0.547069 0.644638 0.446199 0.136363
H26   H     H_    0.452972 0.644977 0.553276 0.136038
H27   H     H_    0.047066 0.144636 0.446198 0.136365
H28   H     H_    0.952972 0.144976 0.553276 0.136039
H29   H     H_    0.459033 0.656814 0.435266 0.114790
H30   H     H_    0.541095 0.656219 0.564335 0.115061
H31   H     H_    0.959031 0.156814 0.435267 0.114788
H32   H     H_    0.041095 0.156220 0.564333 0.115060
H33   H     H_    0.616417 0.896447 0.454071 0.112575
H34   H     H_    0.383449 0.895946 0.546163 0.112694
H35   H     H_    0.116415 0.396446 0.454069 0.112576
H36   H     H_    0.883449 0.395947 0.546164 0.112695
H37   H     H_    0.601018 0.830683 0.576167 0.109533
H38   H     H_    0.399051 0.831132 0.423802 0.109067
H39   H     H_    0.101018 0.330684 0.576166 0.109534
H40   H     H_    0.899049 0.331132 0.423802 0.109065
H41   H     H_    0.451953 0.980642 0.072106 0.122604
H42   H     H_    0.520752 0.003533 0.937474 0.154811
H43   H     H_    0.951964 0.480665 0.072096 0.122629
H44   H     H_    0.020759 0.503518 0.937464 0.154812
H45   H     H_    0.437798 0.973726 0.416262 0.109066
H46   H     H_    0.562023 0.973329 0.584321 0.110031
H47   H     H_    0.937796 0.473726 0.416262 0.109065
H48   H     H_    0.062023 0.473329 0.584320 0.110030
H49   H     H_    0.449435 0.997988 0.536817 0.118310
H50   H     H_    0.550220 0.998335 0.463936 0.117450
H51   H     H_    0.949435 0.497988 0.536817 0.118310
H52   H     H_    0.050219 0.498335 0.463934 0.117450
H53   H     H_    0.129576 0.609762 0.445895 0.135391
H54   H     H_    0.870296 0.610002 0.554333 0.135261
H55   H     H_    0.629576 0.109762 0.445895 0.135390
H56   H     H_    0.370296 0.110002 0.554334 0.135261
H57   H     H_    0.178838 0.735653 0.434006 0.114079
H58   H     H_    0.820534 0.735439 0.566290 0.114708
H59   H     H_    0.678837 0.235652 0.434006 0.114078
H60   H     H_    0.320534 0.235439 0.566289 0.114708
H61   H     H_    0.178453 0.753167 0.551851 0.135444
H62   H     H_    0.821420 0.752677 0.448467 0.135003
H63   H     H_    0.678453 0.253168 0.551851 0.135444
H64   H     H_    0.321423 0.252673 0.448466 0.135005
H65   H     H_    0.139822 0.616491 0.563982 0.115638
H66   H     H_    0.860116 0.615841 0.436139 0.115177
H67   H     H_    0.639822 0.116491 0.563982 0.115638
H68   H     H_    0.360115 0.115833 0.436139 0.115177
H69   H     H_    0.721910 0.881393 0.453433 0.113632
H70   H     H_    0.278134 0.881015 0.545849 0.112986
H71   H     H_    0.221910 0.381395 0.453432 0.113633
H72   H     H_    0.778133 0.381013 0.545851 0.112987
H73   H     H_    0.698171 0.938870 0.575316 0.109298
H74   H     H_    0.301957 0.938693 0.424133 0.108806
H75   H     H_    0.198170 0.438870 0.575315 0.109298
H76   H     H_    0.801962 0.438695 0.424136 0.108808
H77   H     H_    0.349235 0.609053 0.414056 0.109678
H78   H     H_    0.650715 0.609221 0.585943 0.110282
H79   H     H_    0.849234 0.109052 0.414056 0.109678
H80   H     H_    0.150715 0.109220 0.585943 0.110283
H81   H     H_    0.296597 0.738349 0.422179 0.108091
H82   H     H_    0.703153 0.738291 0.578432 0.108308
H83   H     H_    0.796596 0.238348 0.422179 0.108091
H84   H     H_    0.203153 0.238289 0.578435 0.108307
H85   H     H_    0.543112 0.653152 0.929976 0.126229
H86   H     H_    0.473537 0.630058 0.059231 0.121997
H87   H     H_    0.043099 0.153136 0.929984 0.126231
H88   H     H_    0.973529 0.130071 0.059240 0.122003
H89   H     H_    0.338575 0.730758 0.543674 0.112580
H90   H     H_    0.661472 0.731515 0.456832 0.112904
H91   H     H_    0.838575 0.230758 0.543673 0.112580
H92   H     H_    0.161475 0.231520 0.456834 0.112902
H93   H     H_    0.357525 0.580944 0.534397 0.118128
H94   H     H_    0.642608 0.581760 0.465489 0.118378
H95   H     H_    0.857525 0.080944 0.534397 0.118128
H96   H     H_    0.142606 0.081768 0.465489 0.118379
H97   H     H_    0.306402 0.428993 0.462141 0.119231
H98   H     H_    0.693708 0.429169 0.537215 0.118843
H99   H     H_    0.806402 0.928993 0.462142 0.119230
H100  H     H_    0.193708 0.929168 0.537216 0.118844
H101  H     H_    0.289596 0.425605 0.582629 0.109419
H102  H     H_    0.710601 0.425931 0.416783 0.108889
H103  H     H_    0.789596 0.925605 0.582629 0.109419
H104  H     H_    0.210596 0.925936 0.416785 0.108891
H105  H     H_    0.326740 0.440080 0.059295 0.118508
H106  H     H_    0.689357 0.422985 0.941372 0.132048
H107  H     H_    0.826744 0.940084 0.059297 0.118514
H108  H     H_    0.189350 0.922988 0.941371 0.132046
H109  H     H_    0.357120 0.582051 0.073227 0.121651
H110  H     H_    0.646274 0.552644 0.933304 0.115943
H111  H     H_    0.857119 0.082061 0.073227 0.121650
H112  H     H_    0.146275 0.052656 0.933300 0.115946
H113  H     H_    0.369151 0.603850 0.952137 0.150285
H114  H     H_    0.633928 0.563572 0.053332 0.145261
H115  H     H_    0.869150 0.103853 0.952137 0.150287
H116  H     H_    0.133924 0.063589 0.053328 0.145261
H117  H     H_    0.330676 0.463337 0.936780 0.112830
H118  H     H_    0.687058 0.437832 0.067059 0.108621
H119  H     H_    0.830678 0.963337 0.936781 0.112821
H120  H     H_    0.187043 0.937836 0.067057 0.108620
H121  H     H_    0.694599 0.928134 0.036071 0.110455
H122  H     H_    0.334327 0.948727 0.962220 0.109245
H123  H     H_    0.194591 0.428138 0.036072 0.110454
H124  H     H_    0.834321 0.448730 0.962223 0.109251
H125  H     H_    0.707461 0.942508 0.919382 0.066954
H126  H     H_    0.309923 0.951722 0.077344 0.062484
H127  H     H_    0.207464 0.442508 0.919385 0.066955
H128  H     H_    0.809939 0.451746 0.077352 0.062486
O1    O     O_R   0.214130 0.708570 0.829890 -0.530302
O2    O     O_R   0.785870 0.708570 0.170110 -0.533176
O3    O     O_R   0.714130 0.208570 0.829890 -0.530302
O4    O     O_R   0.285870 0.208570 0.170110 -0.533176
O5    O     O_R   0.446360 0.919990 0.675230 -0.510173
O6    O     O_R   0.553640 0.919990 0.324770 -0.512218
O7    O     O_R   0.946360 0.419990 0.675230 -0.510173
O8    O     O_R   0.053640 0.419990 0.324770 -0.512217
O9    O     O_R   0.457170 0.717300 0.668380 -0.531192
O10   O     O_R   0.542830 0.717300 0.331620 -0.531799
O11   O     O_R   0.957170 0.217300 0.668380 -0.531192
O12   O     O_R   0.042830 0.217300 0.331620 -0.531797
O13   O     O_R   0.320870 0.624890 0.673130 -0.510316
O14   O     O_R   0.679130 0.624890 0.326870 -0.511770
O15   O     O_R   0.820870 0.124890 0.673130 -0.510317
O16   O     O_R   0.179130 0.124890 0.326870 -0.511768
O17   O     O_3   0.334430 0.834430 0.749680 -0.291299
O18   O     O_3   0.665570 0.834430 0.250320 -0.282560
O19   O     O_3   0.834430 0.334430 0.749680 -0.291298
O20   O     O_3   0.165570 0.334430 0.250320 -0.282564
O21   O     O_R   0.236050 0.959150 0.825270 -0.528327
O22   O     O_R   0.763950 0.959150 0.174730 -0.525131
O23   O     O_R   0.736050 0.459150 0.825270 -0.528326
O24   O     O_R   0.263950 0.459150 0.174730 -0.525136
O25   O     O_R   0.332100 0.076650 0.832310 -0.463954
O26   O     O_R   0.667900 0.076650 0.167690 -0.479049
O27   O     O_R   0.832100 0.576650 0.832310 -0.463952
O28   O     O_R   0.167900 0.576650 0.167690 -0.479020
O29   O     O_R   0.446500 0.918620 0.826240 -0.484462
O30   O     O_R   0.553500 0.918620 0.173760 -0.474739
O31   O     O_R   0.946500 0.418620 0.826240 -0.484460
O32   O     O_R   0.053500 0.418620 0.173760 -0.474739
O33   O     O_R   0.457310 0.715830 0.831280 -0.530226
O34   O     O_R   0.542690 0.715830 0.168720 -0.538028
O35   O     O_R   0.957310 0.215830 0.831280 -0.530230
O36   O     O_R   0.042690 0.215830 0.168720 -0.538026
O37   O     O_R   0.321000 0.623520 0.824130 -0.517637
O38   O     O_R   0.679000 0.623520 0.175870 -0.518244
O39   O     O_R   0.821000 0.123520 0.824130 -0.517639
O40   O     O_R   0.179000 0.123520 0.175870 -0.518242
O41   O     O_R   0.213990 0.710040 0.667000 -0.532014
O42   O     O_R   0.786010 0.710040 0.333000 -0.533707
O43   O     O_R   0.713990 0.210040 0.667000 -0.532014
O44   O     O_R   0.286010 0.210040 0.333000 -0.533708
O45   O     O_R   0.235920 0.960520 0.674260 -0.511858
O46   O     O_R   0.764080 0.960520 0.325740 -0.512980
O47   O     O_R   0.735920 0.460520 0.674260 -0.511858
O48   O     O_R   0.264080 0.460520 0.325740 -0.512981
O49   O     O_R   0.331960 0.078120 0.669410 -0.537437
O50   O     O_R   0.668040 0.078120 0.330590 -0.539984
O51   O     O_R   0.831960 0.578120 0.669410 -0.537438
O52   O     O_R   0.168040 0.578120 0.330590 -0.539984
O53   O     O_3   0.616416 0.037028 0.048685 -0.558464
C121  C     C_3   0.586318 0.148875 0.036375 -0.096818
H129  H     H_    0.589211 0.179760 0.980614 0.078827
H130  H     H_    0.601776 0.215485 0.076140 0.126541
H131  H     H_    0.531301 0.138673 0.047171 0.123869
O54   O     O_3   0.388205 0.095855 0.952035 -0.548429
C122  C     C_3   0.408392 0.203638 0.984644 -0.109674
H132  H     H_    0.424897 0.193234 0.040634 0.081809
H133  H     H_    0.370422 0.274738 0.981033 0.105113
H134  H     H_    0.454045 0.236595 0.955517 0.120329
O55   O     O_3   0.116415 0.537047 0.048684 -0.558450
C123  C     C_3   0.086315 0.648886 0.036354 -0.096827
H135  H     H_    0.089166 0.679699 0.980582 0.078836
H136  H     H_    0.101813 0.715539 0.076058 0.126477
H137  H     H_    0.031313 0.638724 0.047210 0.123904
O56   O     O_3   0.888208 0.595843 0.952032 -0.548435
C124  C     C_3   0.908381 0.703660 0.984610 -0.109730
H138  H     H_    0.924862 0.693325 0.040596 0.081826
H139  H     H_    0.870421 0.774725 0.980971 0.105139
H140  H     H_    0.954025 0.736609 0.955494 0.120333

loop_
_geom_bond_atom_site_label_1
_geom_bond_atom_site_label_2
_ccdc_geom_bond_type
C82   C94   S    
C55   C59   S    
C35   H125  S    
C83   C87   S    
C73   C93   S    
C47   O31   A    
C42   C58   S    
C29   C89   S    
C16   H120  S    
C89   O37   A    
C48   C120  S    
C24   H8    S    
C57   C102  S    
Cr6   O18   S    
Cr7   O7    S    
C85   H101  S    
C59   C104  S    
C63   H55   S    
Cr1   O17   S    
C5    C6    S    
Cr10  O10   S    
C109  H41   S    
Cr4   O4    S    
Cr12  O16   S    
C29   C33   S    
C87   H103  S    
C30   C38   S    
C77   C100  S    
C9    C13   S    
C87   H73   S    
C11   C15   S    
C5    H85   S    
C12   C16   S    
C123  H135  S    
C98   O50   A    
C99   O47   A    
C103  O7    A    
C60   C103  S    
C107  O15   A    
Cr4   O24   S    
C83   C107  S    
C113  H1    S    
C74   H82   S    
C61   H57   S    
C54   H37   S    
C23   H11   S    
C66   H62   S    
C109  C118  S    
C16   H116  S    
C70   H72   S    
Cr5   O25   S    
C50   C53   S    
C75   C95   S    
O55   C123  S    
C7    C119  S    
Cr8   O28   S    
C62   H58   S    
C62   C66   S    
Cr2   O2    S    
C92   O40   A    
C18   H124  S    
C121  H129  S    
Cr12  O36   S    
C43   C44   S    
C66   C82   S    
Cr9   O33   S    
C58   C101  S    
C105  O41   A    
C92   O4    A    
C107  O43   A    
C53   H38   S    
C116  H4    S    
C108  O44   A    
C56   H39   S    
C89   O1    A    
Cr5   O49   S    
C55   H40   S    
C91   O3    A    
Cr1   O45   S    
Cr5   O5    S    
Cr2   O42   S    
C3    C26   S    
C84   C88   S    
C31   C91   S    
C53   H45   S    
Cr12  O12   S    
C13   H117  S    
Cr10  O34   S    
C17   C25   S    
C19   C35   S    
C76   C96   S    
C1    O21   A    
C32   C92   S    
C123  H137  S    
C75   H83   S    
Cr3   O19   S    
C95   H95   S    
C21   H9    S    
C61   C65   S    
C12   H108  S    
C78   C99   S    
C45   O29   A    
C75   C79   S    
Cr5   O29   S    
C22   C38   S    
C122  H133  S    
C67   C83   S    
C80   C97   S    
C11   H111  S    
C69   C77   S    
C111  C112  S    
C9    H109  S    
C71   C79   S    
C4    C25   S    
Cr4   O20   S    
C7    C8    S    
Cr10  O38   S    
C8    H88   S    
C96   H96   S    
C73   H77   S    
C35   H23   S    
C43   H27   S    
C100  O52   A    
C33   H21   S    
C39   H19   S    
C49   C57   S    
C40   H20   S    
Cr11  O11   S    
Cr9   O37   S    
C38   H14   S    
C52   C60   S    
C19   H121  S    
C61   C77   S    
C12   H112  S    
C11   C27   S    
C93   H93   S    
C36   H126  S    
C47   O35   A    
C110  C114  S    
C48   O36   A    
C43   C59   S    
C62   H54   S    
C76   H80   S    
C10   H106  S    
C6    H86   S    
C124  H139  S    
C22   H10   S    
Cr1   O21   S    
Cr2   O18   S    
C110  H42   S    
C20   O54   S    
Cr12  O20   S    
C81   C105  S    
C30   C34   S    
C10   C14   S    
C101  O9    A    
C95   H91   S    
C116  C120  S    
C103  O11   A    
C7    C116  S    
C69   H97   S    
C33   H127  S    
C61   H53   S    
C114  H2    S    
C34   H128  S    
C66   H66   S    
C64   H56   S    
C113  C117  S    
C112  H44   S    
C115  C119  S    
Cr6   O26   S    
C9    H105  S    
Cr4   O48   S    
C112  C116  S    
C69   C85   S    
C85   H75   S    
C72   H70   S    
C56   H48   S    
C45   C117  S    
C21   C25   S    
C71   H99   S    
Cr12  O40   S    
C55   H47   S    
C62   C78   S    
C76   C80   S    
O56   C124  S    
C32   C36   S    
C15   C31   S    
C16   C32   S    
C97   O45   A    
C105  O13   A    
C106  O42   A    
C72   C80   S    
C115  H3    S    
C4    O24   A    
C82   C106  S    
C90   O2    A    
Cr6   O50   S    
Cr8   O32   S    
C123  H136  S    
C94   H90   S    
Cr6   O6    S    
C46   O34   A    
Cr7   O19   S    
Cr8   O20   S    
C81   C85   S    
C13   H113  S    
C41   H29   S    
C41   C42   S    
C74   C94   S    
Cr9   O13   S    
C18   C26   S    
C30   C90   S    
Cr11  O39   S    
C1    O25   A    
C9    C25   S    
C2    O22   A    
C3    O27   A    
C75   H79   S    
C86   H102  S    
C12   C28   S    
C13   C29   S    
C67   H67   S    
C98   O46   A    
C121  H130  S    
C46   C118  S    
C73   C77   S    
C22   C26   S    
C64   H60   S    
Cr6   O30   S    
C51   H35   S    
C106  O14   A    
C50   H34   S    
C1    C28   S    
C2    C27   S    
Cr10  O14   S    
C72   H100  S    
Cr11  O19   S    
C52   C55   S    
C121  H131  S    
C64   C80   S    
C73   H81   S    
C42   H26   S    
C17   C33   S    
C110  C117  S    
C38   H18   S    
C65   H61   S    
C34   H22   S    
C40   H16   S    
C68   C84   S    
C24   C28   S    
C51   H52   S    
C86   H76   S    
C53   C57   S    
C82   C86   S    
C56   C60   S    
C50   C58   S    
C104  O12   A    
C49   H33   S    
C48   O32   A    
Cr7   O27   S    
C76   H84   S    
C65   C81   S    
C91   O39   A    
C42   H30   S    
Cr8   O8    S    
C68   H64   S    
C24   H12   S    
C20   H122  S    
Cr2   O22   S    
C41   H25   S    
C15   H115  S    
C44   H28   S    
C31   C35   S    
C64   C68   S    
C36   H24   S    
C101  O5    A    
C102  O10   A    
C37   H17   S    
C108  O16   A    
C112  C119  S    
C14   H118  S    
C20   C28   S    
C22   H6    S    
C41   C57   S    
C109  C110  S    
O53   C121  S    
Cr5   O17   S    
C44   C60   S    
C63   H59   S    
C84   C108  S    
C94   H94   S    
C122  H132  S    
C20   C36   S    
C54   H46   S    
C21   C37   S    
C74   C78   S    
C29   C37   S    
C44   H32   S    
C43   H31   S    
C97   O49   A    
C5    C114  S    
C70   C78   S    
C124  H138  S    
C79   C98   S    
C99   O51   A    
C10   H110  S    
C52   H51   S    
C63   C79   S    
C4    O28   A    
C74   H78   S    
C111  H43   S    
C23   H7    S    
C84   C96   S    
C11   H107  S    
C49   C54   S    
Cr3   O47   S    
C51   C56   S    
C46   O30   A    
C8    C115  S    
Cr1   O1    S    
Cr3   O3    S    
C96   H92   S    
Cr9   O17   S    
C23   C27   S    
C19   C27   S    
C109  C113  S    
C2    O26   A    
C7    H87   S    
C10   C26   S    
C47   C119  S    
C122  H134  S    
C14   C30   S    
C67   H63   S    
C72   C88   S    
C88   H104  S    
C63   C67   S    
C17   O55   S    
Cr7   O31   S    
Cr1   O41   S    
C21   H5    S    
C5    C117  S    
C111  C120  S    
Cr10  O18   S    
Cr3   O43   S    
C70   H98   S    
C6    C113  S    
Cr11  O15   S    
O54   C122  S    
Cr4   O44   S    
C81   C93   S    
C83   C95   S    
Cr11  O35   S    
C19   O53   S    
C18   C34   S    
C114  C118  S    
C65   H65   S    
C69   H71   S    
C124  H140  S    
C71   C87   S    
C50   H49   S    
C51   C59   S    
C70   C86   S    
C8    C120  S    
Cr2   O46   S    
C54   C58   S    
C71   H69   S    
C17   H123  S    
C45   O33   A    
C104  O8    A    
C88   H74   S    
C111  C115  S    
Cr7   O51   S    
Cr8   O52   S    
C68   H68   S    
Cr3   O23   S    
C52   H36   S    
C90   O38   A    
C15   H119  S    
C23   C39   S    
C3    O23   A    
C24   C40   S    
C31   C39   S    
C32   C40   S    
C18   O56   S    
Cr9   O9    S    
C49   H50   S    
C100  O48   A    
C102  O6    A    
C39   H15   S    
C93   H89   S    
C37   H13   S    
C6    C118  S    
C14   H114  S    
