data_mof_unit_59533.cif
_audit_creation_date              2012-12-10T16:49:27-0500
_audit_creation_method            fapswitch 2.2
_symmetry_space_group_name_H-M    P1
_symmetry_Int_Tables_number       1
_space_group_crystal_system       triclinic
_cell_length_a                    19.29957
_cell_length_b                    8.689456
_cell_length_c                    7.443293
_cell_angle_alpha                 102.964433
_cell_angle_beta                  94.26186
_cell_angle_gamma                 92.318423
_cell_volume                      1210.98075368

loop_
_atom_site_label
_atom_site_type_symbol
_atom_type_description
_atom_site_fract_x
_atom_site_fract_y
_atom_site_fract_z
_atom_type_partial_charge
C1    C     C_R   0.497918 0.199697 0.453252 0.887455
C2    C     C_R   0.502082 0.800303 0.546748 0.887454
C3    C     C_2   0.496912 0.031835 0.426920 -0.369468
C4    C     C_2   0.503088 0.968165 0.573080 -0.369468
C5    C     C_R   0.367517 0.499078 0.502184 0.800475
C6    C     C_R   0.632483 0.500921 0.497816 0.800474
C7    C     C_R   0.261574 0.562017 0.669549 -0.176130
C8    C     C_R   0.738426 0.437983 0.330451 -0.176129
C9    C     C_R   0.189119 0.564230 0.672440 0.166725
C10   C     C_R   0.810880 0.435770 0.327560 0.166724
C11   C     C_R   0.146194 0.496803 0.508533 0.013026
C12   C     C_R   0.853806 0.503197 0.491467 0.013026
C13   C     C_R   0.176787 0.428545 0.344940 -0.040566
C14   C     C_R   0.823213 0.571454 0.655060 -0.040566
C15   C     C_R   0.248958 0.430531 0.344475 -0.224385
C16   C     C_R   0.751042 0.569469 0.655525 -0.224385
C17   C     C_R   0.291624 0.497012 0.505987 -0.084802
C18   C     C_R   0.708376 0.502988 0.494013 -0.084802
C19   C     C_R   0.929888 0.500023 0.494164 0.405498
C20   C     C_R   0.070112 0.499976 0.505836 0.405498
Cu1   Cu    Cu3+1 0.507710 0.517380 0.684380 0.949825
Cu2   Cu    Cu3+1 0.492290 0.482620 0.315620 0.949826
H1    H     H_    0.294726 0.614325 0.794108 0.154906
H2    H     H_    0.705274 0.385675 0.205892 0.154906
H3    H     H_    0.271905 0.377783 0.218040 0.160636
H4    H     H_    0.728095 0.622217 0.781960 0.160636
H5    H     H_    0.491084 0.960281 0.286030 0.179214
H6    H     H_    0.508916 0.039719 0.713970 0.179214
H7    H     H_    0.445082 0.379490 0.948818 0.225595
H8    H     H_    0.554918 0.620510 0.051182 0.225595
N1    N     N_R   0.033761 0.562268 0.378861 -0.212219
N2    N     N_R   0.966238 0.437732 0.621139 -0.212219
N3    N     N_R   0.964763 0.562687 0.373438 -0.206146
N4    N     N_R   0.035237 0.437313 0.626562 -0.206146
N5    N     N_2   0.480680 0.456420 0.038530 -0.218204
N6    N     N_2   0.519320 0.543580 0.961470 -0.218204
O1    O     O_R   0.505010 0.286130 0.619770 -0.581474
O2    O     O_R   0.494990 0.713870 0.380230 -0.581474
O3    O     O_R   0.491990 0.256780 0.308370 -0.586212
O4    O     O_R   0.508010 0.743220 0.691630 -0.586212
O5    O     O_R   0.406650 0.514660 0.655750 -0.591478
O6    O     O_R   0.593350 0.485340 0.344250 -0.591478
O7    O     O_R   0.393640 0.485310 0.344340 -0.581337
O8    O     O_R   0.606360 0.514690 0.655660 -0.581337
C21   C     C_3   0.159006 0.644230 0.848533 -0.805699
H9    H     H_    0.127827 0.556769 0.901443 0.263199
H10   H     H_    0.200302 0.699300 0.958864 0.221849
H11   H     H_    0.125388 0.738778 0.821762 0.244199
C22   C     C_3   0.840994 0.355770 0.151467 -0.805699
H12   H     H_    0.872173 0.443230 0.098557 0.263199
H13   H     H_    0.874612 0.261222 0.178237 0.244199
H14   H     H_    0.799698 0.300700 0.041136 0.221849
C23   C     C_1   0.135196 0.350569 0.177110 0.250265
N7    N     N_1   0.101895 0.287757 0.042970 -0.244747
C24   C     C_1   0.864804 0.649430 0.822890 0.250265
N8    N     N_1   0.898105 0.712243 0.957030 -0.244747

loop_
_geom_bond_atom_site_label_1
_geom_bond_atom_site_label_2
_ccdc_geom_bond_type
C2    C4    S    
C24   N8    T    
N1    N3    A    
C9    C21   S    
C14   C16   A    
C1    O1    A    
Cu1   O8    S    
C11   C13   A    
H7    N5    S    
C1    O3    A    
N5    N6    D    
C13   C15   A    
H8    N6    S    
C22   H14   S    
C20   N4    A    
Cu1   Cu2   S    
C22   H13   S    
C3    H5    S    
C14   C24   S    
C5    O7    A    
Cu1   N6    S    
C6    O8    A    
C21   H9    S    
Cu2   N5    S    
C9    C11   A    
Cu2   O6    S    
Cu1   O4    S    
C10   C12   A    
C7    H1    S    
C19   N2    A    
C12   C19   S    
C8    C10   A    
C8    H2    S    
C12   C14   A    
C13   C23   S    
C21   H10   S    
C16   H4    S    
C6    C18   S    
Cu1   O5    S    
C11   C20   S    
C15   H3    S    
C5    C17   S    
Cu2   O3    S    
C3    C4    D    
Cu2   O2    S    
C2    O4    A    
Cu1   O1    S    
C16   C18   A    
C22   H12   S    
C19   N3    A    
C21   H11   S    
C1    C3    S    
C7    C9    A    
C2    O2    A    
C5    O5    A    
C4    H6    S    
C15   C17   A    
C10   C22   S    
C6    O6    A    
C8    C18   A    
Cu2   O7    S    
C23   N7    T    
C7    C17   A    
C20   N1    A    
N2    N4    A    
