data_mof_unit_25654.cif
_audit_creation_date              2012-12-10T16:54:34-0500
_audit_creation_method            fapswitch 2.2
_symmetry_space_group_name_H-M    P1
_symmetry_Int_Tables_number       1
_space_group_crystal_system       triclinic
_cell_length_a                    15.024766
_cell_length_b                    10.935545
_cell_length_c                    9.699527
_cell_angle_alpha                 89.992023
_cell_angle_beta                  90.054338
_cell_angle_gamma                 90.11037
_cell_volume                      1593.66744131

loop_
_atom_site_label
_atom_site_type_symbol
_atom_type_description
_atom_site_fract_x
_atom_site_fract_y
_atom_site_fract_z
_atom_type_partial_charge
C1    C     C_R   0.498818 0.265378 0.500062 0.846633
C2    C     C_R   0.906771 0.570943 0.598525 0.035677
C3    C     C_R   0.953406 0.353161 0.311971 -0.204737
C4    C     C_R   0.046144 0.351750 0.313478 -0.225401
C5    C     C_R   0.093183 0.424466 0.407761 0.137610
C6    C     C_R   0.046781 0.497522 0.503923 0.001854
C7    C     C_R   0.093664 0.571700 0.598986 -0.004418
C8    C     C_R   0.046469 0.645236 0.693565 0.449649
C9    C     C_R   0.953421 0.644998 0.691631 -0.287266
C10   C     C_R   0.185906 0.426966 0.405929 -0.245226
C11   C     C_R   0.232275 0.499660 0.500347 -0.069145
C12   C     C_R   0.328847 0.499917 0.499990 0.806238
C13   C     C_R   0.186689 0.571477 0.596275 -0.224545
C14   C     C_2   0.497308 0.933034 0.386911 -0.154314
C15   C     C_2   0.505406 0.866635 0.502345 -0.314660
C16   C     C_2   0.501215 0.066995 0.386844 -0.160657
C17   C     C_2   0.494183 0.133400 0.502398 -0.316089
C18   C     C_2   0.446672 0.432322 0.922071 -0.067969
C19   C     C_2   0.448000 0.430359 0.077748 -0.071299
C20   C     C_R   0.501047 0.734632 0.500089 0.850146
C21   C     C_R   0.671192 0.500063 0.500058 0.808342
C22   C     C_R   0.813960 0.570023 0.597785 -0.214761
C23   C     C_R   0.767830 0.499771 0.500473 -0.060867
C24   C     C_R   0.813907 0.428901 0.404066 -0.246607
C25   C     C_R   0.906687 0.426122 0.405867 0.127905
C26   C     C_R   0.953433 0.497810 0.503215 0.051788
Cu1   Cu    Cu3+1 0.500020 0.500020 0.638630 0.939936
Cu2   Cu    Cu3+1 0.499980 0.499980 0.361370 0.939689
H1    H     H_    0.777454 0.625562 0.671056 0.141996
H2    H     H_    0.517293 0.907648 0.602161 0.146625
H3    H     H_    0.508824 0.111686 0.287494 0.166183
H4    H     H_    0.482950 0.092411 0.602388 0.147918
H5    H     H_    0.398863 0.373445 0.870684 0.151141
H6    H     H_    0.545785 0.552865 0.893979 0.191895
H7    H     H_    0.402684 0.367865 0.129025 0.146995
H8    H     H_    0.540790 0.560030 0.106103 0.192527
H9    H     H_    0.777389 0.374335 0.329603 0.146315
H10   H     H_    0.918220 0.297521 0.237167 0.144931
H11   H     H_    0.081148 0.295385 0.239439 0.142751
H12   H     H_    0.222156 0.371525 0.332256 0.136674
H13   H     H_    0.224276 0.628088 0.667274 0.172776
H14   H     H_    0.917688 0.703933 0.762240 0.157198
H15   H     H_    0.488898 0.888330 0.287719 0.166381
N1    N     N_2   0.499020 0.498660 0.846910 -0.281026
N2    N     N_2   0.499000 0.498630 0.153040 -0.282220
O1    O     O_R   0.500020 0.321960 0.617040 -0.576416
O2    O     O_R   0.499980 0.321920 0.382900 -0.577795
O3    O     O_R   0.370270 0.499990 0.617090 -0.582647
O4    O     O_R   0.370240 0.499950 0.382940 -0.576760
O5    O     O_R   0.500020 0.678080 0.617100 -0.582524
O6    O     O_R   0.499980 0.678040 0.382960 -0.576086
O7    O     O_R   0.629760 0.500050 0.617060 -0.579519
O8    O     O_R   0.629730 0.500010 0.382910 -0.578429
O9    O     O_3   0.090352 0.726857 0.778976 -0.611151
C27   C     C_3   0.115960 0.667796 0.902564 0.040887
H16   H     H_    0.179858 0.709488 0.936361 0.173371
H17   H     H_    0.129020 0.567841 0.890044 0.121994
C28   C     C_3   0.046151 0.688703 0.015024 -0.363506
H18   H     H_    0.029577 0.787573 0.021052 0.234505
H19   H     H_    0.984602 0.637081 0.989235 0.209737
C29   C     C_3   0.080141 0.646025 0.155074 -0.871149
H20   H     H_    0.101394 0.549122 0.148638 0.259461
H21   H     H_    0.026355 0.654159 0.232969 0.262999
H22   H     H_    0.137580 0.702856 0.188552 0.256467

loop_
_geom_bond_atom_site_label_1
_geom_bond_atom_site_label_2
_ccdc_geom_bond_type
Cu1   O3    S    
C2    C22   A    
C29   H22   S    
C11   C12   S    
C19   N2    D    
Cu2   O2    S    
C6    C7    A    
C22   H1    S    
C18   N1    D    
C8    C9    A    
Cu2   O4    S    
C1    C17   S    
C4    H11   S    
C7    C13   A    
C12   O3    A    
C21   O7    A    
C28   C29   S    
C13   H13   S    
C24   H9    S    
C6    C26   A    
H8    N2    S    
C2    C26   A    
C25   C26   A    
C19   H7    S    
C24   C25   A    
C16   H3    S    
C21   O8    A    
C11   C13   A    
C9    H14   S    
C15   C20   S    
C15   H2    S    
C5    C6    A    
Cu1   O1    S    
C18   H5    S    
C12   O4    A    
C20   O6    A    
C27   H17   S    
C21   C23   S    
C29   H20   S    
Cu2   N2    S    
Cu2   O6    S    
C14   C16   S    
C1    O1    A    
C7    C8    A    
C10   C11   A    
C27   H16   S    
C28   H19   S    
C3    C4    A    
C5    C10   A    
C3    C25   A    
H6    N1    S    
Cu1   O7    S    
C3    H10   S    
Cu1   O5    S    
C10   H12   S    
C18   C19   S    
C27   C28   S    
C8    O9    S    
Cu1   Cu2   S    
C29   H21   S    
C17   H4    S    
O9    C27   S    
C4    C5    A    
C20   O5    A    
C23   C24   A    
C28   H18   S    
C14   C15   D    
C2    C9    A    
Cu1   N1    S    
C22   C23   A    
C1    O2    A    
C16   C17   D    
Cu2   O8    S    
C14   H15   S    
