data_mof_unit_65964.cif
_audit_creation_date              2012-12-10T18:28:36-0500
_audit_creation_method            fapswitch 2.2
_symmetry_space_group_name_H-M    P1
_symmetry_Int_Tables_number       1
_space_group_crystal_system       triclinic
_cell_length_a                    21.725599
_cell_length_b                    21.748093
_cell_length_c                    21.21775
_cell_angle_alpha                 120.686608
_cell_angle_beta                  120.719605
_cell_angle_gamma                 89.971658
_cell_volume                      6937.35531609

loop_
_atom_site_label
_atom_site_type_symbol
_atom_type_description
_atom_site_fract_x
_atom_site_fract_y
_atom_site_fract_z
_atom_type_partial_charge
C1    C     C_R   0.084685 0.584530 0.669220 0.812775
C2    C     C_R   0.973082 0.248454 0.184573 -0.106840
C3    C     C_R   0.244357 0.442036 0.424697 -0.212671
C4    C     C_R   0.313115 0.503748 0.500512 -0.076595
C5    C     C_R   0.316817 0.564759 0.575244 0.034285
C6    C     C_R   0.251193 0.562052 0.572036 -0.195732
C7    C     C_R   0.183748 0.499104 0.497710 -0.058466
C8    C     C_R   0.179650 0.438695 0.423091 -0.004980
C9    C     C_R   0.425912 0.651725 0.743218 0.194460
C10   C     C_R   0.491804 0.717141 0.816738 -0.150319
C11   C     C_R   0.519051 0.764350 0.803422 -0.154297
C12   C     C_R   0.117769 0.499251 0.498482 0.798865
C13   C     C_R   0.480658 0.746470 0.716453 -0.112179
C14   C     C_R   0.414774 0.681559 0.642770 -0.156779
C15   C     C_R   0.386733 0.633524 0.655118 0.066710
C16   C     C_1   0.136197 0.635667 0.771738 -0.150667
C17   C     C_1   0.178761 0.678127 0.856689 0.009466
C18   C     C_1   0.229076 0.728499 0.957450 0.009006
C19   C     C_1   0.271497 0.771007 0.042415 0.011307
C20   C     C_1   0.321830 0.821462 0.143201 0.005046
C21   C     C_1   0.364260 0.864010 0.228173 -0.185419
C22   C     C_R   0.952296 0.433394 0.698861 -0.137371
C23   C     C_R   0.915343 0.415470 0.330765 0.796917
C24   C     C_R   0.888392 0.431469 0.629102 0.176385
C25   C     C_R   0.882266 0.500130 0.639446 0.003413
C26   C     C_R   0.940748 0.570222 0.720646 0.132430
C27   C     C_R   0.003888 0.571105 0.789998 -0.151564
C28   C     C_R   0.009802 0.502951 0.779023 -0.178970
C29   C     C_R   0.750373 0.500781 0.565541 -0.196249
C30   C     C_R   0.686968 0.503818 0.500463 -0.105864
C31   C     C_R   0.688047 0.506879 0.436193 -0.005161
C32   C     C_R   0.752626 0.505074 0.437251 -0.230614
C33   C     C_R   0.815438 0.500861 0.501455 -0.039794
C34   C     C_R   0.881651 0.500314 0.500644 0.803968
C35   C     C_R   0.814799 0.499035 0.566485 0.065966
C36   C     C_R   0.584011 0.458287 0.276162 -0.145155
C37   C     C_R   0.523268 0.465815 0.213802 -0.126945
C38   C     C_R   0.502728 0.530270 0.244776 -0.118084
C39   C     C_R   0.543028 0.587438 0.338159 -0.131678
C40   C     C_R   0.603570 0.579994 0.400766 -0.111257
C41   C     C_R   0.624213 0.515119 0.370094 0.124781
C42   C     C_1   0.863821 0.364401 0.228224 -0.168767
C43   C     C_1   0.821228 0.321998 0.143258 -0.009258
C44   C     C_1   0.770884 0.271609 0.042481 -0.012231
C45   C     C_R   0.015862 0.251805 0.263410 -0.126654
C46   C     C_1   0.728434 0.229115 0.957514 -0.008736
C47   C     C_1   0.678071 0.178709 0.856743 -0.031502
C48   C     C_1   0.635653 0.136179 0.771782 -0.202177
C49   C     C_R   0.497229 0.619777 0.499699 0.815257
C50   C     C_R   0.379938 0.502126 0.500185 0.839992
C51   C     C_R   0.499054 0.380132 0.500191 0.854760
C52   C     C_R   0.620011 0.502044 0.500019 0.814145
C53   C     C_R   0.500838 0.119626 0.501883 0.803497
C54   C     C_R   0.415431 0.915359 0.330736 0.794221
C55   C     C_R   0.500886 0.882102 0.501750 0.783038
C56   C     C_R   0.083352 0.313921 0.341525 -0.092128
C57   C     C_R   0.584549 0.084776 0.669253 0.795674
C58   C     C_R   0.261334 0.504841 0.244017 -0.128806
C59   C     C_R   0.331298 0.563166 0.299446 -0.092012
C60   C     C_R   0.352984 0.630848 0.381651 0.095257
C61   C     C_R   0.302465 0.640774 0.405660 -0.181167
C62   C     C_R   0.232713 0.582177 0.350324 -0.128817
C63   C     C_R   0.212317 0.514124 0.269748 -0.106589
C64   C     C_R   0.431205 0.757381 0.446586 -0.226301
C65   C     C_R   0.501351 0.816111 0.503330 -0.076468
C66   C     C_R   0.570029 0.809975 0.558744 0.003473
C67   C     C_R   0.107950 0.373382 0.341255 0.076298
C68   C     C_R   0.566683 0.744892 0.556420 -0.255952
C69   C     C_R   0.496804 0.685934 0.498851 -0.091341
C70   C     C_R   0.428288 0.691436 0.442464 -0.012570
C71   C     C_R   0.704161 0.855005 0.611842 -0.134830
C72   C     C_R   0.776255 0.911735 0.672351 -0.120596
C73   C     C_R   0.790611 0.984314 0.743399 -0.108255
C74   C     C_R   0.732913 0.000255 0.754085 -0.119473
C75   C     C_R   0.660546 0.943836 0.693387 -0.123295
C76   C     C_R   0.645633 0.870857 0.621585 0.120327
C77   C     C_R   0.481058 0.195528 0.226327 -0.134701
C78   C     C_R   0.064895 0.369677 0.261902 -0.169366
C79   C     C_R   0.470379 0.196629 0.286483 -0.137836
C80   C     C_R   0.523685 0.252027 0.380894 0.120910
C81   C     C_R   0.588351 0.305553 0.414299 -0.096165
C82   C     C_R   0.598978 0.303883 0.353790 -0.088882
C83   C     C_R   0.545272 0.249196 0.259970 -0.108581
C84   C     C_R   0.512992 0.190216 0.446758 -0.218190
C85   C     C_R   0.501575 0.187550 0.504396 -0.106304
C86   C     C_R   0.488584 0.248032 0.561092 -0.035291
C87   C     C_R   0.486852 0.311327 0.558889 0.102751
C88   C     C_R   0.499454 0.313897 0.501103 -0.139059
C89   C     C_R   0.997645 0.307303 0.183791 -0.133402
C90   C     C_R   0.511876 0.252713 0.444122 -0.027542
C91   C     C_R   0.406603 0.225145 0.602728 -0.096040
C92   C     C_R   0.398434 0.223450 0.663143 0.198136
C93   C     C_R   0.463184 0.243242 0.746016 -0.117585
C94   C     C_R   0.536055 0.264643 0.768482 -0.155805
C95   C     C_R   0.544411 0.266027 0.708066 -0.141026
C96   C     C_R   0.479698 0.246612 0.625059 0.104604
Cu1   Cu    Cu3+1 0.000010 0.438210 0.500020 1.002074
Cu2   Cu    Cu3+1 0.999990 0.561790 0.499980 0.978461
Cu3   Cu    Cu3+1 0.457530 0.457560 0.415050 0.969021
Cu4   Cu    Cu3+1 0.542470 0.542480 0.584950 1.006345
Cu5   Cu    Cu3+1 0.561810 0.000000 0.500000 0.977873
Cu6   Cu    Cu3+1 0.438190 0.000000 0.500000 0.980284
H1    H     H_    0.570160 0.814647 0.860516 0.143225
H2    H     H_    0.502024 0.782775 0.706008 0.139759
H3    H     H_    0.385988 0.668088 0.575758 0.114153
H4    H     H_    0.059005 0.504057 0.832814 0.153864
H5    H     H_    0.957384 0.380823 0.691008 0.160951
H6    H     H_    0.048596 0.624789 0.852597 0.164415
H7    H     H_    0.749430 0.499059 0.615253 0.159545
H8    H     H_    0.754271 0.507564 0.388328 0.147078
H9    H     H_    0.996837 0.206176 0.263908 0.137247
H10   H     H_    0.599200 0.407936 0.251412 0.120057
H11   H     H_    0.492081 0.421649 0.141447 0.134121
H12   H     H_    0.455697 0.535998 0.196424 0.127982
H13   H     H_    0.527314 0.637487 0.361960 0.138231
H14   H     H_    0.158348 0.468796 0.226945 0.118263
H15   H     H_    0.245230 0.452354 0.181268 0.122432
H16   H     H_    0.369008 0.555266 0.279073 0.125535
H17   H     H_    0.317437 0.693526 0.467533 0.131160
H18   H     H_    0.194493 0.589508 0.369887 0.137134
H19   H     H_    0.116438 0.315700 0.402038 0.149269
H20   H     H_    0.618982 0.739925 0.599488 0.153714
H21   H     H_    0.693804 0.798848 0.557255 0.127559
H22   H     H_    0.821075 0.899345 0.664355 0.139813
H23   H     H_    0.846537 0.028099 0.790418 0.129092
H24   H     H_    0.744481 0.056251 0.809723 0.134960
H25   H     H_    0.616456 0.956718 0.702765 0.104471
H26   H     H_    0.553586 0.248243 0.213386 0.125546
H27   H     H_    0.420341 0.154753 0.259575 0.129978
H28   H     H_    0.083344 0.415096 0.260734 0.124721
H29   H     H_    0.630461 0.348187 0.486916 0.119108
H30   H     H_    0.648972 0.344722 0.379436 0.153877
H31   H     H_    0.522178 0.142885 0.402881 0.160519
H32   H     H_    0.356334 0.209739 0.538607 0.150609
H33   H     H_    0.457076 0.242092 0.792968 0.149338
H34   H     H_    0.601100 0.282359 0.725914 0.134247
H35   H     H_    0.964407 0.304702 0.122759 0.135726
H36   H     H_    0.252753 0.609014 0.628084 0.148255
H37   H     H_    0.522315 0.731195 0.884337 0.158450
O1    O     O_R   0.061970 0.509790 0.623960 -0.556015
O2    O     O_R   0.535870 0.626050 0.571740 -0.587094
O3    O     O_R   0.373960 0.464160 0.428260 -0.595623
O4    O     O_R   0.445680 0.535880 0.571730 -0.558800
O5    O     O_R   0.464130 0.373990 0.428260 -0.584406
O6    O     O_R   0.535860 0.445700 0.571730 -0.560584
O7    O     O_R   0.554320 0.464170 0.428270 -0.575577
O8    O     O_R   0.626040 0.535880 0.571740 -0.586093
O9    O     O_R   0.552180 0.090160 0.499970 -0.578254
O10   O     O_R   0.447790 0.090160 0.499970 -0.573850
O11   O     O_R   0.490230 0.938030 0.376060 -0.562453
O12   O     O_R   0.061960 0.614160 0.623930 -0.556677
O13   O     O_R   0.385840 0.938030 0.376050 -0.560771
O14   O     O_R   0.552210 0.909840 0.500030 -0.568705
O15   O     O_R   0.447820 0.909840 0.500030 -0.582363
O16   O     O_R   0.614160 0.061970 0.623950 -0.560108
O17   O     O_R   0.509770 0.061970 0.623940 -0.556885
O18   O     O_R   0.090190 0.447820 0.500020 -0.574076
O19   O     O_R   0.090170 0.552190 0.499990 -0.586477
O20   O     O_R   0.938040 0.385840 0.376070 -0.557723
O21   O     O_R   0.938030 0.490210 0.376040 -0.570837
O22   O     O_R   0.909830 0.447810 0.500010 -0.563440
O23   O     O_R   0.909810 0.552180 0.499980 -0.569619
O24   O     O_R   0.464140 0.554340 0.428270 -0.586180
H38   H     H_    0.920846 0.200361 0.124157 0.132441
I1    I     I_    0.803929 0.323294 0.509540 -0.414514
I2    I     I_    0.936724 0.676433 0.742655 -0.386787
H39   H     H_    0.634392 0.624669 0.472988 0.105645
H40   H     H_    0.378653 0.762221 0.403811 0.157411
H41   H     H_    0.439589 0.153002 0.153626 0.134429
I3    I     I_    0.460417 0.400311 0.639509 -0.302696
I4    I     I_    0.288517 0.191221 0.629276 -0.368131
H42   H     H_    0.586070 0.280111 0.832720 0.151469
H43   H     H_    0.241304 0.395486 0.367125 0.161028
I5    I     I_    0.391186 0.581417 0.769296 -0.336919

loop_
_geom_bond_atom_site_label_1
_geom_bond_atom_site_label_2
_ccdc_geom_bond_type
C78   H28   S    
C55   O15   A    
C66   C68   A    
C87   C88   A    
Cu5   O9    S    
Cu5   Cu6   S    
C61   H17   S    
C73   C74   A    
Cu3   O3    S    
C95   C96   A    
C83   H26   S    
C43   C44   S    
C34   O22   A    
Cu1   Cu2   S    
C7    C8    A    
C54   O11   A    
C85   C86   A    
C57   O16   A    
C26   C27   A    
C93   C94   A    
C23   C42   S    
C32   H8    S    
Cu1   O20   S    
C29   H7    S    
C36   C37   A    
C37   C38   A    
Cu4   O2    S    
C5    C6    A    
C38   H12   S    
C81   H29   S    
C37   H11   S    
C51   O6    A    
Cu4   O8    S    
C22   H5    S    
C79   H27   S    
Cu5   O11   S    
C17   C18   S    
C18   C19   T    
C95   H34   S    
C40   H39   S    
C94   H42   S    
C91   C96   A    
C3    H43   S    
C14   H3    S    
Cu2   O19   S    
C45   C56   A    
C28   H4    S    
C16   C17   T    
C49   O2    A    
C36   H10   S    
C64   C70   A    
C12   O18   A    
C9    C10   A    
Cu6   O15   S    
Cu1   O1    S    
C62   H18   S    
C61   C62   A    
C72   C73   A    
C59   C60   A    
C2    C45   A    
C49   C69   S    
C13   C14   A    
C72   H22   S    
C53   O10   A    
C36   C41   A    
C69   C70   A    
C67   C78   A    
C84   C90   A    
Cu2   O23   S    
C44   C46   T    
C81   C82   A    
Cu2   O12   S    
C77   C79   A    
C78   C89   A    
C7    C12   S    
C57   O17   A    
C84   H31   S    
C5    C15   S    
C74   C75   A    
C47   C48   T    
Cu3   O5    S    
C48   C57   S    
C38   C39   A    
C84   C85   A    
C3    C8    A    
C68   H20   S    
C91   C92   A    
C86   C87   A    
C68   C69   A    
C54   O13   A    
C34   O23   A    
C58   C59   A    
C51   O5    A    
C87   I3    S    
C58   H15   S    
C4    C50   S    
C60   C61   A    
Cu1   O18   S    
C6    H36   S    
C2    C89   A    
C75   C76   A    
C29   C30   A    
C31   C32   A    
C60   C70   S    
Cu4   O6    S    
C66   C76   S    
C23   O21   A    
C62   C63   A    
C33   C34   S    
C9    I5    S    
C1    C16   S    
C24   C25   A    
C13   H2    S    
C1    O1    A    
C86   C96   S    
C25   C35   S    
Cu3   O24   S    
C63   H14   S    
C40   C41   A    
Cu3   O7    S    
C88   C90   A    
C65   C66   A    
C59   H16   S    
C89   H35   S    
C22   C24   A    
C42   C43   T    
Cu5   O14   S    
C2    H38   S    
C3    C4    A    
Cu6   O17   S    
C71   C76   A    
C39   C40   A    
C50   O4    A    
Cu1   O22   S    
C71   H21   S    
C58   C63   A    
C55   O14   A    
C30   C52   S    
C46   C47   S    
C26   I2    S    
C52   O7    A    
C31   C41   S    
C55   C65   S    
C77   C83   A    
Cu2   O21   S    
C80   C81   A    
C93   H33   S    
Cu4   O4    S    
C51   C88   S    
C53   C85   S    
C45   H9    S    
C6    C7    A    
C52   O8    A    
C56   C67   A    
C11   H1    S    
C29   C35   A    
C39   H13   S    
Cu3   Cu4   S    
C21   C54   S    
C32   C33   A    
C19   C20   S    
C24   I1    S    
C25   C26   A    
C71   C72   A    
C64   H40   S    
C56   H19   S    
C11   C13   A    
C30   C31   A    
C74   H24   S    
C91   H32   S    
C27   H6    S    
C73   H23   S    
C64   C65   A    
C92   C93   A    
C33   C35   A    
C1    O12   A    
C75   H25   S    
C53   O9    A    
C80   C90   S    
C94   C95   A    
C49   O24   A    
C10   C11   A    
Cu6   O10   S    
C79   C80   A    
C4    C5    A    
C20   C21   T    
C8    C67   S    
C77   H41   S    
C82   C83   A    
C10   H37   S    
C27   C28   A    
Cu5   O16   S    
C14   C15   A    
C22   C28   A    
C92   I4    S    
C12   O19   A    
C82   H30   S    
C50   O3    A    
C9    C15   A    
Cu6   O13   S    
C23   O20   A    
