data_mof_unit_20159.cif
_audit_creation_date              2012-12-11T14:42:22-0500
_audit_creation_method            fapswitch 2.2
_symmetry_space_group_name_H-M    P1
_symmetry_Int_Tables_number       1
_space_group_crystal_system       triclinic
_cell_length_a                    18.869756
_cell_length_b                    10.998223
_cell_length_c                    18.739504
_cell_angle_alpha                 90.062431
_cell_angle_beta                  90.029151
_cell_angle_gamma                 90.116735
_cell_volume                      3889.06929537

loop_
_atom_site_label
_atom_site_type_symbol
_atom_type_description
_atom_site_fract_x
_atom_site_fract_y
_atom_site_fract_z
_atom_type_partial_charge
C1    C     C_R   0.725701 0.959230 0.855204 0.544283
C2    C     C_R   0.238291 0.433421 0.929878 0.035653
C3    C     C_3   0.946249 0.399096 0.609871 -0.283788
C4    C     C_R   0.250996 0.915151 0.076733 0.027883
C5    C     C_R   0.738291 0.933420 0.929878 0.035655
C6    C     C_R   0.789956 0.323036 0.044379 -0.141248
C7    C     C_R   0.179694 0.400483 0.971628 -0.127901
C8    C     C_R   0.289956 0.823036 0.044379 -0.141248
C9    C     C_R   0.679694 0.900483 0.971628 -0.127900
C10   C     C_R   0.786543 0.308815 0.971710 -0.124034
C11   C     C_R   0.185418 0.395267 0.044534 -0.134659
C12   C     C_R   0.286543 0.808815 0.971710 -0.124034
C13   C     C_R   0.272233 0.955460 0.146906 0.545746
C14   C     C_R   0.685418 0.895267 0.044534 -0.134659
C15   C     C_R   0.742540 0.384299 0.930352 0.033832
C16   C     C_R   0.251111 0.414854 0.077024 0.027700
C17   C     C_R   0.242540 0.884299 0.930352 0.033832
C18   C     C_R   0.751111 0.914853 0.077024 0.027700
C19   C     C_R   0.483578 0.271781 0.540635 -0.175392
C20   C     C_R   0.486764 0.276992 0.468281 -0.168326
C21   C     C_R   0.983583 0.771782 0.540633 -0.175392
C22   C     C_R   0.986770 0.776993 0.468279 -0.168328
C23   C     C_R   0.495898 0.170835 0.427857 0.005302
C24   C     C_R   0.225701 0.459230 0.855204 0.544287
C25   C     C_R   0.497220 0.162625 0.575435 0.008100
C26   C     C_R   0.995901 0.670834 0.427856 0.005303
C27   C     C_R   0.997222 0.662626 0.575434 0.008101
C28   C     C_R   0.507449 0.058437 0.461547 0.159013
C29   C     C_R   0.503429 0.052618 0.535945 0.158619
C30   C     C_R   0.007450 0.558437 0.461546 0.159014
C31   C     C_R   0.003430 0.552618 0.535944 0.158619
C32   C     C_R   0.776255 0.269191 0.519644 -0.131812
C33   C     C_R   0.220902 0.272712 0.478966 -0.107913
C34   C     C_R   0.276256 0.769192 0.519644 -0.131805
C35   C     C_R   0.772233 0.455460 0.146906 0.545745
C36   C     C_R   0.720896 0.772723 0.478963 -0.107912
C37   C     C_R   0.782209 0.292432 0.446600 0.132681
C38   C     C_R   0.214093 0.295994 0.551788 0.141382
C39   C     C_R   0.282210 0.792432 0.446600 0.132684
C40   C     C_R   0.714085 0.796000 0.551785 0.141392
C41   C     C_R   0.529327 0.177744 0.850493 0.551933
C42   C     C_R   0.469926 0.177560 0.148997 0.553767
C43   C     C_R   0.029327 0.677744 0.850493 0.551933
C44   C     C_R   0.969926 0.677560 0.148997 0.553766
C45   C     C_R   0.744219 0.391031 0.416758 0.044985
C46   C     C_R   0.703071 0.485462 0.036571 -0.132175
C47   C     C_R   0.254419 0.391383 0.582858 0.045104
C48   C     C_R   0.244218 0.891028 0.416758 0.044983
C49   C     C_R   0.754417 0.891379 0.582859 0.045115
C50   C     C_R   0.688836 0.442871 0.456123 -0.174819
C51   C     C_R   0.310709 0.441874 0.544142 -0.179059
C52   C     C_R   0.188832 0.942862 0.456121 -0.174823
C53   C     C_R   0.810710 0.941865 0.544145 -0.179061
C54   C     C_R   0.679617 0.412130 0.527743 -0.149344
C55   C     C_R   0.319593 0.412415 0.472346 -0.152407
C56   C     C_R   0.179612 0.912118 0.527741 -0.149363
C57   C     C_R   0.302969 0.462491 0.962463 -0.148511
C58   C     C_R   0.819595 0.912410 0.472348 -0.152405
C59   C     C_R   0.727468 0.332746 0.561394 -0.008726
C60   C     C_R   0.271465 0.334008 0.438227 -0.000655
C61   C     C_R   0.227466 0.832741 0.561393 -0.008739
C62   C     C_R   0.771464 0.834011 0.438226 -0.000655
C63   C     C_R   0.736789 0.357661 0.855041 0.555319
C64   C     C_R   0.261436 0.365501 0.147837 0.552977
C65   C     C_R   0.236789 0.857661 0.855041 0.555318
C66   C     C_R   0.761436 0.865501 0.147837 0.552977
C67   C     C_R   0.729344 0.951184 0.648643 0.542686
C68   C     C_R   0.203071 0.985462 0.036571 -0.132176
C69   C     C_R   0.270474 0.951314 0.351387 0.540343
C70   C     C_R   0.229344 0.451187 0.648642 0.542694
C71   C     C_R   0.770474 0.451314 0.351387 0.540345
C72   C     C_R   0.528165 0.174967 0.645670 0.539920
C73   C     C_R   0.470942 0.176629 0.355090 0.537111
C74   C     C_R   0.028166 0.674968 0.645670 0.539920
C75   C     C_R   0.970942 0.676629 0.355089 0.537111
C76   C     C_R   0.724841 0.310351 0.638851 0.564945
C77   C     C_R   0.274975 0.310653 0.361124 0.562607
C78   C     C_R   0.224841 0.810350 0.638851 0.564934
C79   C     C_R   0.802969 0.962490 0.962463 -0.148511
C80   C     C_R   0.774974 0.810655 0.361125 0.562609
C81   C     C_2   0.495517 0.169522 0.920321 -0.107829
C82   C     C_2   0.501325 0.167443 0.078083 -0.113115
C83   C     C_2   0.995517 0.669523 0.920321 -0.107828
C84   C     C_2   0.001325 0.667443 0.078083 -0.113115
C85   C     C_2   0.487121 0.069982 0.036965 -0.162469
C86   C     C_2   0.502169 0.069024 0.960224 -0.160072
C87   C     C_2   0.987121 0.569982 0.036965 -0.162469
C88   C     C_2   0.002169 0.569024 0.960224 -0.160072
C89   C     C_R   0.698702 0.469622 0.963229 -0.142574
C90   C     C_R   0.750996 0.415151 0.076733 0.027883
C91   C     C_R   0.309615 0.452175 0.036115 -0.142588
C92   C     C_R   0.198702 0.969622 0.963229 -0.142573
C93   C     C_R   0.809615 0.952175 0.036115 -0.142588
C94   C     C_3   0.794174 0.152020 0.347764 -0.259354
C95   C     C_3   0.195966 0.153783 0.648470 -0.263969
C96   C     C_3   0.294180 0.652018 0.347765 -0.259344
C97   C     C_3   0.695928 0.653790 0.648464 -0.264047
C98   C     C_3   0.481135 0.851503 0.419475 -0.232107
C99   C     C_3   0.446250 0.899092 0.609872 -0.283789
C100  C     C_3   0.981133 0.351502 0.419476 -0.232104
Cr1   Cr    Cr6+3 0.769270 0.163730 0.750710 0.994116
Cr2   Cr    Cr6+3 0.385840 0.322500 0.252290 0.990879
Cr3   Cr    Cr6+3 0.114160 0.822500 0.747710 0.994785
Cr4   Cr    Cr6+3 0.885840 0.822500 0.252290 0.990880
Cr5   Cr    Cr6+3 0.230730 0.163730 0.249290 1.000260
Cr6   Cr    Cr6+3 0.269270 0.663730 0.750710 0.994114
Cr7   Cr    Cr6+3 0.730730 0.663730 0.249290 1.000259
Cr8   Cr    Cr6+3 0.612620 0.009790 0.748780 1.002633
Cr9   Cr    Cr6+3 0.387380 0.009790 0.251220 1.001111
Cr10  Cr    Cr6+3 0.112620 0.509790 0.748780 1.002642
Cr11  Cr    Cr6+3 0.887380 0.509790 0.251220 1.001111
Cr12  Cr    Cr6+3 0.614160 0.322500 0.747710 0.994780
H1    H     H_    0.462704 0.989033 0.059350 0.156950
H2    H     H_    0.361960 0.455381 0.442845 0.126814
H3    H     H_    0.137479 0.955385 0.557481 0.136458
H4    H     H_    0.861963 0.955371 0.442848 0.126812
H5    H     H_    0.527297 0.247067 0.055793 0.109491
H6    H     H_    0.474281 0.252520 0.943394 0.107983
H7    H     H_    0.027297 0.747067 0.055793 0.109491
H8    H     H_    0.974281 0.752520 0.943394 0.107983
H9    H     H_    0.662693 0.525219 0.932298 0.122182
H10   H     H_    0.361032 0.467075 0.060350 0.129755
H11   H     H_    0.162693 0.025219 0.932297 0.122182
H12   H     H_    0.519954 0.984237 0.936746 0.142454
H13   H     H_    0.861032 0.967074 0.060349 0.129755
H14   H     H_    0.672281 0.557404 0.060941 0.137209
H15   H     H_    0.348081 0.491746 0.931100 0.116918
H16   H     H_    0.172282 0.057404 0.060941 0.137210
H17   H     H_    0.848081 0.991745 0.931100 0.116918
H18   H     H_    0.826334 0.266825 0.074547 0.126245
H19   H     H_    0.128545 0.380545 0.948258 0.127702
H20   H     H_    0.326334 0.766825 0.074547 0.126245
H21   H     H_    0.628545 0.880545 0.948258 0.127703
H22   H     H_    0.818598 0.237747 0.948141 0.140186
H23   H     H_    0.962704 0.489033 0.059350 0.156951
H24   H     H_    0.139334 0.367464 0.074984 0.129444
H25   H     H_    0.318598 0.737746 0.948141 0.140186
H26   H     H_    0.639334 0.867464 0.074984 0.129444
H27   H     H_    0.476483 0.356550 0.569349 0.140390
H28   H     H_    0.478648 0.365345 0.444210 0.140703
H29   H     H_    0.976491 0.856552 0.569347 0.140391
H30   H     H_    0.978656 0.865346 0.444207 0.140702
H31   H     H_    0.810070 0.201976 0.544033 0.112718
H32   H     H_    0.186170 0.207247 0.453898 0.116453
H33   H     H_    0.310075 0.701982 0.544034 0.112716
H34   H     H_    0.019954 0.484237 0.936746 0.142454
H35   H     H_    0.686161 0.707267 0.453892 0.116457
H36   H     H_    0.864258 0.168432 0.432881 0.222635
H37   H     H_    0.757175 0.083909 0.370731 0.161140
H38   H     H_    0.835030 0.105421 0.315219 0.160337
H39   H     H_    0.763972 0.212840 0.311724 0.150984
H40   H     H_    0.127610 0.179459 0.562769 0.231509
H41   H     H_    0.153403 0.105958 0.678188 0.159567
H42   H     H_    0.225591 0.211037 0.687093 0.157112
H43   H     H_    0.233131 0.086440 0.625224 0.153112
H44   H     H_    0.364267 0.668444 0.432881 0.222629
H45   H     H_    0.654896 0.511068 0.432634 0.115654
H46   H     H_    0.257194 0.583890 0.370735 0.161148
H47   H     H_    0.335038 0.605438 0.315211 0.160324
H48   H     H_    0.263966 0.712833 0.311733 0.150980
H49   H     H_    0.627593 0.679483 0.562748 0.231511
H50   H     H_    0.733158 0.586537 0.625243 0.153097
H51   H     H_    0.653364 0.605861 0.678112 0.159553
H52   H     H_    0.725466 0.711050 0.687142 0.157199
H53   H     H_    0.555992 0.970838 0.374723 0.250711
H54   H     H_    0.466370 0.830931 0.363358 0.159611
H55   H     H_    0.431877 0.869774 0.449988 0.185035
H56   H     H_    0.345573 0.508434 0.568250 0.111775
H57   H     H_    0.507842 0.770734 0.442492 0.133686
H58   H     H_    0.556190 0.913222 0.590065 0.306947
H59   H     H_    0.451426 0.801727 0.624484 0.137842
H60   H     H_    0.397341 0.910115 0.577529 0.154189
H61   H     H_    0.441337 0.953617 0.659460 0.161420
H62   H     H_    0.055991 0.470834 0.374721 0.250713
H63   H     H_    0.966370 0.330926 0.363359 0.159605
H64   H     H_    0.931874 0.369779 0.449986 0.185036
H65   H     H_    0.007837 0.270736 0.442497 0.133694
H66   H     H_    0.056189 0.413220 0.590065 0.306937
H67   H     H_    0.154890 0.011055 0.432631 0.115655
H68   H     H_    0.951424 0.301732 0.624485 0.137842
H69   H     H_    0.897341 0.410117 0.577527 0.154191
H70   H     H_    0.941334 0.453624 0.659458 0.161420
H71   H     H_    0.845576 0.008420 0.568255 0.111777
H72   H     H_    0.637486 0.455400 0.557484 0.136458
N1    N     N_2   0.828506 0.219826 0.404336 -0.522493
N2    N     N_2   0.164624 0.226643 0.592463 -0.510678
N3    N     N_2   0.328511 0.719831 0.404336 -0.522491
N4    N     N_2   0.664605 0.726657 0.592451 -0.510689
N5    N     N_2   0.529139 0.954245 0.421666 -0.496695
N6    N     N_2   0.507671 0.936409 0.569117 -0.507779
N7    N     N_2   0.029138 0.454243 0.421665 -0.496695
N8    N     N_2   0.007670 0.436409 0.569117 -0.507781
O1    O     O_R   0.784320 0.290430 0.830510 -0.524815
O2    O     O_R   0.456080 0.282180 0.333210 -0.536799
O3    O     O_R   0.043920 0.782180 0.666790 -0.534064
O4    O     O_R   0.956080 0.782180 0.333210 -0.536799
O5    O     O_R   0.679040 0.374160 0.674430 -0.519242
O6    O     O_R   0.320960 0.374160 0.325570 -0.523346
O7    O     O_R   0.179040 0.874160 0.674430 -0.519235
O8    O     O_R   0.820960 0.874160 0.325570 -0.523345
O9    O     O_3   0.665350 0.165340 0.749070 -0.257973
O10   O     O_3   0.334650 0.165340 0.250930 -0.256132
O11   O     O_3   0.165350 0.665340 0.749070 -0.257976
O12   O     O_R   0.215680 0.290430 0.169490 -0.521680
O13   O     O_3   0.834650 0.665340 0.250930 -0.256131
O14   O     O_R   0.762640 0.040960 0.825200 -0.506584
O15   O     O_R   0.237360 0.040960 0.174800 -0.505296
O16   O     O_R   0.262640 0.540960 0.825200 -0.506585
O17   O     O_R   0.737360 0.540960 0.174800 -0.505296
O18   O     O_R   0.667400 0.923970 0.829950 -0.529682
O19   O     O_R   0.332600 0.923970 0.170050 -0.527892
O20   O     O_R   0.167400 0.423970 0.829950 -0.529674
O21   O     O_R   0.832600 0.423970 0.170050 -0.527892
O22   O     O_R   0.553960 0.081340 0.821780 -0.498677
O23   O     O_R   0.284320 0.790430 0.830510 -0.524815
O24   O     O_R   0.446040 0.081340 0.178220 -0.496685
O25   O     O_R   0.053960 0.581340 0.821780 -0.498678
O26   O     O_R   0.946040 0.581340 0.178220 -0.496685
O27   O     O_R   0.543180 0.283240 0.826740 -0.515383
O28   O     O_R   0.456820 0.283240 0.173260 -0.515446
O29   O     O_R   0.043180 0.783240 0.826740 -0.515382
O30   O     O_R   0.956820 0.783240 0.173260 -0.515446
O31   O     O_R   0.678360 0.375140 0.822710 -0.498625
O32   O     O_R   0.321640 0.375140 0.177290 -0.503281
O33   O     O_R   0.178360 0.875140 0.822710 -0.498626
O34   O     O_R   0.715680 0.790430 0.169490 -0.521680
O35   O     O_R   0.821640 0.875140 0.177290 -0.503281
O36   O     O_R   0.785050 0.289380 0.670560 -0.530695
O37   O     O_R   0.214950 0.289380 0.329440 -0.520467
O38   O     O_R   0.285050 0.789380 0.670560 -0.530698
O39   O     O_R   0.714950 0.789380 0.329440 -0.520471
O40   O     O_R   0.763320 0.039990 0.676930 -0.527664
O41   O     O_R   0.236680 0.039990 0.323070 -0.529610
O42   O     O_R   0.263320 0.539990 0.676930 -0.527668
O43   O     O_R   0.736680 0.539990 0.323070 -0.529610
O44   O     O_R   0.668130 0.922920 0.670000 -0.493258
O45   O     O_R   0.554640 0.080370 0.673500 -0.505662
O46   O     O_R   0.331870 0.922920 0.330000 -0.491177
O47   O     O_R   0.168130 0.422920 0.670000 -0.493234
O48   O     O_R   0.831870 0.422920 0.330000 -0.491180
O49   O     O_R   0.445360 0.080370 0.326500 -0.496362
O50   O     O_R   0.054640 0.580370 0.673500 -0.505665
O51   O     O_R   0.945360 0.580370 0.326500 -0.496362
O52   O     O_R   0.543920 0.282180 0.666790 -0.534068

loop_
_geom_bond_atom_site_label_1
_geom_bond_atom_site_label_2
_ccdc_geom_bond_type
C58   C62   A    
C97   N4    S    
C96   H46   S    
C87   C88   S    
Cr8   O44   S    
Cr7   O39   S    
C45   C71   S    
C43   C83   S    
C72   O52   A    
C2    C7    A    
C42   C82   S    
C94   N1    S    
C48   C69   S    
C4    C8    A    
Cr9   O24   S    
C28   N5    S    
C24   O20   A    
C2    C57   A    
Cr2   O32   S    
C46   C89   A    
Cr9   O46   S    
C94   H37   S    
C7    C11   A    
Cr6   O23   S    
C10   H22   S    
C50   C54   A    
Cr1   O36   S    
C1    C5    S    
C62   C80   S    
Cr9   O10   S    
C43   O29   A    
C65   O23   A    
H49   N4    S    
C42   O28   A    
C76   O5    A    
Cr2   O6    S    
Cr6   O16   S    
C30   C31   A    
C34   H33   S    
C76   O36   A    
C99   H59   S    
C3    N8    S    
C40   C49   A    
C79   H17   S    
Cr7   O34   S    
C64   O32   A    
C70   O42   A    
C4    C13   S    
Cr10  O25   S    
C69   O41   A    
C32   H31   S    
Cr6   O11   S    
C48   C52   A    
C98   H57   S    
Cr12  O27   S    
C37   N1    S    
C14   H26   S    
C85   C86   S    
C97   H51   S    
C91   H10   S    
C12   C17   A    
C8    H20   S    
H53   N5    S    
C63   O1    A    
Cr11  O13   S    
Cr11  O26   S    
C71   O43   A    
C5    C79   A    
C27   C74   S    
Cr6   O42   S    
C77   O6    A    
C68   H16   S    
C7    H19   S    
C98   H55   S    
C6    H18   S    
H62   N7    S    
C39   N3    S    
C75   O4    A    
C95   H43   S    
C83   C88   D    
C64   O12   A    
C50   H45   S    
C55   C60   A    
C42   O24   A    
C58   H4    S    
Cr4   O8    S    
C96   N3    S    
C66   O34   A    
C51   H56   S    
C43   O25   A    
C17   C92   A    
Cr3   O3    S    
Cr12  O9    S    
C23   C73   S    
C98   N5    S    
C36   C62   A    
C100  H65   S    
Cr2   O2    S    
Cr4   O30   S    
C41   O27   A    
Cr1   O1    S    
C57   H15   S    
Cr5   O15   S    
C93   H13   S    
C54   C59   A    
C33   H32   S    
C25   C29   A    
C60   C77   S    
C67   O44   A    
C32   C37   A    
C27   C31   A    
C34   C39   A    
C63   O31   A    
C36   C40   A    
C44   O26   A    
H40   N2    S    
C92   H11   S    
C4    C68   A    
C9    C14   A    
Cr10  O47   S    
Cr5   O12   S    
C47   C51   A    
C99   H60   S    
C94   H39   S    
C6    C90   A    
C31   N8    S    
C24   O16   A    
C34   C61   A    
Cr6   O38   S    
Cr10  O11   S    
C95   H41   S    
Cr5   O37   S    
C83   H8    S    
C66   O35   A    
C3    H68   S    
Cr4   O13   S    
C47   C70   S    
C5    C9    A    
Cr8   O9    S    
C87   H23   S    
C15   C89   A    
H66   N8    S    
C11   C16   A    
Cr10  O50   S    
C36   H35   S    
Cr9   O19   S    
C99   H61   S    
C20   C23   A    
Cr9   O49   S    
C61   C78   S    
C8    C12   A    
C97   H52   S    
C41   C81   S    
C22   H30   S    
C100  H63   S    
C13   O15   A    
C26   C75   S    
Cr4   O4    S    
C65   O33   A    
C25   C72   S    
Cr3   O7    S    
C23   C28   A    
C1    O14   A    
C3    H69   S    
C30   N7    S    
C38   C47   A    
C98   H54   S    
C72   O45   A    
Cr7   O17   S    
C19   H27   S    
C17   C65   S    
C96   H48   S    
C67   O40   A    
C26   C30   A    
C33   C60   A    
C86   H12   S    
C21   C27   A    
Cr12  O31   S    
C54   H72   S    
H36   N1    S    
C100  N7    S    
C44   O30   A    
C70   O47   A    
C80   O39   A    
C37   C45   A    
Cr3   O33   S    
Cr12  O52   S    
Cr4   O35   S    
C69   O46   A    
H44   N3    S    
Cr7   O43   S    
C74   O3    A    
C28   C29   A    
Cr11  O51   S    
C57   C91   A    
C1    O18   A    
C56   C61   A    
Cr5   O41   S    
C14   C18   A    
C46   H14   S    
Cr10  O20   S    
C81   C86   D    
C44   C84   S    
Cr11  O21   S    
C6    C10   A    
C99   N6    S    
Cr8   O18   S    
C53   C58   A    
C49   C67   S    
C100  H64   S    
C46   C90   A    
C55   H2    S    
Cr2   O28   S    
Cr12  O5    S    
C78   O38   A    
C82   C85   D    
H58   N6    S    
C77   O37   A    
Cr11  O48   S    
C82   H5    S    
C10   C15   A    
C95   H42   S    
C21   C22   A    
C20   H28   S    
C19   C20   A    
C53   H71   S    
Cr2   O10   S    
C79   C93   A    
C21   H29   S    
C13   O19   A    
C38   N2    S    
C11   H24   S    
C71   O48   A    
C2    C24   S    
C41   O22   A    
Cr5   O10   S    
C89   H9    S    
C45   C50   A    
C84   H7    S    
C49   C53   A    
C81   H6    S    
C85   H1    S    
C68   C92   A    
C56   H3    S    
C84   C87   D    
Cr1   O40   S    
C51   C55   A    
C35   O17   A    
C18   C66   S    
C3    H70   S    
Cr3   O11   S    
C52   H67   S    
C75   O51   A    
Cr1   O14   S    
C19   C25   A    
C22   C26   A    
C74   O50   A    
C35   C90   S    
C94   H38   S    
C40   N4    S    
C96   H47   S    
C73   O49   A    
Cr8   O45   S    
C95   N2    S    
C16   C91   A    
Cr7   O13   S    
C97   H50   S    
C78   O7    A    
C29   N6    S    
C18   C93   A    
C15   C63   S    
C12   H25   S    
C33   C38   A    
Cr1   O9    S    
C16   C64   S    
C32   C59   A    
C88   H34   S    
C73   O2    A    
C59   C76   S    
C35   O21   A    
Cr3   O29   S    
C52   C56   A    
Cr8   O22   S    
C9    H21   S    
C39   C48   A    
C80   O8    A    
