data_mof_unit_28214.cif
_audit_creation_date              2013-03-05T15:47:19-0500
_audit_creation_method            fapswitch 2.2
_symmetry_space_group_name_H-M    P1
_symmetry_Int_Tables_number       1
_space_group_crystal_system       triclinic
_cell_length_a                    19.467809
_cell_length_b                    11.373313
_cell_length_c                    18.70192
_cell_angle_alpha                 90.440158
_cell_angle_beta                  90.176289
_cell_angle_gamma                 89.948906
_cell_volume                      4140.71393812

loop_
_atom_site_label
_atom_site_type_symbol
_atom_site_description
_atom_site_fract_x
_atom_site_fract_y
_atom_site_fract_z
_atom_type_partial_charge
O1    O     O_R   0.214130 0.708570 0.829890 -0.520611
O2    O     O_R   0.785870 0.708570 0.170110 -0.519164
O3    O     O_R   0.714130 0.208570 0.829890 -0.520610
O4    O     O_R   0.285870 0.208570 0.170110 -0.519164
O5    O     O_R   0.236050 0.959150 0.825270 -0.515263
O6    O     O_R   0.763950 0.959150 0.174730 -0.515468
O7    O     O_R   0.736050 0.459150 0.825270 -0.515263
O8    O     O_R   0.263950 0.459150 0.174730 -0.515467
C1    C     C_R   0.272492 0.043496 0.854052 0.530279
C2    C     C_R   0.727492 0.043045 0.145849 0.529086
C3    C     C_R   0.772492 0.543496 0.854052 0.530278
C4    C     C_R   0.227492 0.543045 0.145849 0.529086
O9    O     O_R   0.332100 0.076650 0.832310 -0.533500
O10   O     O_R   0.667900 0.076650 0.167690 -0.534393
O11   O     O_R   0.832100 0.576650 0.832310 -0.533501
O12   O     O_R   0.167900 0.576650 0.167690 -0.534393
O13   O     O_R   0.446500 0.918620 0.826240 -0.498173
O14   O     O_R   0.553500 0.918620 0.173760 -0.498458
O15   O     O_R   0.946500 0.418620 0.826240 -0.498173
O16   O     O_R   0.053500 0.418620 0.173760 -0.498458
C5    C     C_R   0.444906 0.817508 0.862231 0.536550
C6    C     C_R   0.555180 0.816814 0.137798 0.537433
C7    C     C_R   0.944905 0.317508 0.862231 0.536550
C8    C     C_R   0.055180 0.316814 0.137798 0.537433
O17   O     O_R   0.457310 0.715830 0.831280 -0.523993
O18   O     O_R   0.542690 0.715830 0.168720 -0.523269
O19   O     O_R   0.957310 0.215830 0.831280 -0.523993
O20   O     O_R   0.042690 0.215830 0.168720 -0.523269
O21   O     O_R   0.321000 0.623520 0.824130 -0.519061
O22   O     O_R   0.679000 0.623520 0.175870 -0.515870
O23   O     O_R   0.821000 0.123520 0.824130 -0.519061
O24   O     O_R   0.179000 0.123520 0.175870 -0.515870
C9    C     C_R   0.262234 0.642546 0.855073 0.538296
C10   C     C_R   0.737895 0.641617 0.145143 0.542404
C11   C     C_R   0.762234 0.142546 0.855073 0.538297
C12   C     C_R   0.237895 0.141617 0.145143 0.542404
O25   O     O_R   0.213990 0.710040 0.667000 -0.513340
O26   O     O_R   0.786010 0.710040 0.333000 -0.504102
O27   O     O_R   0.713990 0.210040 0.667000 -0.513339
O28   O     O_R   0.286010 0.210040 0.333000 -0.504102
O29   O     O_R   0.235920 0.960520 0.674260 -0.513982
O30   O     O_R   0.764080 0.960520 0.325740 -0.521285
O31   O     O_R   0.735920 0.460520 0.674260 -0.513982
O32   O     O_R   0.264080 0.460520 0.325740 -0.521284
C13   C     C_R   0.274262 0.044157 0.646377 0.540532
C14   C     C_R   0.728354 0.051278 0.350504 0.528369
C15   C     C_R   0.774261 0.544158 0.646377 0.540532
C16   C     C_R   0.228354 0.551278 0.350504 0.528369
O33   O     O_R   0.331960 0.078120 0.669410 -0.546782
O34   O     O_R   0.668040 0.078120 0.330590 -0.547736
O35   O     O_R   0.831960 0.578120 0.669410 -0.546782
O36   O     O_R   0.168040 0.578120 0.330590 -0.547736
O37   O     O_R   0.446360 0.919990 0.675230 -0.487553
O38   O     O_R   0.553640 0.919990 0.324770 -0.485438
O39   O     O_R   0.946360 0.419990 0.675230 -0.487552
O40   O     O_R   0.053640 0.419990 0.324770 -0.485438
C17   C     C_R   0.468115 0.822494 0.645590 0.556806
C18   C     C_R   0.531404 0.823539 0.354628 0.551271
C19   C     C_R   0.968115 0.322494 0.645590 0.556807
C20   C     C_R   0.031404 0.323539 0.354628 0.551271
O41   O     O_R   0.457170 0.717300 0.668380 -0.535147
O42   O     O_R   0.542830 0.717300 0.331620 -0.537797
O43   O     O_R   0.957170 0.217300 0.668380 -0.535148
O44   O     O_R   0.042830 0.217300 0.331620 -0.537797
O45   O     O_R   0.320870 0.624890 0.673130 -0.509871
O46   O     O_R   0.679130 0.624890 0.326870 -0.509602
O47   O     O_R   0.820870 0.124890 0.673130 -0.509872
O48   O     O_R   0.179130 0.124890 0.326870 -0.509601
C21   C     C_R   0.262321 0.646442 0.641315 0.550564
C22   C     C_R   0.728878 0.678648 0.363656 0.546660
C23   C     C_R   0.762321 0.146442 0.641315 0.550564
C24   C     C_R   0.228878 0.178649 0.363656 0.546660
Cr1   Cr    Cr6+3 0.229620 0.836040 0.749110 1.007397
Cr2   Cr    Cr6+3 0.770380 0.836040 0.250890 1.004904
Cr3   Cr    Cr6+3 0.729620 0.336040 0.749110 1.007397
Cr4   Cr    Cr6+3 0.270380 0.336040 0.250890 1.004905
Cr5   Cr    Cr6+3 0.387630 0.990680 0.750730 1.009364
Cr6   Cr    Cr6+3 0.612370 0.990680 0.249270 1.007027
Cr7   Cr    Cr6+3 0.887630 0.490680 0.750730 1.009364
Cr8   Cr    Cr6+3 0.112370 0.490680 0.249270 1.007027
Cr9   Cr    Cr6+3 0.386020 0.676590 0.749210 0.994976
Cr10  Cr    Cr6+3 0.613980 0.676590 0.250790 0.993295
Cr11  Cr    Cr6+3 0.886020 0.176590 0.749210 0.994974
Cr12  Cr    Cr6+3 0.113980 0.176590 0.250790 0.993296
O49   O     O_3   0.334430 0.834430 0.749680 -0.294931
O50   O     O_3   0.665570 0.834430 0.250320 -0.302915
O51   O     O_3   0.834430 0.334430 0.749680 -0.294930
O52   O     O_3   0.165570 0.334430 0.250320 -0.302915
C25   C     C_3   0.479859 0.915683 0.036086 -0.108842
C26   C     C_3   0.520807 0.915351 0.965022 -0.109802
C27   C     C_3   0.979859 0.415683 0.036086 -0.108842
C28   C     C_3   0.020807 0.415351 0.965022 -0.109802
C29   C     C_3   0.431635 0.819105 0.006106 -0.158643
C30   C     C_3   0.568357 0.817572 0.994068 -0.158617
C31   C     C_3   0.931635 0.319105 0.006106 -0.158643
C32   C     C_3   0.068357 0.317572 0.994068 -0.158617
H1    H     H_    0.376849 0.806838 0.016866 0.092015
H2    H     H_    0.623079 0.803734 0.983531 0.091580
H3    H     H_    0.876849 0.306838 0.016866 0.092015
H4    H     H_    0.123079 0.303734 0.983531 0.091580
H5    H     H_    0.464835 0.995957 0.066179 0.116919
H6    H     H_    0.536252 0.995379 0.935733 0.115995
H7    H     H_    0.964835 0.495957 0.066179 0.116919
H8    H     H_    0.036252 0.495379 0.935733 0.115995
C33   C     C_3   0.472564 0.820413 0.935897 0.057609
C34   C     C_3   0.527435 0.819435 0.064245 0.057609
C35   C     C_3   0.972564 0.320413 0.935897 0.057609
C36   C     C_3   0.027435 0.319435 0.064245 0.057609
C37   C     C_3   0.519681 0.723029 0.964329 -0.111324
C38   C     C_3   0.479685 0.723352 0.034912 -0.112850
C39   C     C_3   0.019681 0.223029 0.964329 -0.111324
C40   C     C_3   0.979685 0.223352 0.034912 -0.112850
H9    H     H_    0.535053 0.642244 0.934921 0.123515
H10   H     H_    0.463990 0.642888 0.063637 0.122597
H11   H     H_    0.035054 0.142244 0.934921 0.123515
H12   H     H_    0.963990 0.142888 0.063637 0.122597
C41   C     C_3   0.311677 0.527960 0.043372 -0.235217
C42   C     C_3   0.688343 0.528237 0.955982 -0.234896
C43   C     C_3   0.811677 0.027960 0.043372 -0.235217
C44   C     C_3   0.188343 0.028237 0.955982 -0.234896
H13   H     H_    0.316802 0.433704 0.052732 0.130242
H14   H     H_    0.683104 0.433999 0.945361 0.132103
H15   H     H_    0.816802 0.933704 0.052732 0.130242
H16   H     H_    0.183104 0.933999 0.945361 0.132103
H17   H     H_    0.353620 0.570028 0.074722 0.111339
H18   H     H_    0.646451 0.570910 0.925183 0.111013
H19   H     H_    0.853620 0.070028 0.074722 0.111339
H20   H     H_    0.146451 0.070910 0.925183 0.111013
C45   C     C_3   0.321222 0.553867 0.963202 -0.234293
C46   C     C_3   0.678754 0.553381 0.036394 -0.235576
C47   C     C_3   0.821222 0.053867 0.963202 -0.234293
C48   C     C_3   0.178754 0.053381 0.036394 -0.235576
H21   H     H_    0.365559 0.613863 0.956107 0.136278
H22   H     H_    0.634362 0.613342 0.044243 0.136152
H23   H     H_    0.865559 0.113863 0.956107 0.136278
H24   H     H_    0.134362 0.113341 0.044243 0.136152
H25   H     H_    0.333350 0.470822 0.934034 0.118714
H26   H     H_    0.666729 0.470097 0.064538 0.118276
H27   H     H_    0.833350 0.970822 0.934034 0.118714
H28   H     H_    0.166729 0.970097 0.064538 0.118276
H29   H     H_    0.665689 0.938158 0.045474 0.099663
H30   H     H_    0.334495 0.937744 0.952561 0.099299
H31   H     H_    0.165689 0.438158 0.045474 0.099663
H32   H     H_    0.834495 0.437744 0.952561 0.099299
H33   H     H_    0.708887 0.936982 0.924552 0.112286
H34   H     H_    0.291034 0.936053 0.073598 0.112057
H35   H     H_    0.208887 0.436982 0.924552 0.112286
H36   H     H_    0.791034 0.436053 0.073598 0.112057
C49   C     C_3   0.180161 0.523641 0.025296 -0.209583
C50   C     C_3   0.819969 0.523182 0.973967 -0.209673
C51   C     C_3   0.680161 0.023641 0.025296 -0.209583
C52   C     C_3   0.319969 0.023182 0.973967 -0.209673
C53   C     C_3   0.240992 0.706708 0.057289 -0.255896
C54   C     C_3   0.759275 0.706789 0.944072 -0.257115
C55   C     C_3   0.740992 0.206708 0.057289 -0.255896
C56   C     C_3   0.259275 0.206789 0.944072 -0.257115
C57   C     C_3   0.241179 0.574309 0.070194 0.065175
C58   C     C_3   0.758966 0.574547 0.929795 0.065653
C59   C     C_3   0.741179 0.074309 0.070194 0.065175
C60   C     C_3   0.258966 0.074547 0.929795 0.065653
H37   H     H_    0.195776 0.750149 0.082448 0.128349
H38   H     H_    0.804688 0.750002 0.919640 0.127755
H39   H     H_    0.695776 0.250149 0.082448 0.128349
H40   H     H_    0.304688 0.250002 0.919640 0.127755
H41   H     H_    0.287592 0.745522 0.081890 0.105285
H42   H     H_    0.712903 0.746023 0.919638 0.104806
H43   H     H_    0.787592 0.245522 0.081890 0.105285
H44   H     H_    0.212903 0.246023 0.919638 0.104806
C61   C     C_3   0.255082 0.610492 0.932211 0.053807
C62   C     C_3   0.744888 0.609627 0.067898 0.052913
C63   C     C_3   0.755082 0.110492 0.932211 0.053807
C64   C     C_3   0.244888 0.109627 0.067898 0.052913
C65   C     C_3   0.195289 0.525406 0.944477 -0.252178
C66   C     C_3   0.804729 0.524487 0.054752 -0.253329
C67   C     C_3   0.695289 0.025406 0.944477 -0.252178
C68   C     C_3   0.304729 0.024487 0.054752 -0.253329
C69   C     C_3   0.238774 0.725132 0.975453 -0.224231
C70   C     C_3   0.761142 0.724562 0.026054 -0.223210
C71   C     C_3   0.738774 0.225132 0.975453 -0.224231
C72   C     C_3   0.261142 0.224562 0.026054 -0.223210
H45   H     H_    0.273788 0.794333 0.959825 0.106605
H46   H     H_    0.725995 0.793635 0.042570 0.107257
H47   H     H_    0.773788 0.294333 0.959825 0.106604
H48   H     H_    0.225995 0.293635 0.042570 0.107257
H49   H     H_    0.185630 0.752031 0.961480 0.130880
H50   H     H_    0.814259 0.751127 0.040531 0.132295
H51   H     H_    0.685630 0.252032 0.961480 0.130880
H52   H     H_    0.314259 0.251127 0.040531 0.132295
H53   H     H_    0.633266 0.077882 0.034678 0.138348
H54   H     H_    0.366880 0.077357 0.965320 0.138183
H55   H     H_    0.133266 0.577882 0.034678 0.138348
H56   H     H_    0.866880 0.577357 0.965320 0.138183
H57   H     H_    0.148834 0.554439 0.914785 0.128657
H58   H     H_    0.851159 0.553121 0.084850 0.128581
H59   H     H_    0.648834 0.054439 0.914785 0.128657
H60   H     H_    0.351159 0.053121 0.084850 0.128581
C73   C     C_3   0.502762 0.704085 0.459911 -0.248336
C74   C     C_3   0.496614 0.702658 0.539276 -0.251000
C75   C     C_3   0.002762 0.204084 0.459911 -0.248336
C76   C     C_3   0.996614 0.202658 0.539276 -0.251000
H61   H     H_    0.544685 0.645738 0.444181 0.142109
H62   H     H_    0.454159 0.644898 0.553645 0.143264
H63   H     H_    0.044685 0.145737 0.444180 0.142109
H64   H     H_    0.954159 0.144898 0.553645 0.143263
H65   H     H_    0.457279 0.660247 0.435792 0.116753
H66   H     H_    0.542236 0.658503 0.562831 0.116529
H67   H     H_    0.957279 0.160247 0.435792 0.116753
H68   H     H_    0.042236 0.158502 0.562831 0.116528
H69   H     H_    0.612488 0.908186 0.451238 0.091997
H70   H     H_    0.384433 0.898415 0.550185 0.091660
H71   H     H_    0.112488 0.408185 0.451238 0.091997
H72   H     H_    0.884434 0.398415 0.550185 0.091661
H73   H     H_    0.601235 0.829157 0.573766 0.101900
H74   H     H_    0.397388 0.830269 0.426406 0.100491
H75   H     H_    0.101236 0.329156 0.573766 0.101901
H76   H     H_    0.897389 0.330269 0.426406 0.100492
C77   C     C_3   0.562064 0.910331 0.474660 -0.227507
C78   C     C_3   0.435286 0.905675 0.527969 -0.226025
C79   C     C_3   0.062064 0.410330 0.474660 -0.227507
C80   C     C_3   0.935287 0.405675 0.527969 -0.226025
C81   C     C_3   0.438960 0.888353 0.444987 -0.142757
C82   C     C_3   0.559296 0.887863 0.556963 -0.144183
C83   C     C_3   0.938960 0.388353 0.444987 -0.142757
C84   C     C_3   0.059297 0.387862 0.556963 -0.144183
C85   C     C_3   0.509307 0.831885 0.431017 0.050257
C86   C     C_3   0.489549 0.829379 0.569704 0.050517
C87   C     C_3   0.009307 0.331885 0.431017 0.050258
C88   C     C_3   0.989549 0.329379 0.569704 0.050518
H77   H     H_    0.449697 0.997611 0.540528 0.134379
H78   H     H_    0.545891 0.002446 0.466589 0.132921
H79   H     H_    0.949698 0.497610 0.540528 0.134377
H80   H     H_    0.045891 0.502446 0.466589 0.132919
C89   C     C_3   0.174088 0.657498 0.457472 -0.082771
C90   C     C_3   0.827717 0.651477 0.539718 -0.090719
C91   C     C_3   0.674089 0.157499 0.457472 -0.082768
C92   C     C_3   0.327717 0.151476 0.539717 -0.090726
H81   H     H_    0.133507 0.594027 0.459518 0.145848
H82   H     H_    0.862358 0.584071 0.522276 0.144573
H83   H     H_    0.633506 0.094028 0.459518 0.145849
H84   H     H_    0.362356 0.084069 0.522273 0.144570
C93   C     C_3   0.190090 0.687087 0.534475 -0.204689
C94   C     C_3   0.804990 0.704282 0.470760 -0.219575
C95   C     C_3   0.690091 0.187088 0.534475 -0.204688
C96   C     C_3   0.304990 0.204282 0.470760 -0.219578
H85   H     H_    0.201046 0.778182 0.539931 0.137518
H86   H     H_    0.789684 0.788031 0.487924 0.131790
H87   H     H_    0.701048 0.278182 0.539930 0.137517
H88   H     H_    0.289684 0.288031 0.487926 0.131796
H89   H     H_    0.143666 0.673356 0.566025 0.169573
H90   H     H_    0.849248 0.713641 0.434528 0.184408
H91   H     H_    0.643666 0.173358 0.566024 0.169576
H92   H     H_    0.349247 0.213643 0.434528 0.184404
H93   H     H_    0.716482 0.906305 0.446637 0.102815
H94   H     H_    0.280901 0.904361 0.536193 0.098390
H95   H     H_    0.216483 0.406305 0.446637 0.102815
H96   H     H_    0.780903 0.404362 0.536194 0.098390
H97   H     H_    0.693880 0.960547 0.566927 0.125972
H98   H     H_    0.300155 0.982000 0.421055 0.139022
H99   H     H_    0.193880 0.460546 0.566926 0.125972
H100  H     H_    0.800154 0.481999 0.421054 0.139022
C97   C     C_3   0.249789 0.476619 0.466246 -0.236016
C98   C     C_3   0.747487 0.478521 0.525015 -0.251630
C99   C     C_3   0.749788 0.976619 0.466246 -0.236014
C100  C     C_3   0.247486 0.978520 0.525015 -0.251631
C101  C     C_3   0.302118 0.668214 0.439094 -0.268177
C102  C     C_3   0.699608 0.667571 0.568623 -0.261911
C103  C     C_3   0.802119 0.168213 0.439094 -0.268178
C104  C     C_3   0.199608 0.167570 0.568623 -0.261910
C105  C     C_3   0.238676 0.591556 0.425108 0.068491
C106  C     C_3   0.762657 0.586777 0.573288 0.070050
C107  C     C_3   0.738676 0.091556 0.425108 0.068491
C108  C     C_3   0.262657 0.086776 0.573288 0.070050
H101  H     H_    0.346264 0.635716 0.407144 0.108253
H102  H     H_    0.656304 0.632499 0.600694 0.114992
H103  H     H_    0.846264 0.135714 0.407143 0.108252
H104  H     H_    0.156303 0.132498 0.600694 0.114992
H105  H     H_    0.291310 0.760198 0.423555 0.114526
H106  H     H_    0.712693 0.755872 0.590162 0.114638
H107  H     H_    0.791311 0.260197 0.423555 0.114525
H108  H     H_    0.212693 0.255871 0.590163 0.114638
C109  C     C_3   0.253990 0.620428 0.563563 0.040026
C110  C     C_3   0.740509 0.642464 0.439410 0.037183
C111  C     C_3   0.753990 0.120428 0.563563 0.040025
C112  C     C_3   0.240508 0.142464 0.439410 0.037184
C113  C     C_3   0.244125 0.491137 0.547659 -0.277160
C114  C     C_3   0.751173 0.510411 0.445315 -0.247092
C115  C     C_3   0.744124 0.991137 0.547659 -0.277159
C116  C     C_3   0.251173 0.010411 0.445314 -0.247090
C117  C     C_3   0.318030 0.661016 0.520619 -0.234901
C118  C     C_3   0.678855 0.673452 0.488625 -0.263701
C119  C     C_3   0.818030 0.161015 0.520619 -0.234904
C120  C     C_3   0.178855 0.173452 0.488625 -0.263701
H109  H     H_    0.337943 0.742074 0.542246 0.113659
H110  H     H_    0.657924 0.757142 0.475985 0.104936
H111  H     H_    0.837944 0.242073 0.542246 0.113659
H112  H     H_    0.157924 0.257143 0.475985 0.104936
H113  H     H_    0.357708 0.592824 0.527578 0.122642
H114  H     H_    0.639090 0.606530 0.480105 0.122794
H115  H     H_    0.857708 0.092821 0.527578 0.122647
H116  H     H_    0.139090 0.106530 0.480105 0.122792
H117  H     H_    0.303293 0.451226 0.452545 0.130926
H118  H     H_    0.694055 0.453794 0.537207 0.134924
H119  H     H_    0.803292 0.951226 0.452546 0.130923
H120  H     H_    0.194054 0.953793 0.537206 0.134927
H121  H     H_    0.284318 0.439622 0.574761 0.118540
H122  H     H_    0.709590 0.468444 0.415980 0.139020
H123  H     H_    0.784319 0.939623 0.574760 0.118542
H124  H     H_    0.209592 0.968441 0.415977 0.139017
C121  C     C_1   0.431757 0.998763 0.404475 0.145916
N1    N     N_1   0.428021 0.083561 0.370952 -0.303931
C122  C     C_1   0.565488 0.994774 0.602076 0.144238
N2    N     N_1   0.567370 0.075023 0.640458 -0.303364
C123  C     C_1   0.931757 0.498763 0.404475 0.145917
N3    N     N_1   0.928021 0.583560 0.370952 -0.303928
C124  C     C_1   0.065488 0.494773 0.602076 0.144235
N4    N     N_1   0.067370 0.575022 0.640459 -0.303362
C125  C     C_3   0.141819 0.761248 0.413625 -0.263892
C126  C     C_3   0.091784 0.844106 0.452820 -0.472889
H125  H     H_    0.038830 0.811887 0.444785 0.146889
H126  H     H_    0.099966 0.852539 0.511025 0.142706
H127  H     H_    0.093429 0.932462 0.428349 0.140449
H128  H     H_    0.182441 0.806070 0.383902 0.141659
H129  H     H_    0.108145 0.727420 0.370353 0.197729
C127  C     C_3   0.872998 0.740189 0.585245 -0.272408
C128  C     C_3   0.921789 0.816608 0.541886 -0.483905
H130  H     H_    0.950379 0.758669 0.504720 0.157974
H131  H     H_    0.894316 0.884997 0.511585 0.134833
H132  H     H_    0.958938 0.861602 0.578058 0.149263
H133  H     H_    0.840801 0.794792 0.621149 0.159925
H134  H     H_    0.909930 0.690788 0.618948 0.206632
C129  C     C_3   0.641821 0.261249 0.413625 -0.263895
C130  C     C_3   0.591784 0.344104 0.452820 -0.472890
H135  H     H_    0.538834 0.311864 0.444798 0.146892
H136  H     H_    0.599974 0.352554 0.511023 0.142700
H137  H     H_    0.593418 0.432454 0.428340 0.140453
H138  H     H_    0.682445 0.306073 0.383904 0.141657
H139  H     H_    0.608148 0.227425 0.370351 0.197730
C131  C     C_3   0.373000 0.240184 0.585244 -0.272406
C132  C     C_3   0.421784 0.316615 0.541885 -0.483913
H140  H     H_    0.450348 0.258699 0.504686 0.157972
H141  H     H_    0.394307 0.385041 0.511621 0.134830
H142  H     H_    0.458956 0.361563 0.578051 0.149268
H143  H     H_    0.340805 0.294780 0.621154 0.159937
H144  H     H_    0.409935 0.190776 0.618940 0.206630

loop_
_geom_bond_atom_site_label_1
_geom_bond_atom_site_label_2
_geom_bond_distance
_ccdc_geom_bond_type
O4    C12   1.289695 A    
H96   C98   1.085888 S    
C74   H66   1.111425 S    
C79   H80   1.105013 S    
Cr7   O51   2.057589 S    
C102  H106  1.108757 S    
C103  H103  1.109713 S    
C62   C70   1.561815 S    
C93   H85   1.062040 S    
H36   C66   1.101544 S    
C54   C58   1.525543 S    
O39   C19   1.306655 A    
C31   H3    1.095224 S    
C91   C107  1.582984 S    
C81   C85   1.534366 S    
C92   C108  1.597975 S    
C132  H141  1.102854 S    
C1    O9    1.288474 A    
O44   Cr12  2.102173 S    
C52   H54   1.115020 S    
C3    O11   1.288474 A    
C4    O12   1.287838 A    
C55   H43   1.106602 S    
C127  C128  1.527149 S    
H34   C68   1.101544 S    
C25   C34   1.528893 S    
C92   C131  1.582329 S    
C24   C112  1.494853 S    
C4    C57   1.486474 S    
C104  C120  1.550427 S    
C29   C38   1.534707 S    
O2    C10   1.289695 A    
C32   C36   1.537396 S    
C75   C76   1.489674 S    
C76   H68   1.111426 S    
C101  C117  1.557637 S    
C46   H22   1.109797 S    
C84   C88   1.532630 S    
C67   H59   1.111073 S    
C90   C106  1.597972 S    
C97   C113  1.534544 S    
O31   Cr3   2.002687 S    
C96   C112  1.550670 S    
C99   C115  1.534543 S    
O16   Cr8   1.988303 S    
C89   C125  1.571567 S    
C93   H89   1.092843 S    
C90   C127  1.582331 S    
H72   C80   1.078298 S    
C22   C110  1.494855 S    
C117  H109  1.075973 S    
O28   Cr4   2.129427 S    
C53   H37   1.112901 S    
O12   Cr8   2.118348 S    
O22   Cr10  1.981495 S    
O15   C7    1.337372 A    
C100  H120  1.102764 S    
C78   H77   1.106126 S    
O46   Cr10  1.994818 S    
H73   C82   1.100830 S    
C56   C60   1.525543 S    
O48   C24   1.332510 A    
C7    C35   1.477774 S    
H35   C65   1.102129 S    
C19   C88   1.483182 S    
C91   C95   1.508032 S    
C70   H46   1.085052 S    
C45   H21   1.109672 S    
C66   H58   1.111074 S    
C42   C58   1.554634 S    
C46   H26   1.112602 S    
C62   C66   1.533415 S    
C98   H118  1.102759 S    
C126  H127  1.107931 S    
C25   H5    1.108354 S    
Cr12  O52   2.057889 S    
C26   C33   1.527835 S    
C27   H7    1.108354 S    
C17   O41   1.291237 A    
C43   H15   1.091954 S    
C30   C37   1.533916 S    
C19   O43   1.291236 A    
C20   O44   1.298738 A    
C117  H113  1.102263 S    
O1    Cr1   2.124216 S    
Cr8   O52   2.056254 S    
C56   C72   1.545270 S    
C15   C106  1.470544 S    
O46   C22   1.332510 A    
C63   C67   1.533337 S    
O19   Cr11  2.111545 S    
C28   H8    1.108169 S    
C70   H50   1.109713 S    
H31   C49   1.083407 S    
C45   H25   1.112593 S    
C112  C120  1.553408 S    
C43   C59   1.553066 S    
C44   C60   1.554634 S    
O27   C23   1.278852 A    
C48   C64   1.550807 S    
O31   C15   1.321067 A    
C78   C86   1.575374 S    
H100  C114  1.104265 S    
O32   C16   1.325534 A    
H69   C77   1.076357 S    
C91   C129  1.571561 S    
O21   C9    1.300875 A    
C39   C40   1.534612 S    
O24   C12   1.301334 A    
C102  H102  1.112188 S    
C90   H82   1.070282 S    
O45   C21   1.308005 A    
C56   H44   1.105807 S    
C131  H143  1.106760 S    
O8    Cr4   2.008509 S    
C83   C123  1.477909 S    
C42   H14   1.093349 S    
C128  H131  1.102879 S    
C26   H6    1.108170 S    
C126  H126  1.103116 S    
C79   C84   1.563322 S    
C81   C121  1.477909 S    
C125  H128  1.096380 S    
C110  C118  1.553409 S    
O11   Cr7   2.106610 S    
C104  C108  1.535294 S    
C74   H62   1.091750 S    
C43   C47   1.542060 S    
O27   Cr3   2.113858 S    
C41   C45   1.542062 S    
C129  H138  1.096378 S    
C38   H10   1.108377 S    
C97   C105  1.536704 S    
O8    C4    1.307779 A    
H93   C99   1.090588 S    
C99   C107  1.536704 S    
H94   C100  1.085889 S    
C84   C124  1.479435 S    
C63   C71   1.561869 S    
C61   C69   1.561869 S    
C32   C39   1.533916 S    
C53   C69   1.546838 S    
C49   H55   1.114969 S    
C95   H91   1.092845 S    
O22   C10   1.301334 A    
C55   C59   1.526861 S    
C100  C116  1.538657 S    
H33   C67   1.102129 S    
C120  H112  1.063050 S    
C130  H135  1.103835 S    
C2    O10   1.287838 A    
C27   C28   1.551868 S    
C129  H139  1.106839 S    
C1    C60   1.481574 S    
C55   H39   1.112901 S    
C127  H133  1.106755 S    
Cr2   O50   2.040512 S    
C51   C59   1.560703 S    
O5    C1    1.305472 A    
C77   H78   1.105013 S    
O25   C21   1.278852 A    
O3    C11   1.290017 A    
C48   H24   1.109797 S    
C104  H104  1.112189 S    
C12   C64   1.493613 S    
C102  C118  1.550426 S    
Cr1   O49   2.040485 S    
C90   C94   1.492500 S    
Cr3   O51   2.040485 S    
C98   C114  1.538655 S    
C29   H1    1.095224 S    
C40   H12   1.108378 S    
C78   C81   1.564727 S    
O26   Cr2   2.129427 S    
C101  H101  1.109713 S    
C33   C37   1.534624 S    
O29   C13   1.321066 A    
O28   C24   1.304238 A    
C80   H79   1.106125 S    
C53   H41   1.106602 S    
C118  H110  1.063052 S    
C35   C39   1.534624 S    
C54   H38   1.112949 S    
C8    O20   1.313096 A    
C47   C63   1.551849 S    
H71   C79   1.076358 S    
O40   Cr8   1.994084 S    
C23   C111  1.490063 S    
O41   Cr9   2.107822 S    
C49   C57   1.560703 S    
C69   H45   1.084073 S    
C32   H4    1.095001 S    
O33   Cr5   2.118416 S    
C25   C29   1.546407 S    
C73   C74   1.489674 S    
O35   Cr7   2.118416 S    
C47   H27   1.112594 S    
O29   Cr1   2.002687 S    
C74   C86   1.551598 S    
C132  H142  1.111234 S    
C100  C108  1.549232 S    
C61   C65   1.533337 S    
C41   H17   1.110326 S    
C80   C83   1.564725 S    
Cr9   O49   2.056208 S    
C64   C68   1.533415 S    
C77   C85   1.581890 S    
C43   H19   1.110327 S    
C18   O42   1.298739 A    
C13   C108  1.470544 S    
Cr11  O51   2.056208 S    
O26   C22   1.304236 A    
O20   Cr12  2.116000 S    
C11   C63   1.497609 S    
C73   H65   1.109484 S    
C118  H114  1.096551 S    
C130  H137  1.107933 S    
C9    C61   1.497609 S    
H75   C84   1.100831 S    
C113  H121  1.101714 S    
O47   Cr11  1.989033 S    
C94   H86   1.046180 S    
C16   O36   1.268474 A    
C31   C40   1.534707 S    
C34   C38   1.532561 S    
C71   H51   1.109639 S    
C30   H2    1.095001 S    
C69   H49   1.109639 S    
C80   C88   1.575373 S    
C76   C88   1.551597 S    
H30   C52   1.085671 S    
C101  C105  1.533114 S    
C5    O17   1.311779 A    
C72   H52   1.109713 S    
C103  C107  1.533115 S    
C72   H48   1.085052 S    
O6    Cr2   2.008509 S    
C8    C36   1.476780 S    
C64   C72   1.561815 S    
O42   Cr10  2.102173 S    
C124  N4    1.157357 T    
O18   Cr10  2.116000 S    
O14   C6    1.334972 A    
C75   H63   1.091106 S    
O34   Cr6   2.108330 S    
C55   C71   1.546838 S    
C26   C30   1.546943 S    
C109  C113  1.510316 S    
O24   Cr12  1.981495 S    
O30   Cr2   1.987268 S    
C51   C67   1.541081 S    
C111  C115  1.510313 S    
O48   Cr12  1.994818 S    
C112  C116  1.520789 S    
O37   C17   1.306655 A    
C15   O35   1.261633 A    
C111  C119  1.557339 S    
Cr10  O50   2.057889 S    
O40   C20   1.309301 A    
O43   Cr11  2.107822 S    
C94   H90   1.103495 S    
O37   Cr5   1.984490 S    
C129  C130  1.538288 S    
O21   Cr9   1.988729 S    
C42   C46   1.540542 S    
H74   C81   1.099015 S    
C98   C106  1.549228 S    
O39   Cr7   1.984490 S    
O45   Cr9   1.989033 S    
C132  H140  1.105342 S    
C13   O33   1.261634 A    
O13   Cr5   1.996388 S    
O15   Cr7   1.996388 S    
C18   C85   1.495544 S    
C31   C35   1.538168 S    
C95   H87   1.062040 S    
C54   C70   1.545270 S    
O9    Cr5   2.106610 S    
O30   C14   1.325533 A    
O23   C11   1.300875 A    
C120  H116  1.096549 S    
C77   C82   1.563320 S    
C50   C58   1.560204 S    
C91   H83   1.071615 S    
C27   C36   1.528893 S    
C115  H123  1.101707 S    
O6    C2    1.307779 A    
C44   H20   1.110464 S    
C48   H28   1.112602 S    
C104  H108  1.108756 S    
C89   H81   1.071614 S    
C103  C119  1.557637 S    
H76   C83   1.099014 S    
C37   C38   1.534612 S    
C101  H105  1.107741 S    
C123  N3    1.156440 T    
C46   C62   1.550807 S    
C131  H144  1.109877 S    
C103  H107  1.107740 S    
O47   C23   1.308007 A    
C53   C57   1.526861 S    
C128  H130  1.105372 S    
O13   C5    1.337372 A    
C36   C40   1.532561 S    
C6    O18   1.313096 A    
C54   H42   1.105807 S    
C79   C87   1.581889 S    
C25   C26   1.551868 S    
O36   Cr8   2.108330 S    
C75   C87   1.560060 S    
C2    C59   1.486474 S    
C5    C33   1.477773 S    
C3    C58   1.481574 S    
O38   Cr6   1.994084 S    
C73   C85   1.560059 S    
C122  N2    1.157354 T    
C52   C60   1.560204 S    
C14   C107  1.478360 S    
C119  H111  1.075974 S    
C28   C32   1.546943 S    
O1    C9    1.290017 A    
C121  N1    1.156440 T    
O7    C3    1.305472 A    
C45   C61   1.551849 S    
C130  H136  1.103109 S    
C47   H23   1.109671 S    
C89   C105  1.582989 S    
C82   C122  1.479435 S    
C82   C86   1.532631 S    
C127  H134  1.109874 S    
H97   C115  1.101078 S    
O23   Cr11  1.988729 S    
H98   C116  1.104264 S    
H99   C113  1.101078 S    
C41   H13   1.091954 S    
C95   C111  1.555215 S    
C116  H124  1.085393 S    
O16   C8    1.334972 A    
H32   C50   1.085671 S    
C73   H61   1.091105 S    
C7    O19   1.311780 A    
C119  H115  1.102268 S    
Cr4   O52   2.040512 S    
C10   C62   1.493613 S    
C37   H9    1.108596 S    
C29   C33   1.538168 S    
Cr6   O50   2.056254 S    
C114  H122  1.085393 S    
O5    Cr1   1.993352 S    
C50   H56   1.115020 S    
C71   H47   1.084073 S    
C21   C109  1.490062 S    
C41   C57   1.553065 S    
H95   C97   1.090589 S    
C102  C106  1.535296 S    
O7    Cr3   1.993352 S    
C94   C110  1.550673 S    
C6    C34   1.476780 S    
C97   H117  1.110839 S    
C92   H84   1.070282 S    
C99   H119  1.110836 S    
C128  H132  1.111255 S    
C126  H125  1.103844 S    
C76   H64   1.091749 S    
C125  H129  1.106837 S    
C28   C35   1.527835 S    
C96   H88   1.046182 S    
C75   H67   1.109482 S    
C83   C87   1.534366 S    
C68   H60   1.111074 S    
C17   C86   1.483180 S    
C89   C93   1.508033 S    
O14   Cr6   1.988303 S    
C50   C66   1.540540 S    
C16   C105  1.478362 S    
C110  C114  1.520783 S    
O3    Cr3   2.124216 S    
H29   C51   1.083407 S    
O38   C18   1.309301 A    
O25   Cr1   2.113858 S    
C30   C34   1.537396 S    
C96   H92   1.103493 S    
C44   C48   1.540542 S    
C93   C109  1.555216 S    
O17   Cr9   2.111545 S    
O2    Cr2   2.107947 S    
C14   O34   1.268475 A    
H70   C78   1.078299 S    
C20   C87   1.495544 S    
C92   C96   1.492497 S    
C65   H57   1.111073 S    
C49   C65   1.541081 S    
O10   Cr6   2.118348 S    
C125  C126  1.538296 S    
O4    Cr4   2.107947 S    
Cr5   O49   2.057589 S    
C52   C68   1.540540 S    
C51   H53   1.114969 S    
C56   H40   1.112949 S    
C27   C31   1.546407 S    
C131  C132  1.527150 S    
C39   H11   1.108596 S    
C42   H18   1.110464 S    
O32   Cr4   1.987268 S    
C44   H16   1.093349 S    
C109  C117  1.557338 S    
