data_mof_unit_50451.cif
_audit_creation_date              2012-12-10T18:00:45-0500
_audit_creation_method            fapswitch 2.2
_symmetry_space_group_name_H-M    P1
_symmetry_Int_Tables_number       1
_space_group_crystal_system       triclinic
_cell_length_a                    15.853312
_cell_length_b                    10.782925
_cell_length_c                    9.52897
_cell_angle_alpha                 90.103669
_cell_angle_beta                  89.911908
_cell_angle_gamma                 89.661936
_cell_volume                      1628.89751148

loop_
_atom_site_label
_atom_site_type_symbol
_atom_type_description
_atom_site_fract_x
_atom_site_fract_y
_atom_site_fract_z
_atom_type_partial_charge
C1    C     C_R   0.501971 0.262488 0.499768 0.924630
C2    C     C_R   0.497068 0.737459 0.500152 1.005607
C3    C     C_R   0.422165 0.937495 0.464908 0.286691
C4    C     C_R   0.574643 0.061552 0.528753 0.325104
C5    C     C_R   0.496085 0.871441 0.500438 -0.321246
C6    C     C_R   0.499997 0.128490 0.499333 -0.345516
C7    C     C_R   0.446262 0.425521 0.074337 0.018381
C8    C     C_R   0.553705 0.574533 0.925670 0.004780
C9    C     C_R   0.446284 0.425551 0.925586 0.006040
C10   C     C_R   0.553681 0.574501 0.074421 -0.002742
C11   C     C_R   0.339769 0.498721 0.500039 0.857015
C12   C     C_R   0.660218 0.501884 0.499992 0.917435
C13   C     C_3   0.971604 0.386713 0.531166 -0.132497
C14   C     C_3   0.028362 0.614345 0.468766 -0.112819
C15   C     C_3   0.027959 0.418943 0.403603 -0.155105
C16   C     C_3   0.972011 0.582115 0.596333 -0.143471
C17   C     C_1   0.249973 0.498181 0.500123 -0.065761
C18   C     C_1   0.750007 0.502760 0.499962 -0.109238
C19   C     C_3   0.027803 0.467106 0.627601 -0.156571
C20   C     C_3   0.972161 0.533949 0.372335 -0.161931
C21   C     C_3   0.082617 0.499353 0.500035 0.156533
C22   C     C_3   0.917353 0.501710 0.499906 0.161463
C23   C     C_1   0.174356 0.498417 0.500098 -0.015620
C24   C     C_1   0.825622 0.502638 0.499930 -0.041895
C25   C     C_R   0.423265 0.067297 0.469096 0.283746
C26   C     C_R   0.570319 0.932022 0.539381 0.253805
Cu1   Cu    Cu3+1 0.500000 0.500020 0.640660 1.019284
Cu2   Cu    Cu3+1 0.500000 0.499980 0.359340 1.022637
H1    H     H_    0.052299 0.351936 0.324542 0.157658
H2    H     H_    0.947669 0.649120 0.675395 0.156025
H3    H     H_    0.946848 0.293330 0.556736 0.170199
H4    H     H_    0.053099 0.707732 0.443162 0.177099
H5    H     H_    0.947945 0.561418 0.267582 0.150964
H6    H     H_    0.052013 0.439631 0.732356 0.150226
H7    H     H_    0.403273 0.365691 0.130286 0.132342
H8    H     H_    0.596672 0.634405 0.869730 0.136716
H9    H     H_    0.403301 0.365752 0.869572 0.125890
H10   H     H_    0.596640 0.634333 0.130438 0.130155
N1    N     N_R   0.500020 0.500030 0.852070 -0.167526
N2    N     N_R   0.499980 0.499970 0.147930 -0.164300
O1    O     O_R   0.500000 0.319660 0.618740 -0.577042
O2    O     O_R   0.500000 0.680340 0.381260 -0.575906
O3    O     O_R   0.499990 0.319630 0.381170 -0.563153
O4    O     O_R   0.500010 0.680370 0.618830 -0.570177
O5    O     O_R   0.379080 0.500000 0.618760 -0.592198
O6    O     O_R   0.620920 0.500000 0.381240 -0.577807
O7    O     O_R   0.379080 0.499970 0.381190 -0.560875
O8    O     O_R   0.620920 0.500030 0.618810 -0.560870
O9    O     O_3   0.349008 0.130998 0.441720 -0.657343
H11   H     H_    0.353666 0.219183 0.468642 0.298350
O10   O     O_3   0.637732 0.861471 0.585037 -0.699695
H12   H     H_    0.663743 0.906113 0.664836 0.366318
S1    S     S_3+6 0.326847 0.856794 0.426717 0.045197
O11   O     O_2   0.303839 0.779860 0.552156 -0.296743
O12   O     O_2   0.254391 0.942562 0.394465 -0.202045
O13   O     O_3   0.341840 0.762184 0.288413 -0.512122
H13   H     H_    0.363095 0.816643 0.212768 0.343726
S2    S     S_3+6 0.673797 0.138906 0.534772 0.002909
O14   O     O_2   0.678530 0.215819 0.666145 -0.290539
O15   O     O_2   0.746882 0.049421 0.531114 -0.275795
O16   O     O_3   0.681037 0.232227 0.394155 -0.542832
H14   H     H_    0.741988 0.249824 0.383965 0.364455

loop_
_geom_bond_atom_site_label_1
_geom_bond_atom_site_label_2
_ccdc_geom_bond_type
Cu1   O8    S    
C4    C26   A    
C7    N2    A    
C22   C24   S    
Cu2   O7    S    
C8    N1    A    
Cu1   O1    S    
Cu2   O3    S    
C11   O7    A    
O16   H14   S    
C10   H10   S    
C12   O8    A    
C7    C9    A    
Cu1   O5    S    
S2    O16   S    
C13   C15   S    
C19   H6    S    
O10   H12   S    
S1    O11   D    
C3    S1    S    
Cu2   O6    S    
C17   C23   T    
C2    O2    A    
C16   C19   S    
C18   C24   T    
C20   H5    S    
C14   C21   S    
Cu2   O2    S    
C19   C21   S    
C20   C22   S    
C13   C22   S    
C15   H1    S    
S2    O15   D    
C25   O9    S    
S1    O12   D    
C21   C23   S    
C15   C20   S    
C13   H3    S    
C14   C16   S    
C11   O5    A    
C6    C25   A    
C13   C19   S    
C16   H2    S    
Cu1   N1    S    
C5    C26   A    
C2    C5    S    
C14   C20   S    
C15   C21   S    
C3    C25   A    
C14   H4    S    
O13   H13   S    
C9    N1    A    
C12   O6    A    
C4    C6    A    
C8    H8    S    
S1    O13   S    
C1    O1    A    
Cu1   Cu2   S    
O9    H11   S    
Cu2   N2    S    
C11   C17   S    
C10   N2    A    
C16   C22   S    
C4    S2    S    
S2    O14   D    
C26   O10   S    
C7    H7    S    
Cu1   O4    S    
C1    O3    A    
C8    C10   A    
C1    C6    S    
C2    O4    A    
C3    C5    A    
C9    H9    S    
C12   C18   S    
