data_mof_unit_65706.cif
_audit_creation_date              2012-12-10T18:13:01-0500
_audit_creation_method            fapswitch 2.2
_symmetry_space_group_name_H-M    P1
_symmetry_Int_Tables_number       1
_space_group_crystal_system       triclinic
_cell_length_a                    38.706222
_cell_length_b                    32.222464
_cell_length_c                    21.852829
_cell_angle_alpha                 89.990205
_cell_angle_beta                  123.571012
_cell_angle_gamma                 90.058532
_cell_volume                      22708.9348793

loop_
_atom_site_label
_atom_site_type_symbol
_atom_type_description
_atom_site_fract_x
_atom_site_fract_y
_atom_site_fract_z
_atom_type_partial_charge
C1    C     C_R   0.920443 0.999989 0.420234 0.823642
C2    C     C_R   0.079557 0.000031 0.579830 0.824363
C3    C     C_R   0.420443 0.499989 0.420237 0.823655
C4    C     C_R   0.579557 0.500031 0.579833 0.824387
C5    C     C_R   0.995587 0.998799 0.681538 -0.150214
C6    C     C_R   0.004392 0.998882 0.318418 -0.150646
C7    C     C_R   0.495587 0.498797 0.681537 -0.150195
C8    C     C_R   0.504391 0.498880 0.318417 -0.150636
C9    C     C_R   0.025203 0.023649 0.741448 0.186666
C10   C     C_R   0.974855 0.023765 0.258575 0.186781
C11   C     C_R   0.525213 0.523636 0.741455 0.186647
C12   C     C_R   0.474843 0.523751 0.258565 0.186764
C13   C     C_R   0.025945 0.024400 0.806306 0.152646
C14   C     C_R   0.974126 0.024518 0.193721 0.152651
C15   C     C_R   0.525958 0.524384 0.806316 0.152582
C16   C     C_R   0.474110 0.524503 0.193708 0.152587
C17   C     C_R   0.001151 0.996461 0.815022 -0.149821
C18   C     C_R   0.998774 0.996495 0.184892 -0.149899
C19   C     C_R   0.501151 0.496457 0.815021 -0.149824
C20   C     C_R   0.498772 0.496492 0.184891 -0.149905
C21   C     C_R   0.727982 0.961870 0.222412 0.139184
C22   C     C_R   0.272054 0.962397 0.778135 0.151358
C23   C     C_R   0.227985 0.461869 0.222386 0.139180
C24   C     C_R   0.772059 0.462400 0.778074 0.151360
C25   C     C_R   0.706139 0.999695 0.205766 -0.003898
C26   C     C_R   0.293829 0.000319 0.797148 0.020496
C27   C     C_R   0.206141 0.499691 0.205796 -0.003932
C28   C     C_R   0.793830 0.500326 0.797171 0.020501
C29   C     C_R   0.727749 0.037301 0.235105 0.188959
C30   C     C_R   0.272239 0.038200 0.771937 0.169741
C31   C     C_R   0.227748 0.537289 0.235210 0.188942
C32   C     C_R   0.772238 0.538210 0.772060 0.169747
C33   C     C_R   0.771501 0.037169 0.280576 -0.133605
C34   C     C_R   0.228468 0.038120 0.726883 -0.131719
C35   C     C_R   0.271500 0.537157 0.280686 -0.133592
C36   C     C_R   0.728466 0.538129 0.727011 -0.131718
C37   C     C_R   0.793465 0.999539 0.296555 -0.033592
C38   C     C_R   0.206522 0.000267 0.707074 -0.016521
C39   C     C_R   0.293466 0.499532 0.296602 -0.033582
C40   C     C_R   0.706523 0.500272 0.707112 -0.016503
C41   C     C_R   0.771779 0.961715 0.268534 0.234649
C42   C     C_R   0.228175 0.962336 0.731934 0.194255
C43   C     C_R   0.271782 0.461712 0.268527 0.234693
C44   C     C_R   0.728179 0.462339 0.731886 0.194231
C45   C     C_R   0.996467 0.999777 0.615356 0.893707
C46   C     C_R   0.003500 0.999799 0.384600 0.893871
C47   C     C_R   0.496465 0.499777 0.615354 0.893722
C48   C     C_R   0.503501 0.499799 0.384601 0.893908
C49   C     C_1   0.661236 0.999889 0.160164 0.022484
C50   C     C_1   0.338749 0.000273 0.840843 0.066167
C51   C     C_1   0.161237 0.499886 0.160179 0.022481
C52   C     C_1   0.838750 0.500282 0.840853 0.066168
C53   C     C_1   0.838472 0.999762 0.339895 0.026278
C54   C     C_1   0.161519 0.000146 0.662116 0.032012
C55   C     C_1   0.338473 0.499760 0.339926 0.026247
C56   C     C_1   0.661519 0.500147 0.662143 0.032006
C57   C     C_1   0.875898 0.999918 0.376315 -0.189333
C58   C     C_1   0.124098 0.000081 0.624598 -0.189010
C59   C     C_1   0.375898 0.499918 0.376332 -0.189359
C60   C     C_1   0.624099 0.500081 0.624613 -0.189042
C61   C     C_1   0.623827 0.999981 0.122722 -0.175794
C62   C     C_1   0.376165 0.000168 0.877449 -0.167280
C63   C     C_1   0.123828 0.499980 0.122727 -0.175766
C64   C     C_1   0.876165 0.500175 0.877453 -0.167283
C65   C     C_1   0.500062 0.876215 0.000145 -0.180984
C66   C     C_1   0.000066 0.376215 0.000147 -0.180991
C67   C     C_R   0.999978 0.920477 0.999969 0.877748
C68   C     C_R   0.499978 0.420478 0.999970 0.877752
C69   C     C_R   0.000353 0.999389 0.881243 0.920954
C70   C     C_R   0.999635 0.999412 0.118741 0.920997
C71   C     C_R   0.500352 0.499387 0.881242 0.920905
C72   C     C_R   0.499634 0.499412 0.118741 0.920945
C73   C     C_R   0.000023 0.079536 0.000036 0.828278
C74   C     C_R   0.500024 0.579536 0.000036 0.828242
C75   C     C_R   0.500008 0.920751 0.000020 0.816478
C76   C     C_R   0.000008 0.420751 0.000021 0.816489
C77   C     C_R   0.579304 0.000012 0.078894 0.813863
C78   C     C_R   0.420693 0.000035 0.921112 0.813653
C79   C     C_R   0.079305 0.500012 0.078895 0.813851
C80   C     C_R   0.920693 0.500037 0.921112 0.813659
C81   C     C_1   0.000088 0.124068 0.000188 -0.175702
C82   C     C_1   0.500090 0.624069 0.000193 -0.175738
C83   C     C_R   0.499997 0.079361 0.999995 0.820038
C84   C     C_R   0.999996 0.579360 0.999994 0.820034
C85   C     C_R   0.465087 0.228083 0.943561 0.164367
C86   C     C_R   0.534697 0.228178 0.056478 0.164506
C87   C     C_R   0.965069 0.728082 0.943579 0.164361
C88   C     C_R   0.034702 0.728180 0.056441 0.164498
C89   C     C_R   0.499906 0.206279 0.000010 -0.058469
C90   C     C_R   0.999901 0.706279 0.000003 -0.058449
C91   C     C_R   0.034788 0.771974 0.056140 0.184025
C92   C     C_R   0.964962 0.771878 0.943823 0.184152
C93   C     C_R   0.534787 0.271973 0.056173 0.184018
C94   C     C_R   0.464981 0.271879 0.943805 0.184149
C95   C     C_R   0.999875 0.793649 0.999960 -0.040777
C96   C     C_R   0.499885 0.293649 0.999968 -0.040769
C97   C     C_1   0.499939 0.161338 0.999988 -0.018536
C98   C     C_1   0.999936 0.661338 0.999983 -0.018529
C99   C     C_1   0.999884 0.838533 0.999930 0.071574
C100  C     C_1   0.499893 0.338533 0.999938 0.071562
C101  C     C_1   0.999920 0.875934 0.999938 -0.221791
C102  C     C_1   0.499924 0.375934 0.999943 -0.221805
C103  C     C_1   0.499969 0.123904 0.999977 -0.179792
C104  C     C_1   0.999967 0.623904 0.999974 -0.179795
C105  C     C_R   0.468360 0.771954 0.999857 0.165816
C106  C     C_R   0.532133 0.772054 0.001581 0.166772
C107  C     C_R   0.968777 0.271955 0.001179 0.165828
C108  C     C_R   0.031728 0.272051 0.000259 0.166741
C109  C     C_R   0.933596 0.949768 0.628701 0.201861
C110  C     C_R   0.066364 0.950000 0.371118 0.202692
C111  C     C_R   0.433586 0.449780 0.628687 0.201836
C112  C     C_R   0.566376 0.450016 0.371128 0.202672
C113  C     C_R   0.500208 0.793850 0.000610 -0.059318
C114  C     C_R   0.000213 0.293849 0.000607 -0.059353
C115  C     C_R   0.031816 0.228255 0.000501 0.190906
C116  C     C_R   0.968671 0.228158 0.000831 0.191164
C117  C     C_R   0.532222 0.728258 0.001830 0.190852
C118  C     C_R   0.468260 0.728157 0.999508 0.191143
C119  C     C_R   0.000212 0.206441 0.000553 -0.049091
C120  C     C_R   0.500214 0.706442 0.000564 -0.049120
C121  C     C_1   0.500124 0.838785 0.000352 -0.017718
C122  C     C_1   0.000130 0.338785 0.000352 -0.017746
C123  C     C_1   0.000154 0.161501 0.000357 0.079167
C124  C     C_1   0.500159 0.661502 0.000367 0.079146
C125  C     C_R   0.906320 0.927404 0.640470 0.194610
C126  C     C_R   0.093443 0.927528 0.359062 0.191789
C127  C     C_R   0.406301 0.427424 0.640447 0.194627
C128  C     C_R   0.593462 0.427554 0.359079 0.191774
C129  C     C_R   0.918770 0.917638 0.712297 -0.123801
C130  C     C_R   0.080709 0.917462 0.287198 -0.123359
C131  C     C_R   0.418745 0.417659 0.712271 -0.123805
C132  C     C_R   0.580731 0.417484 0.287218 -0.123353
C133  C     C_R   0.955606 0.934836 0.771310 0.216006
C134  C     C_R   0.043891 0.934666 0.228294 0.216035
C135  C     C_R   0.455585 0.434848 0.771290 0.216017
C136  C     C_R   0.543908 0.434677 0.228310 0.216047
C137  C     C_R   0.974657 0.968244 0.758348 -0.045260
C138  C     C_R   0.025074 0.968187 0.241407 -0.045132
C139  C     C_R   0.474646 0.468249 0.758337 -0.045253
C140  C     C_R   0.525081 0.468192 0.241414 -0.045129
C141  C     C_R   0.967868 0.972360 0.688016 -0.094229
C142  C     C_R   0.032009 0.972425 0.311823 -0.094244
C143  C     C_R   0.467861 0.472366 0.688007 -0.094240
C144  C     C_R   0.532015 0.472432 0.311828 -0.094248
Cu1   Cu    Cu3+1 0.000000 0.041020 0.500000 0.988920
Cu2   Cu    Cu3+1 0.500000 0.541020 0.500000 0.988888
Cu3   Cu    Cu3+1 0.000000 0.958990 0.500000 0.907647
Cu4   Cu    Cu3+1 0.500000 0.458990 0.500000 0.907645
Cu5   Cu    Cu3+1 0.041020 0.999990 0.040980 0.953444
Cu6   Cu    Cu3+1 0.958980 0.999990 0.959020 0.953704
Cu7   Cu    Cu3+1 0.541020 0.499990 0.040980 0.953406
Cu8   Cu    Cu3+1 0.458980 0.499990 0.959020 0.953663
Cu9   Cu    Cu3+1 0.500000 0.000050 0.061780 0.957106
Cu10  Cu    Cu3+1 0.500000 0.000050 0.938220 0.960318
Cu11  Cu    Cu3+1 0.000000 0.500050 0.061780 0.957113
Cu12  Cu    Cu3+1 0.000000 0.500050 0.938220 0.960322
O1    O     O_R   0.940150 0.034640 0.440170 -0.569725
O2    O     O_R   0.059850 0.034640 0.559830 -0.570366
O3    O     O_R   0.440150 0.534640 0.440170 -0.569724
O4    O     O_R   0.559850 0.534640 0.559830 -0.570366
O5    O     O_R   0.559850 0.000040 0.111990 -0.576443
O6    O     O_R   0.440150 0.000040 0.888010 -0.574231
O7    O     O_R   0.059850 0.500040 0.111990 -0.576430
O8    O     O_R   0.940150 0.500040 0.888010 -0.574224
O9    O     O_R   0.559860 0.999970 0.007620 -0.582232
O10   O     O_R   0.440140 0.999970 0.992380 -0.583451
O11   O     O_R   0.059860 0.499970 0.007620 -0.582235
O12   O     O_R   0.940140 0.499970 0.992380 -0.583454
O13   O     O_R   0.499990 0.059890 0.052110 -0.579123
O14   O     O_R   0.500010 0.059890 0.947890 -0.579301
O15   O     O_R   0.999990 0.559890 0.052110 -0.579121
O16   O     O_R   0.000010 0.559890 0.947890 -0.579304
O17   O     O_R   0.940160 0.965370 0.440130 -0.590826
O18   O     O_R   0.059840 0.965370 0.559870 -0.589464
O19   O     O_R   0.440160 0.465370 0.440130 -0.590830
O20   O     O_R   0.559840 0.465370 0.559870 -0.589457
O21   O     O_R   0.999990 0.034640 0.590170 -0.563607
O22   O     O_R   0.000010 0.034640 0.409830 -0.563709
O23   O     O_R   0.499990 0.534640 0.590170 -0.563624
O24   O     O_R   0.500010 0.534640 0.409830 -0.563736
O25   O     O_R   0.000000 0.965370 0.590130 -0.578381
O26   O     O_R   0.000000 0.965370 0.409870 -0.579824
O27   O     O_R   0.500000 0.465370 0.590130 -0.578380
O28   O     O_R   0.500000 0.465370 0.409870 -0.579834
O29   O     O_R   0.034640 0.940150 0.034570 -0.583751
O30   O     O_R   0.965360 0.940150 0.965430 -0.583662
O31   O     O_R   0.534640 0.440150 0.034570 -0.583758
O32   O     O_R   0.465360 0.440150 0.965430 -0.583673
O33   O     O_R   0.034650 0.999990 0.944440 -0.570209
O34   O     O_R   0.965350 0.999990 0.055560 -0.570200
O35   O     O_R   0.534650 0.499990 0.944440 -0.570181
O36   O     O_R   0.465350 0.499990 0.055560 -0.570169
O37   O     O_R   0.965370 0.000000 0.875180 -0.592038
O38   O     O_R   0.034630 0.000000 0.124820 -0.592158
O39   O     O_R   0.465370 0.500000 0.875180 -0.592059
O40   O     O_R   0.534630 0.500000 0.124820 -0.592181
O41   O     O_R   0.034640 0.059840 0.034640 -0.586610
O42   O     O_R   0.965360 0.059840 0.965360 -0.586616
O43   O     O_R   0.534640 0.559840 0.034640 -0.586605
O44   O     O_R   0.465360 0.559840 0.965360 -0.586615
O45   O     O_R   0.500010 0.940200 0.052220 -0.580372
O46   O     O_R   0.499990 0.940200 0.947780 -0.578811
O47   O     O_R   0.000010 0.440200 0.052220 -0.580380
O48   O     O_R   0.999990 0.440200 0.947780 -0.578812
N1    N     N_2   0.054773 0.047308 0.736342 -0.406103
H1    H     H_    0.062479 0.075793 0.761984 0.254990
C145  C     C_3   0.090639 0.024043 0.751241 -0.646775
H2    H     H_    0.109258 0.013565 0.809261 0.214279
H3    H     H_    0.110324 0.043998 0.740954 0.226936
H4    H     H_    0.081093 0.996427 0.715013 0.219966
N2    N     N_2   0.945363 0.047454 0.263742 -0.406474
H5    H     H_    0.937742 0.075942 0.238159 0.254578
C146  C     C_3   0.909426 0.024221 0.248790 -0.646080
H6    H     H_    0.890766 0.013774 0.190734 0.214525
H7    H     H_    0.889814 0.044188 0.259162 0.226288
H8    H     H_    0.918885 0.996590 0.284933 0.220210
N3    N     N_2   0.554790 0.547284 0.736355 -0.406116
H9    H     H_    0.562507 0.575766 0.762008 0.254988
C147  C     C_3   0.590647 0.524006 0.751241 -0.646762
H10   H     H_    0.609263 0.513520 0.809256 0.214277
H11   H     H_    0.610338 0.543955 0.740961 0.226949
H12   H     H_    0.581090 0.496394 0.715001 0.219971
N4    N     N_2   0.445342 0.547428 0.263727 -0.406495
H13   H     H_    0.437708 0.575912 0.238130 0.254564
C148  C     C_3   0.409415 0.524180 0.248791 -0.646087
H14   H     H_    0.390758 0.513724 0.190740 0.214527
H15   H     H_    0.389796 0.544140 0.259155 0.226269
H16   H     H_    0.418887 0.496553 0.284948 0.220228
C149  C     C_1   0.793872 0.075928 0.309224 0.254014
N5    N     N_1   0.811754 0.106873 0.332093 -0.288248
C150  C     C_1   0.206078 0.077032 0.702116 0.252526
N6    N     N_1   0.188176 0.108103 0.682347 -0.288523
C151  C     C_1   0.293869 0.575911 0.309404 0.254020
N7    N     N_1   0.311749 0.606852 0.332327 -0.288264
C152  C     C_1   0.706072 0.577043 0.702345 0.252515
N8    N     N_1   0.688167 0.608114 0.682656 -0.288540
N9    N     N_2   0.930289 0.794153 0.885990 -0.404834
H17   H     H_    0.913596 0.779686 0.835496 0.287438
C153  C     C_3   0.905004 0.816371 0.905216 -0.643395
H18   H     H_    0.873327 0.802832 0.875575 0.216391
H19   H     H_    0.902657 0.849369 0.888822 0.246167
H20   H     H_    0.918277 0.815088 0.965169 0.213513
N10   N     N_2   0.069450 0.794347 0.113943 -0.404522
H21   H     H_    0.086134 0.779942 0.164467 0.287773
C154  C     C_3   0.094745 0.816593 0.094693 -0.643721
H22   H     H_    0.126445 0.803174 0.124480 0.216213
H23   H     H_    0.097026 0.849622 0.110894 0.246268
H24   H     H_    0.081522 0.815183 0.034764 0.213318
N11   N     N_2   0.430320 0.294156 0.885951 -0.404865
H25   H     H_    0.413640 0.279689 0.835456 0.287425
C155  C     C_3   0.405019 0.316376 0.905138 -0.643378
H26   H     H_    0.373333 0.302853 0.875438 0.216405
H27   H     H_    0.402698 0.349379 0.888784 0.246167
H28   H     H_    0.418260 0.315074 0.965078 0.213506
N12   N     N_2   0.569440 0.294345 0.114000 -0.404548
H29   H     H_    0.586108 0.279940 0.164526 0.287762
C156  C     C_3   0.594756 0.316586 0.094794 -0.643688
H30   H     H_    0.626464 0.303180 0.124644 0.216228
H31   H     H_    0.597014 0.349621 0.110951 0.246267
H32   H     H_    0.581567 0.315156 0.034879 0.213315
N13   N     N_2   0.429849 0.206278 0.886232 -0.425331
H33   H     H_    0.436924 0.180643 0.866929 0.262203
C157  C     C_3   0.398537 0.197560 0.901181 -0.675041
H34   H     H_    0.410836 0.175740 0.948173 0.224166
H35   H     H_    0.371152 0.183133 0.852055 0.225761
H36   H     H_    0.388385 0.226632 0.913984 0.241801
N14   N     N_2   0.569900 0.206472 0.113939 -0.425123
H37   H     H_    0.562792 0.180812 0.133183 0.262355
C158  C     C_3   0.601331 0.197865 0.099278 -0.675657
H38   H     H_    0.589174 0.175930 0.052449 0.224452
H39   H     H_    0.628712 0.183627 0.148589 0.224639
H40   H     H_    0.611443 0.226957 0.086377 0.241869
N15   N     N_2   0.929825 0.706275 0.886269 -0.425341
H41   H     H_    0.936893 0.680646 0.866944 0.262199
C159  C     C_3   0.898535 0.697542 0.901265 -0.675007
H42   H     H_    0.910847 0.675705 0.948235 0.224166
H43   H     H_    0.871136 0.683130 0.852141 0.225788
H44   H     H_    0.888399 0.726606 0.914125 0.241780
N16   N     N_2   0.069924 0.706476 0.113862 -0.425114
H45   H     H_    0.062840 0.680811 0.133134 0.262351
C160  C     C_3   0.101325 0.697883 0.099120 -0.675656
H46   H     H_    0.089151 0.675942 0.052296 0.224456
H47   H     H_    0.128729 0.683659 0.148410 0.224596
H48   H     H_    0.111405 0.726980 0.086169 0.241869
N17   N     N_2   0.937712 0.205859 0.003753 -0.411822
H49   H     H_    0.925941 0.220276 0.030593 0.277837
C161  C     C_3   0.906909 0.183928 0.937624 -0.671349
H50   H     H_    0.875954 0.198334 0.913912 0.212341
H51   H     H_    0.905398 0.151164 0.951648 0.237145
H52   H     H_    0.914309 0.184366 0.895157 0.226719
N18   N     N_2   0.062846 0.206056 0.997765 -0.411508
H53   H     H_    0.074703 0.220542 0.971094 0.278163
C162  C     C_3   0.093578 0.184190 0.063959 -0.670446
H54   H     H_    0.124503 0.198807 0.088027 0.212927
H55   H     H_    0.095276 0.151487 0.049912 0.236941
H56   H     H_    0.085966 0.184412 0.106151 0.226329
N19   N     N_2   0.436855 0.705857 0.001067 -0.411791
H57   H     H_    0.424569 0.720270 0.027054 0.277813
C163  C     C_3   0.406544 0.683933 0.934513 -0.671215
H58   H     H_    0.375510 0.698347 0.909799 0.212344
H59   H     H_    0.404814 0.651169 0.948279 0.237199
H60   H     H_    0.414621 0.684369 0.892939 0.226662
N20   N     N_2   0.563688 0.706063 0.000427 -0.411468
H61   H     H_    0.576041 0.720546 0.974583 0.278151
C164  C     C_3   0.593951 0.684223 0.067050 -0.670264
H62   H     H_    0.624950 0.698838 0.092040 0.212922
H63   H     H_    0.595854 0.651510 0.053301 0.236993
H64   H     H_    0.585698 0.684475 0.108392 0.226258
N21   N     N_2   0.436127 0.793663 0.999330 -0.427639
H65   H     H_    0.446044 0.819227 0.033396 0.260881
C165  C     C_3   0.400262 0.802501 0.926694 -0.673494
H66   H     H_    0.408569 0.824639 0.897789 0.228152
H67   H     H_    0.375616 0.816587 0.931272 0.218124
H68   H     H_    0.387840 0.773535 0.893983 0.241997
N22   N     N_2   0.564499 0.793870 0.002578 -0.425327
H69   H     H_    0.554647 0.819350 0.968367 0.261256
C166  C     C_3   0.600089 0.802971 0.075428 -0.681885
H70   H     H_    0.591427 0.824963 0.103965 0.224017
H71   H     H_    0.624808 0.817356 0.071307 0.223485
H72   H     H_    0.612584 0.774073 0.108259 0.242798
N23   N     N_2   0.936970 0.293667 0.002009 -0.427482
H73   H     H_    0.947214 0.319234 0.036093 0.260988
C167  C     C_3   0.900605 0.302503 0.929946 -0.673836
H74   H     H_    0.908413 0.324629 0.900302 0.228103
H75   H     H_    0.876358 0.316605 0.935628 0.218116
H76   H     H_    0.887899 0.273534 0.897347 0.242032
N24   N     N_2   0.063687 0.293862 0.999941 -0.425371
H77   H     H_    0.053525 0.319352 0.965726 0.261341
C168  C     C_3   0.099781 0.302932 0.072253 -0.681602
H78   H     H_    0.091634 0.324942 0.101525 0.223872
H79   H     H_    0.124138 0.317282 0.067064 0.223623
H80   H     H_    0.112514 0.274026 0.104968 0.242723
N25   N     N_2   0.926732 0.947163 0.557913 -0.400114
H81   H     H_    0.901398 0.963840 0.518338 0.235423
C169  C     C_3   0.928976 0.905345 0.534812 -0.542209
H82   H     H_    0.897714 0.894655 0.489993 0.202320
H83   H     H_    0.941856 0.882658 0.580785 0.194942
H84   H     H_    0.949634 0.904759 0.514659 0.240865
N26   N     N_2   0.073863 0.948268 0.442444 -0.401716
H85   H     H_    0.098943 0.965799 0.480697 0.234716
C170  C     C_3   0.072849 0.906742 0.468029 -0.536121
H86   H     H_    0.103823 0.898403 0.516668 0.203633
H87   H     H_    0.063318 0.882677 0.424978 0.193322
H88   H     H_    0.050071 0.905368 0.483512 0.240905
N27   N     N_2   0.426730 0.447166 0.557907 -0.400114
H89   H     H_    0.401397 0.463839 0.518322 0.235431
C171  C     C_3   0.428979 0.405345 0.534823 -0.542240
H90   H     H_    0.397718 0.394646 0.490016 0.202321
H91   H     H_    0.441866 0.382666 0.580808 0.194955
H92   H     H_    0.449632 0.404757 0.514660 0.240861
N28   N     N_2   0.573873 0.448281 0.442453 -0.401734
H93   H     H_    0.598955 0.465809 0.480708 0.234724
C172  C     C_3   0.572858 0.406753 0.468030 -0.536164
H94   H     H_    0.603828 0.398418 0.516680 0.203631
H95   H     H_    0.563339 0.382689 0.424983 0.193315
H96   H     H_    0.550072 0.405374 0.483492 0.240922
N29   N     N_2   0.868651 0.911162 0.578980 -0.425444
H97   H     H_    0.860616 0.881866 0.585948 0.261462
C173  C     C_3   0.834313 0.939938 0.546905 -0.697921
H98   H     H_    0.807069 0.925892 0.497039 0.225191
H99   H     H_    0.842445 0.969136 0.530624 0.227581
H100  H     H_    0.825846 0.947110 0.586760 0.233639
N30   N     N_2   0.131415 0.911786 0.420380 -0.424695
H101  H     H_    0.139143 0.882227 0.413998 0.261352
C174  C     C_3   0.165740 0.940527 0.449781 -0.696992
H102  H     H_    0.193507 0.926811 0.499130 0.226767
H103  H     H_    0.158178 0.970042 0.466137 0.227343
H104  H     H_    0.173099 0.947033 0.408230 0.233715
N31   N     N_2   0.368634 0.411183 0.578951 -0.425449
H105  H     H_    0.360589 0.381893 0.585920 0.261468
C175  C     C_3   0.334302 0.439967 0.546846 -0.697914
H106  H     H_    0.307062 0.425923 0.496971 0.225206
H107  H     H_    0.342447 0.469160 0.530574 0.227577
H108  H     H_    0.325821 0.447149 0.586679 0.233634
N32   N     N_2   0.631440 0.411826 0.420400 -0.424694
H109  H     H_    0.639171 0.382266 0.414034 0.261360
C176  C     C_3   0.665758 0.440574 0.449759 -0.697051
H110  H     H_    0.693536 0.426868 0.499102 0.226778
H111  H     H_    0.658198 0.470091 0.466111 0.227345
H112  H     H_    0.673100 0.447074 0.408183 0.233725
C177  C     C_1   0.894622 0.888968 0.725178 0.220270
N33   N     N_1   0.875279 0.866044 0.735376 -0.296260
C178  C     C_1   0.104662 0.888629 0.274233 0.220469
N34   N     N_1   0.123856 0.865576 0.263983 -0.296069
C179  C     C_1   0.394589 0.388997 0.725144 0.220265
N35   N     N_1   0.375238 0.366080 0.735337 -0.296276
C180  C     C_1   0.604692 0.388658 0.274261 0.220470
N36   N     N_1   0.623893 0.365610 0.264018 -0.296084
N37   N     N_2   0.977010 0.915010 0.841337 -0.424466
H113  H     H_    0.958806 0.897180 0.851934 0.267361
C181  C     C_3   0.014128 0.893260 0.858443 -0.697050
H114  H     H_    0.030217 0.879847 0.914363 0.223601
H115  H     H_    0.036116 0.914792 0.857071 0.233952
H116  H     H_    0.005903 0.867648 0.818540 0.227109
N38   N     N_2   0.022399 0.914914 0.158167 -0.424845
H117  H     H_    0.040497 0.896932 0.147598 0.267144
C182  C     C_3   0.985044 0.893440 0.140705 -0.696041
H118  H     H_    0.968952 0.880065 0.084729 0.223574
H119  H     H_    0.963184 0.915151 0.141988 0.234143
H120  H     H_    0.992963 0.867827 0.180456 0.227129
N39   N     N_2   0.476984 0.415014 0.841310 -0.424453
H121  H     H_    0.458776 0.397194 0.851908 0.267367
C183  C     C_3   0.514090 0.393248 0.858396 -0.697035
H122  H     H_    0.530179 0.379829 0.914313 0.223610
H123  H     H_    0.536085 0.414769 0.857022 0.233942
H124  H     H_    0.505850 0.367637 0.818483 0.227115
N40   N     N_2   0.522420 0.414917 0.158189 -0.424830
H125  H     H_    0.540524 0.396944 0.147621 0.267148
C184  C     C_3   0.485075 0.393429 0.140743 -0.696036
H126  H     H_    0.468985 0.380049 0.084772 0.223578
H127  H     H_    0.463210 0.415130 0.142028 0.234138
H128  H     H_    0.493008 0.367817 0.180504 0.227133
N41   N     N_2   0.050459 0.054240 0.862253 -0.431666
H129  H     H_    0.046098 0.084720 0.845192 0.240104
C185  C     C_3   0.093243 0.043126 0.915677 -0.625131
H130  H     H_    0.113846 0.058798 0.902319 0.203525
H131  H     H_    0.098029 0.008989 0.917665 0.227457
H132  H     H_    0.101999 0.053627 0.970859 0.232716
N42   N     N_2   0.949757 0.054414 0.137885 -0.431905
H133  H     H_    0.954232 0.084880 0.155079 0.239951
C186  C     C_3   0.906933 0.043384 0.084381 -0.625143
H134  H     H_    0.886384 0.059047 0.097818 0.203337
H135  H     H_    0.902014 0.009252 0.082190 0.227803
H136  H     H_    0.898227 0.053956 0.029266 0.232637
N43   N     N_2   0.550491 0.554210 0.862280 -0.431640
H137  H     H_    0.546146 0.584693 0.845239 0.240051
C187  C     C_3   0.593269 0.543069 0.915691 -0.624841
H138  H     H_    0.613880 0.558738 0.902348 0.203504
H139  H     H_    0.598037 0.508930 0.917646 0.227372
H140  H     H_    0.602032 0.553555 0.970884 0.232809
N44   N     N_2   0.449721 0.554383 0.137854 -0.431876
H141  H     H_    0.454178 0.584852 0.155028 0.239892
C188  C     C_3   0.406903 0.543324 0.084363 -0.624858
H142  H     H_    0.386346 0.558982 0.097787 0.203307
H143  H     H_    0.402004 0.509190 0.082205 0.227720
H144  H     H_    0.398189 0.553882 0.029237 0.232726
N45   N     N_2   0.794256 0.923862 0.283411 -0.411396
H145  H     H_    0.779719 0.901644 0.242832 0.276772
C189  C     C_3   0.811500 0.906908 0.356123 -0.668906
H146  H     H_    0.786428 0.896621 0.362784 0.217448
H147  H     H_    0.830986 0.930166 0.399174 0.240728
H148  H     H_    0.831195 0.879723 0.364186 0.219891
N46   N     N_2   0.205470 0.924363 0.711870 -0.421938
H149  H     H_    0.217951 0.901859 0.752065 0.256180
C190  C     C_3   0.193220 0.908527 0.640628 -0.696518
H150  H     H_    0.220986 0.900800 0.640000 0.214660
H151  H     H_    0.174206 0.931763 0.597160 0.250176
H152  H     H_    0.174375 0.879976 0.628286 0.224807
N47   N     N_2   0.294260 0.423863 0.283372 -0.411405
H153  H     H_    0.279722 0.401651 0.242783 0.276791
C191  C     C_3   0.311518 0.406894 0.356079 -0.668981
H154  H     H_    0.286454 0.396613 0.362767 0.217416
H155  H     H_    0.331021 0.430140 0.399140 0.240754
H156  H     H_    0.331200 0.379704 0.364107 0.219894
N48   N     N_2   0.705479 0.424361 0.711752 -0.421955
H157  H     H_    0.717968 0.401833 0.751903 0.256182
C192  C     C_3   0.693224 0.408580 0.640476 -0.696462
H158  H     H_    0.720988 0.400893 0.639817 0.214655
H159  H     H_    0.674196 0.431835 0.597054 0.250209
H160  H     H_    0.674393 0.380016 0.628093 0.224805
N49   N     N_2   0.706264 0.923883 0.191369 -0.434656
H161  H     H_    0.684202 0.925610 0.135683 0.254387
C193  C     C_3   0.690328 0.904551 0.230717 -0.678022
H162  H     H_    0.677474 0.873530 0.206660 0.222131
H163  H     H_    0.665232 0.923698 0.226426 0.226152
H164  H     H_    0.715314 0.900426 0.289470 0.233722
N50   N     N_2   0.294681 0.924438 0.803430 -0.425229
H165  H     H_    0.282021 0.900115 0.766758 0.258520
C194  C     C_3   0.307570 0.912700 0.877059 -0.699518
H166  H     H_    0.280074 0.906328 0.879296 0.216274
H167  H     H_    0.326428 0.937693 0.916792 0.241236
H168  H     H_    0.326851 0.884224 0.893529 0.224384
N51   N     N_2   0.206267 0.423892 0.191263 -0.434695
H169  H     H_    0.184202 0.425654 0.135581 0.254378
C195  C     C_3   0.190338 0.404503 0.230575 -0.678032
H170  H     H_    0.177439 0.373515 0.206393 0.222201
H171  H     H_    0.165277 0.423652 0.226408 0.226150
H172  H     H_    0.215339 0.400299 0.289295 0.233753
N52   N     N_2   0.794690 0.424438 0.803260 -0.425155
H173  H     H_    0.782026 0.400144 0.766528 0.258566
C196  C     C_3   0.807599 0.412627 0.876869 -0.699642
H174  H     H_    0.780112 0.406210 0.879113 0.216261
H175  H     H_    0.826457 0.437596 0.916660 0.241226
H176  H     H_    0.826886 0.384158 0.893252 0.224416
N53   N     N_2   0.705092 0.075094 0.219043 -0.414086
H177  H     H_    0.717390 0.095770 0.262214 0.259009
C197  C     C_3   0.694358 0.094603 0.151065 -0.671688
H178  H     H_    0.722873 0.104615 0.154512 0.225559
H179  H     H_    0.674777 0.122274 0.140772 0.220726
H180  H     H_    0.676515 0.072862 0.104188 0.235313
N54   N     N_2   0.294943 0.076185 0.791097 -0.418346
H181  H     H_    0.282314 0.098266 0.750123 0.260711
C198  C     C_3   0.306631 0.092981 0.861452 -0.675221
H182  H     H_    0.278532 0.101845 0.860292 0.227269
H183  H     H_    0.326190 0.120994 0.873856 0.221780
H184  H     H_    0.324823 0.069917 0.905823 0.233600
N55   N     N_2   0.205090 0.575076 0.219211 -0.414072
H185  H     H_    0.217377 0.595718 0.262431 0.259006
C199  C     C_3   0.194386 0.594647 0.151296 -0.671652
H186  H     H_    0.222912 0.604697 0.154819 0.225565
H187  H     H_    0.174790 0.622302 0.141032 0.220711
H188  H     H_    0.176568 0.572933 0.104367 0.235299
N56   N     N_2   0.794938 0.576201 0.791312 -0.418361
H189  H     H_    0.782303 0.598318 0.750399 0.260706
C200  C     C_3   0.806637 0.592921 0.861720 -0.675210
H190  H     H_    0.778543 0.601745 0.860606 0.227269
H191  H     H_    0.826188 0.620948 0.874186 0.221788
H192  H     H_    0.824841 0.569827 0.906026 0.233609

loop_
_geom_bond_atom_site_label_1
_geom_bond_atom_site_label_2
_ccdc_geom_bond_type
C181  H116  S    
C187  H138  S    
N12   C156  S    
C133  C137  A    
N29   H97   S    
C55   C59   T    
Cu9   O10   S    
N19   C163  S    
N43   H137  S    
N18   H53   S    
C136  C140  A    
C84   O15   A    
N20   C164  S    
N25   H81   S    
C36   C152  S    
C135  C139  A    
C183  H123  S    
C132  C180  S    
C182  H119  S    
C95   C99   S    
C29   C33   A    
C148  H16   S    
C23   C43   A    
Cu8   O44   S    
C192  H158  S    
C9    C13   A    
C176  H112  S    
N39   C183  S    
C11   C15   A    
C159  H42   S    
C68   O31   A    
C199  H187  S    
C145  H4    S    
C66   C122  T    
Cu3   O25   S    
N1    C145  S    
C29   N53   S    
N41   C185  S    
C154  H22   S    
N54   C198  S    
C130  C134  A    
C73   C81   S    
C172  H95   S    
C75   O46   A    
Cu9   O45   S    
N56   C200  S    
C25   C29   A    
Cu11  Cu12  S    
N22   C166  S    
C27   C31   A    
C193  H162  S    
C155  H26   S    
C47   O27   A    
C48   O28   A    
C194  H166  S    
Cu9   O5    S    
C160  H48   S    
Cu7   O40   S    
C166  H72   S    
Cu7   O31   S    
C12   N4    S    
C149  N5    T    
C195  H171  S    
Cu1   O1    S    
N20   H61   S    
C16   C20   A    
C188  H144  S    
C66   C76   S    
C130  C178  S    
C2    C58   S    
N30   H101  S    
Cu2   O24   S    
C197  H179  S    
C94   C96   A    
C97   C103  T    
C129  C133  A    
C99   C101  T    
C74   O44   A    
C194  H167  S    
C158  H39   S    
C177  N33   T    
C192  H160  S    
C105  C118  A    
C178  N34   T    
C70   O34   A    
C194  H168  S    
C157  H35   S    
N56   H189  S    
C135  N39   S    
C72   O40   A    
N32   H109  S    
C119  C123  S    
Cu5   O33   S    
C26   C50   S    
C160  H46   S    
Cu8   O36   S    
C174  H102  S    
Cu4   O28   S    
C41   N45   S    
C83   O13   A    
N37   H113  S    
N16   C160  S    
C175  H107  S    
C190  H150  S    
C88   N16   S    
C118  C120  A    
N46   C190  S    
C32   N56   S    
C169  H82   S    
C125  C129  A    
C19   C139  A    
N23   H73   S    
C154  H24   S    
C173  H98   S    
N48   C192  S    
C17   C137  A    
C167  H75   S    
C184  H126  S    
C80   O12   A    
C67   O29   A    
C17   C69   S    
C186  H134  S    
C19   C71   S    
C34   C150  S    
C22   N50   S    
C7    C143  A    
N39   H121  S    
Cu3   O18   S    
N44   C188  S    
N49   H161  S    
C187  H139  S    
C198  H182  S    
Cu10  O14   S    
N11   H25   S    
N53   H177  S    
C83   C103  S    
C81   C123  T    
C32   C36   A    
C108  C115  A    
C105  C113  A    
N18   C162  S    
C189  H147  S    
N13   H33   S    
Cu2   O4    S    
C77   O9    A    
C136  N40   S    
C18   C138  A    
C156  H30   S    
C105  N21   S    
C139  C143  A    
C31   N55   S    
C185  H130  S    
C61   C77   S    
C164  H63   S    
N52   H173  S    
C22   C42   A    
C185  H131  S    
Cu10  O9    S    
C151  N7    T    
C8    C12   A    
C191  H156  S    
C37   C53   S    
N9    H17   S    
C3    O3    A    
C168  H79   S    
N47   C191  S    
Cu11  O47   S    
C27   C51   S    
C106  N22   S    
C148  H14   S    
C127  C131  A    
N21   C165  S    
C200  H191  S    
C30   C34   A    
C106  C113  A    
C12   C16   A    
C107  N23   S    
C159  H44   S    
C44   N48   S    
C173  H99   S    
C10   C14   A    
C174  H104  S    
N24   C168  S    
N17   C161  S    
C155  H28   S    
Cu11  O7    S    
N3    H9    S    
Cu12  O16   S    
N55   C199  S    
C190  H152  S    
C5    C9    A    
C162  H54   S    
C86   C93   A    
C1    C57   S    
C71   O39   A    
N44   H141  S    
C88   C91   A    
C132  C136  A    
C175  H108  S    
C73   O42   A    
C4    C60   S    
C161  H51   S    
C196  H174  S    
C116  N17   S    
C153  H19   S    
C184  H128  S    
N43   C187  S    
C110  C126  A    
C26   C30   A    
C186  H136  S    
C115  C119  A    
C165  H67   S    
C4    O20   A    
C84   C104  S    
C87   C90   A    
N27   C171  S    
C48   O24   A    
C67   C101  S    
C21   N49   S    
C181  H115  S    
C21   C25   A    
N26   C170  S    
C158  H40   S    
Cu10  O6    S    
C24   C28   A    
C84   O16   A    
Cu6   O30   S    
N14   H37   S    
N4    C148  S    
C160  H47   S    
C13   C17   A    
C156  H32   S    
C79   O11   A    
C46   O26   A    
C146  H7    S    
C182  H118  S    
C171  H92   S    
C133  N37   S    
C126  N30   S    
Cu4   O27   S    
C96   C100  S    
N15   C159  S    
C173  H100  S    
N40   C184  S    
C37   C41   A    
C112  N28   S    
C107  C116  A    
C176  H111  S    
C91   C95   A    
C191  H154  S    
N48   H157  S    
C113  C121  S    
C68   O32   A    
N47   H153  S    
C197  H178  S    
C145  H3    S    
C20   C72   S    
C109  C141  A    
C87   N15   S    
C71   O35   A    
C87   C92   A    
C72   O36   A    
N45   H145  S    
N31   C175  S    
Cu5   O29   S    
N41   H129  S    
C192  H159  S    
C153  H18   S    
Cu8   O32   S    
C172  H94   S    
C75   O45   A    
C76   O47   A    
C45   O25   A    
C157  H34   S    
C146  H6    S    
C15   C19   A    
C15   N43   S    
C16   N44   S    
N42   C186  S    
C68   C102  S    
C162  H56   S    
C126  C130  A    
N10   H21   S    
C196  H176  S    
C168  H78   S    
C82   C124  T    
C166  H71   S    
C14   C18   A    
C80   O8    A    
Cu10  O46   S    
C39   C55   S    
N42   H133  S    
C40   C56   S    
Cu1   O22   S    
C193  H164  S    
Cu7   Cu8   S    
C35   C151  S    
C65   C121  T    
C6    C142  A    
C11   N3    S    
C110  N26   S    
Cu8   O39   S    
N45   C189  S    
N22   H69   S    
N29   C173  S    
C158  H38   S    
C64   C80   S    
C86   N14   S    
C74   C82   S    
Cu1   Cu3   S    
C62   C78   S    
Cu2   Cu4   S    
C171  H91   S    
N25   C169  S    
C77   O5    A    
C78   O10   A    
C49   C61   T    
N32   C176  S    
C145  H2    S    
C183  H124  S    
C51   C63   T    
N4    H13   S    
C138  C142  A    
C117  C120  A    
C85   N13   S    
C171  H90   S    
C85   C89   A    
N21   H65   S    
C128  N32   S    
C5    C45   S    
C33   C37   A    
C167  H74   S    
C7    C47   S    
C42   N46   S    
C35   C39   A    
C189  H146  S    
C8    C48   S    
Cu6   O37   S    
N17   H49   S    
N2    H5    S    
C38   C54   S    
C28   C32   A    
Cu11  O12   S    
C70   O38   A    
C199  H188  S    
C1    O17   A    
C76   O48   A    
C161  H52   S    
Cu4   O20   S    
C21   C41   A    
Cu3   O26   S    
C3    O19   A    
C88   C90   A    
C154  H23   S    
C106  C117  A    
C115  N18   S    
C24   C44   A    
C93   N12   S    
C31   C35   A    
C182  H120  S    
N51   C195  S    
C147  H10   S    
C172  H96   S    
C169  H83   S    
C179  N35   T    
C146  H8    S    
C14   N42   S    
C137  C141  A    
C53   C57   T    
C111  N27   S    
C140  C144  A    
C86   C89   A    
C175  H106  S    
C6    C10   A    
C169  H84   S    
N38   H117  S    
Cu3   O17   S    
C30   N54   S    
C33   C149  S    
C127  N31   S    
C20   C140  A    
N16   H45   S    
N24   H77   S    
C131  C179  S    
Cu5   Cu6   S    
C195  H172  S    
Cu1   O2    S    
N14   C158  S    
C1    O1    A    
Cu2   O23   S    
C197  H180  S    
C25   C49   S    
C112  C128  A    
C56   C60   T    
C10   N2    S    
C74   O43   A    
N53   C197  S    
C164  H62   S    
C22   C26   A    
C198  H184  S    
Cu9   O13   S    
N37   C181  S    
Cu6   O42   S    
C147  H12   S    
C18   C70   S    
C157  H36   S    
C165  H66   S    
C52   C64   T    
C28   C52   S    
N19   H57   S    
C46   O22   A    
C183  H122  S    
C163  H58   S    
C181  H114  S    
C107  C114  A    
C63   C79   S    
N1    H1    S    
C7    C11   A    
C200  H190  S    
C159  H43   S    
C38   C42   A    
C131  C135  A    
C174  H103  S    
C155  H27   S    
Cu6   O34   S    
C199  H186  S    
C83   O14   A    
C110  C142  A    
N55   H185  S    
C24   N52   S    
C190  H151  S    
C47   O23   A    
C148  H15   S    
C170  H87   S    
C120  C124  S    
N26   H85   S    
N23   C167  S    
C73   O41   A    
N54   H181  S    
C23   C27   A    
C184  H127  S    
C67   O30   A    
C45   O21   A    
C43   N47   S    
Cu7   O35   S    
C186  H135  S    
N30   C174  S    
C191  H155  S    
C128  C132  A    
C69   O37   A    
C163  H60   S    
C129  C177  S    
C125  N29   S    
N49   C193  S    
C187  H140  S    
C92   N9    S    
N11   C155  S    
Cu4   O19   S    
Cu7   O43   S    
C36   C40   A    
C189  H148  S    
C69   O33   A    
C195  H170  S    
N13   C157  S    
C39   C43   A    
Cu2   O3    S    
Cu12  O11   S    
N10   C154  S    
N51   H169  S    
C92   C95   A    
C89   C97   S    
C156  H31   S    
C23   N51   S    
N28   C172  S    
Cu5   O38   S    
C147  H11   S    
C85   C94   A    
C5    C141  A    
N50   H165  S    
C40   C44   A    
N40   H125  S    
C164  H64   S    
C117  N20   S    
C108  N24   S    
C100  C102  T    
N15   H41   S    
C185  H132  S    
C8    C144  A    
C163  H59   S    
C176  H110  S    
C109  C125  A    
N2    C146  S    
C91   N10   S    
C78   O6    A    
C93   C96   A    
N9    C153  S    
C161  H50   S    
C111  C127  A    
C50   C62   T    
C168  H80   S    
N12   H29   S    
Cu12  O48   S    
C94   N11   S    
C134  N38   S    
N31   H105  S    
C54   C58   T    
C170  H88   S    
C200  H192  S    
C6    C46   S    
C118  N19   S    
N50   C194  S    
C34   C38   A    
C79   O7    A    
C134  C138  A    
N52   C196  S    
C111  C143  A    
N3    C147  S    
C188  H143  S    
C65   C75   S    
C116  C119  A    
C167  H76   S    
C108  C114  A    
C112  C144  A    
C198  H183  S    
Cu9   Cu10  S    
N46   H149  S    
C162  H55   S    
C9    N1    S    
C2    O18   A    
C109  N25   S    
N38   C182  S    
N28   H93   S    
C4    O4    A    
C98   C104  T    
C13   N41   S    
C196  H175  S    
C153  H20   S    
C166  H70   S    
C152  N8    T    
C114  C122  S    
Cu11  O15   S    
C2    O2    A    
Cu12  O8    S    
C188  H142  S    
C165  H68   S    
Cu1   O21   S    
C150  N6    T    
C193  H163  S    
C170  H86   S    
N27   H89   S    
C90   C98   S    
C180  N36   T    
Cu5   O41   S    
C3    C59   S    
