data_mof_unit_65405.cif
_audit_creation_date              2012-12-10T19:01:57-0500
_audit_creation_method            fapswitch 2.2
_symmetry_space_group_name_H-M    P1
_symmetry_Int_Tables_number       1
_space_group_crystal_system       triclinic
_cell_length_a                    44.09489
_cell_length_b                    30.305891
_cell_length_c                    31.791462
_cell_angle_alpha                 90.000726
_cell_angle_beta                  136.682722
_cell_angle_gamma                 89.999483
_cell_volume                      29145.6575867

loop_
_atom_site_label
_atom_site_type_symbol
_atom_type_description
_atom_site_fract_x
_atom_site_fract_y
_atom_site_fract_z
_atom_type_partial_charge
C1    C     C_R   0.586285 0.999978 0.086208 0.893960
C2    C     C_R   0.413715 0.999978 0.913792 0.893943
C3    C     C_R   0.086285 0.499978 0.086208 0.893940
C4    C     C_R   0.913715 0.499978 0.913792 0.893954
C5    C     C_3   0.498167 0.001439 0.289308 0.162917
C6    C     C_3   0.501834 0.001423 0.710693 0.162913
C7    C     C_3   0.998168 0.501433 0.289309 0.162906
C8    C     C_3   0.001833 0.501439 0.710691 0.162911
C9    C     C_3   0.496711 0.043017 0.232568 -0.192373
C10   C     C_3   0.503029 0.043010 0.767171 -0.192360
C11   C     C_3   0.996821 0.543014 0.232678 -0.192369
C12   C     C_3   0.003295 0.543015 0.767441 -0.192376
C13   C     C_3   0.533728 0.023548 0.298005 -0.150654
C14   C     C_3   0.466135 0.023315 0.701856 -0.150675
C15   C     C_3   0.033786 0.523450 0.298064 -0.150664
C16   C     C_3   0.966276 0.523553 0.702000 -0.150653
C17   C     C_1   0.498866 0.000585 0.162236 -0.026157
C18   C     C_1   0.501129 0.000575 0.837760 -0.026150
C19   C     C_1   0.998868 0.500581 0.162238 -0.026156
C20   C     C_1   0.001134 0.500583 0.837765 -0.026157
C21   C     C_1   0.498597 0.001296 0.335223 -0.051591
C22   C     C_1   0.501404 0.001284 0.664779 -0.051567
C23   C     C_1   0.998597 0.501291 0.335222 -0.051582
C24   C     C_1   0.001403 0.501296 0.664777 -0.051592
C25   C     C_R   0.703415 0.039243 0.208692 -0.233530
C26   C     C_R   0.296585 0.039246 0.791324 -0.233556
C27   C     C_R   0.203415 0.539246 0.208680 -0.233558
C28   C     C_R   0.796585 0.539246 0.791319 -0.233545
C29   C     C_R   0.657646 0.039279 0.163695 -0.187114
C30   C     C_R   0.342355 0.039283 0.836323 -0.187142
C31   C     C_R   0.157645 0.539282 0.163681 -0.187145
C32   C     C_R   0.842354 0.539282 0.836318 -0.187131
C33   C     C_R   0.634329 0.999993 0.133349 -0.104708
C34   C     C_R   0.365671 0.999993 0.866649 -0.104722
C35   C     C_R   0.134329 0.499993 0.133352 -0.104722
C36   C     C_R   0.865671 0.499993 0.866649 -0.104718
C37   C     C_R   0.657135 0.960784 0.147699 -0.267466
C38   C     C_R   0.342864 0.960779 0.852274 -0.267486
C39   C     C_R   0.157136 0.460779 0.147722 -0.267481
C40   C     C_R   0.842864 0.460781 0.852282 -0.267469
C41   C     C_R   0.702986 0.960818 0.191269 0.508518
C42   C     C_R   0.297013 0.960811 0.808701 0.508499
C43   C     C_R   0.202987 0.460812 0.191295 0.508501
C44   C     C_R   0.797013 0.460814 0.808710 0.508507
C45   C     C_R   0.499895 0.999990 0.081170 0.907646
C46   C     C_R   0.500105 0.999989 0.918829 0.907668
C47   C     C_R   0.999895 0.499990 0.081171 0.907654
C48   C     C_R   0.000106 0.499989 0.918830 0.907645
C49   C     C_R   0.726234 0.000099 0.223192 -0.009926
C50   C     C_R   0.273766 0.000098 0.776801 -0.009916
C51   C     C_R   0.226234 0.500098 0.223199 -0.009918
C52   C     C_R   0.773766 0.500099 0.776803 -0.009920
C53   C     C_R   0.797414 0.971445 0.321357 -0.096655
C54   C     C_R   0.202585 0.971458 0.678622 -0.096665
C55   C     C_R   0.297415 0.471456 0.321375 -0.096661
C56   C     C_R   0.702585 0.471454 0.678628 -0.096661
C57   C     C_R   0.843208 0.972155 0.367937 -0.260543
C58   C     C_R   0.156791 0.972168 0.632046 -0.260535
C59   C     C_R   0.343209 0.472166 0.367951 -0.260539
C60   C     C_R   0.656791 0.472165 0.632051 -0.260537
C61   C     C_R   0.865981 0.001849 0.365120 -0.072867
C62   C     C_R   0.134019 0.001849 0.634880 -0.072890
C63   C     C_R   0.365981 0.501849 0.365120 -0.072887
C64   C     C_R   0.634019 0.501849 0.634880 -0.072882
C65   C     C_R   0.842823 0.031731 0.315992 0.152876
C66   C     C_R   0.157179 0.031718 0.684022 0.152885
C67   C     C_R   0.342821 0.531720 0.315981 0.152883
C68   C     C_R   0.657178 0.531722 0.684018 0.152883
C69   C     C_R   0.796943 0.030868 0.269592 -0.222988
C70   C     C_R   0.203059 0.030854 0.730419 -0.223009
C71   C     C_R   0.296941 0.530856 0.269584 -0.223009
C72   C     C_R   0.703058 0.530859 0.730416 -0.223001
C73   C     C_R   0.774285 0.000633 0.272016 0.081263
C74   C     C_R   0.225715 0.000632 0.727979 0.081273
C75   C     C_R   0.274285 0.500632 0.272022 0.081276
C76   C     C_R   0.725715 0.500633 0.727980 0.081266
C77   C     C_R   0.500000 0.913541 0.500000 0.928597
C78   C     C_R   0.000000 0.413541 0.500000 0.928604
C79   C     C_R   0.499746 0.000178 0.418456 0.884788
C80   C     C_R   0.500254 0.000178 0.581544 0.884820
C81   C     C_R   0.999746 0.500178 0.418456 0.884803
C82   C     C_R   0.000254 0.500178 0.581544 0.884794
C83   C     C_R   0.500000 0.085927 0.499999 0.890491
C84   C     C_R   1.000000 0.585926 0.500000 0.890485
C85   C     C_3   0.499746 0.959445 0.263969 -0.179098
C86   C     C_3   0.500510 0.959420 0.736290 -0.179132
C87   C     C_3   0.999638 0.459435 0.263860 -0.179109
C88   C     C_3   0.000247 0.459444 0.736022 -0.179095
C89   C     C_R   0.000000 0.086397 0.500000 0.907348
C90   C     C_R   0.500000 0.586397 0.500000 0.907341
C91   C     C_R   0.913685 0.000885 0.413447 0.886170
C92   C     C_R   0.086315 0.000885 0.586553 0.886166
C93   C     C_R   0.413685 0.500885 0.413447 0.886166
C94   C     C_R   0.586315 0.500885 0.586553 0.886172
C95   C     C_R   0.000001 0.913517 0.500000 0.888983
C96   C     C_R   0.499998 0.413517 0.499998 0.888991
C97   C     C_R   0.460465 0.796707 0.468194 0.461143
C98   C     C_R   0.539536 0.796707 0.531809 0.461145
C99   C     C_R   0.960465 0.296707 0.468195 0.461147
C100  C     C_R   0.039536 0.296707 0.531810 0.461144
C101  C     C_R   0.460980 0.842533 0.469615 -0.276367
C102  C     C_R   0.539020 0.842532 0.530386 -0.276361
C103  C     C_R   0.960980 0.342533 0.469616 -0.276356
C104  C     C_R   0.039020 0.342532 0.530387 -0.276358
C105  C     C_R   0.500000 0.865544 0.500000 -0.180190
C106  C     C_R   0.000000 0.365544 0.500001 -0.180191
C107  C     C_R   0.500000 0.773761 0.500002 -0.164722
C108  C     C_R   0.000001 0.273761 0.500003 -0.164721
C109  C     C_R   0.008563 0.203128 0.471306 -0.137811
C110  C     C_R   0.991438 0.203128 0.528698 -0.137807
C111  C     C_R   0.508562 0.703128 0.471305 -0.137809
C112  C     C_R   0.491438 0.703128 0.528698 -0.137818
C113  C     C_R   0.008354 0.157391 0.471015 -0.185237
C114  C     C_R   0.991647 0.157392 0.528987 -0.185234
C115  C     C_R   0.508353 0.657391 0.471015 -0.185240
C116  C     C_R   0.491647 0.657392 0.528988 -0.185244
C117  C     C_R   0.000000 0.134333 0.500001 -0.028739
C118  C     C_R   0.500000 0.634333 0.500001 -0.028739
C119  C     C_3   0.535303 0.981577 0.271861 -0.192645
C120  C     C_3   0.464815 0.981335 0.728258 -0.192650
C121  C     C_3   0.035254 0.481475 0.271810 -0.192640
C122  C     C_3   0.964693 0.481582 0.728136 -0.192640
C123  C     C_R   0.000001 0.225885 0.500002 0.149488
C124  C     C_R   0.500000 0.725885 0.500002 0.149495
C125  C     C_R   0.467258 0.202249 0.444847 -0.258898
C126  C     C_R   0.532753 0.202253 0.555123 -0.258959
C127  C     C_R   0.967253 0.702250 0.444864 -0.258926
C128  C     C_R   0.032740 0.702250 0.555144 -0.258895
C129  C     C_R   0.468163 0.156584 0.444016 0.443429
C130  C     C_R   0.531846 0.156589 0.555962 0.443457
C131  C     C_R   0.968161 0.656586 0.444029 0.443441
C132  C     C_R   0.031834 0.656585 0.555977 0.443425
C133  C     C_R   0.500002 0.133585 0.499992 -0.285234
C134  C     C_R   0.999999 0.633585 0.500002 -0.285230
C135  C     C_R   0.500004 0.225280 0.499984 0.025247
C136  C     C_R   0.999996 0.725279 0.500004 0.025244
C137  C     C_R   0.012034 0.796446 0.548495 -0.264124
C138  C     C_R   0.987962 0.796443 0.451509 -0.264127
C139  C     C_R   0.512035 0.296441 0.548481 -0.264126
C140  C     C_R   0.487960 0.296448 0.451492 -0.264121
C141  C     C_R   0.014411 0.842114 0.550531 0.444133
C142  C     C_R   0.985589 0.842111 0.449472 0.444129
C143  C     C_R   0.514408 0.342110 0.550520 0.444128
C144  C     C_R   0.485584 0.342116 0.449460 0.444134
C145  C     C_R   0.000000 0.865437 0.500001 -0.297447
C146  C     C_R   0.499996 0.365437 0.499993 -0.297447
C147  C     C_R   0.999997 0.773422 0.500003 0.029039
C148  C     C_R   0.500000 0.273422 0.499985 0.029041
C149  C     C_1   0.499377 0.000170 0.125187 -0.162184
C150  C     C_1   0.500620 0.000166 0.874810 -0.162190
C151  C     C_1   0.999378 0.500169 0.125189 -0.162186
C152  C     C_1   0.000623 0.500169 0.874813 -0.162184
C153  C     C_1   0.499164 0.000843 0.373348 -0.186687
C154  C     C_1   0.500837 0.000837 0.626652 -0.186697
C155  C     C_1   0.999164 0.500840 0.373348 -0.186696
C156  C     C_1   0.000836 0.500843 0.626652 -0.186688
C157  C     C_3   0.462961 0.979096 0.198855 0.209841
C158  C     C_3   0.537171 0.979297 0.801282 0.209840
C159  C     C_3   0.962905 0.479181 0.198798 0.209843
C160  C     C_3   0.037035 0.479089 0.801140 0.209844
C161  C     C_3   0.498329 0.001045 0.207200 0.150437
C162  C     C_3   0.501667 0.001029 0.792797 0.150435
C163  C     C_3   0.998330 0.501038 0.207201 0.150430
C164  C     C_3   0.001672 0.501043 0.792800 0.150434
C165  C     C_3   0.461110 0.020944 0.224694 -0.188699
C166  C     C_3   0.538767 0.021155 0.775186 -0.188604
C167  C     C_3   0.961162 0.521034 0.224746 -0.188659
C168  C     C_3   0.038893 0.520937 0.775309 -0.188703
H1    H     H_    0.565724 0.965480 0.290478 0.150972
H2    H     H_    0.434494 0.965051 0.709740 0.150981
H3    H     H_    0.065631 0.465299 0.290382 0.150976
H4    H     H_    0.934271 0.465489 0.709517 0.150972
H5    H     H_    0.779993 0.948376 0.323849 0.163846
H6    H     H_    0.220004 0.948399 0.676117 0.163853
H7    H     H_    0.279996 0.448396 0.323878 0.163855
H8    H     H_    0.720005 0.448393 0.676127 0.163854
H9    H     H_    0.860923 0.949174 0.405765 0.158624
H10   H     H_    0.139075 0.949197 0.594206 0.158644
H11   H     H_    0.360925 0.449193 0.405788 0.158641
H12   H     H_    0.639076 0.449190 0.594215 0.158639
H13   H     H_    0.778890 0.053705 0.231564 0.163936
H14   H     H_    0.221113 0.053682 0.768459 0.163920
H15   H     H_    0.278887 0.553685 0.231546 0.163919
H16   H     H_    0.721113 0.553689 0.768452 0.163927
H17   H     H_    0.430743 0.859999 0.446595 0.183384
H18   H     H_    0.569257 0.859999 0.553406 0.183387
H19   H     H_    0.930743 0.359999 0.446595 0.183385
H20   H     H_    0.069258 0.359999 0.553407 0.183385
H21   H     H_    0.015050 0.220833 0.448895 0.152641
H22   H     H_    0.984951 0.220833 0.551110 0.152647
H23   H     H_    0.515049 0.720833 0.448894 0.152645
H24   H     H_    0.484952 0.720834 0.551110 0.152631
H25   H     H_    0.014975 0.140144 0.448532 0.167274
H26   H     H_    0.985025 0.140144 0.551470 0.167277
H27   H     H_    0.514975 0.640144 0.448531 0.167277
H28   H     H_    0.485026 0.640145 0.551471 0.167271
H29   H     H_    0.441126 0.219577 0.402055 0.157711
H30   H     H_    0.558887 0.219584 0.597912 0.157710
H31   H     H_    0.941122 0.719579 0.402072 0.157709
H32   H     H_    0.058869 0.719580 0.597936 0.157708
H33   H     H_    0.500844 0.925188 0.277403 0.156401
H34   H     H_    0.499625 0.925158 0.723069 0.156394
H35   H     H_    0.000646 0.425177 0.277205 0.156399
H36   H     H_    0.999143 0.425189 0.722581 0.156402
H37   H     H_    0.020394 0.779085 0.585629 0.156577
H38   H     H_    0.979601 0.779078 0.414375 0.156577
H39   H     H_    0.520398 0.279075 0.585615 0.156570
H40   H     H_    0.479598 0.279087 0.414356 0.156578
H41   H     H_    0.562798 0.041859 0.339568 0.143144
H42   H     H_    0.436954 0.041446 0.660179 0.143167
H43   H     H_    0.062903 0.541686 0.339674 0.143154
H44   H     H_    0.937209 0.541870 0.660441 0.143144
H45   H     H_    0.495500 0.077267 0.219018 0.151764
H46   H     H_    0.504027 0.077266 0.780508 0.151757
H47   H     H_    0.995701 0.577266 0.219218 0.151760
H48   H     H_    0.004512 0.577264 0.780998 0.151764
H49   H     H_    0.430631 0.036932 0.206009 0.152548
H50   H     H_    0.569151 0.037326 0.793778 0.152500
H51   H     H_    0.930725 0.537099 0.206104 0.152525
H52   H     H_    0.069374 0.536921 0.793994 0.152551
H53   H     H_    0.721118 0.069615 0.232869 0.165147
H54   H     H_    0.278883 0.069623 0.767164 0.165146
H55   H     H_    0.221117 0.569622 0.232843 0.165146
H56   H     H_    0.778883 0.569621 0.767154 0.165147
H57   H     H_    0.640589 0.069876 0.153307 0.170518
H58   H     H_    0.359412 0.069883 0.846730 0.170525
H59   H     H_    0.140588 0.569882 0.153277 0.170524
H60   H     H_    0.859412 0.569881 0.846719 0.170524
H61   H     H_    0.639483 0.930233 0.124318 0.176217
H62   H     H_    0.360516 0.930224 0.875637 0.176229
H63   H     H_    0.139484 0.430225 0.124356 0.176230
H64   H     H_    0.860516 0.430227 0.875650 0.176228
O1    O     O_R   0.565460 0.963010 0.065460 -0.624394
O2    O     O_R   0.434540 0.963010 0.934540 -0.624398
O3    O     O_R   0.065460 0.463010 0.065460 -0.624392
O4    O     O_R   0.934540 0.463010 0.934540 -0.624392
O5    O     O_R   0.934500 0.999950 0.469270 -0.621620
O6    O     O_R   0.065500 0.999950 0.530730 -0.621632
O7    O     O_R   0.434500 0.499950 0.469270 -0.621631
O8    O     O_R   0.565500 0.499950 0.530730 -0.621628
O9    O     O_R   0.934490 0.999950 0.399700 -0.606896
O10   O     O_R   0.065510 0.999950 0.600300 -0.606888
O11   O     O_R   0.434490 0.499950 0.399700 -0.606888
O12   O     O_R   0.565510 0.499950 0.600300 -0.606890
O13   O     O_R   0.000010 0.934490 0.534800 -0.589017
O14   O     O_R   0.999990 0.934490 0.465200 -0.589029
O15   O     O_R   0.500010 0.434490 0.534800 -0.589028
O16   O     O_R   0.499990 0.434490 0.465200 -0.589014
O17   O     O_R   0.565400 0.036920 0.065400 -0.626200
O18   O     O_R   0.434600 0.036920 0.934600 -0.626218
O19   O     O_R   0.065400 0.536920 0.065400 -0.626217
O20   O     O_R   0.934600 0.536920 0.934600 -0.626212
O21   O     O_R   0.499990 0.963010 0.061610 -0.609491
O22   O     O_R   0.500010 0.963010 0.938390 -0.609559
O23   O     O_R   0.999990 0.463010 0.061610 -0.609518
O24   O     O_R   0.000010 0.463010 0.938390 -0.609490
O25   O     O_R   0.499940 0.036920 0.061550 -0.618020
O26   O     O_R   0.500060 0.036920 0.938450 -0.617982
O27   O     O_R   0.999940 0.536920 0.061550 -0.618004
O28   O     O_R   0.000060 0.536920 0.938450 -0.618018
O29   O     O_R   0.536910 0.934410 0.536900 -0.626975
O30   O     O_R   0.463090 0.934410 0.463100 -0.626972
O31   O     O_R   0.036910 0.434410 0.536900 -0.626971
O32   O     O_R   0.963090 0.434410 0.463100 -0.626972
O33   O     O_R   0.536920 0.999880 0.475310 -0.615083
O34   O     O_R   0.463080 0.999880 0.524690 -0.615096
O35   O     O_R   0.036920 0.499880 0.475310 -0.615089
O36   O     O_R   0.963080 0.499880 0.524690 -0.615084
O37   O     O_R   0.463000 0.999950 0.401380 -0.621377
O38   O     O_R   0.537000 0.999950 0.598620 -0.621334
O39   O     O_R   0.963000 0.499950 0.401380 -0.621352
O40   O     O_R   0.037000 0.499950 0.598620 -0.621373
O41   O     O_R   0.536940 0.065340 0.536940 -0.590066
O42   O     O_R   0.463060 0.065340 0.463060 -0.590099
O43   O     O_R   0.036940 0.565340 0.536940 -0.590101
O44   O     O_R   0.963060 0.565340 0.463060 -0.590084
O45   O     O_R   0.999920 0.065420 0.534690 -0.614472
O46   O     O_R   0.000080 0.065420 0.465310 -0.614473
O47   O     O_R   0.499920 0.565420 0.534690 -0.614475
O48   O     O_R   0.500080 0.565420 0.465310 -0.614472
Zn1   Zn    Zn3+2 0.500000 0.950610 0.000000 0.978963
Zn2   Zn    Zn3+2 0.000000 0.450610 0.000000 0.979003
Zn3   Zn    Zn3+2 0.500000 0.049320 0.000000 0.962587
Zn4   Zn    Zn3+2 0.000000 0.549320 0.000000 0.962569
Zn5   Zn    Zn3+2 0.549320 0.999860 0.549320 0.980165
Zn6   Zn    Zn3+2 0.450680 0.999860 0.450680 0.980122
Zn7   Zn    Zn3+2 0.049320 0.499860 0.549320 0.980125
Zn8   Zn    Zn3+2 0.950680 0.499860 0.450680 0.980147
Zn9   Zn    Zn3+2 0.999970 0.999950 0.546410 1.003179
Zn10  Zn    Zn3+2 0.000030 0.999950 0.453590 1.003156
Zn11  Zn    Zn3+2 0.499970 0.499950 0.546410 1.003159
Zn12  Zn    Zn3+2 0.500030 0.499950 0.453590 1.003175
O49   O     O_3   0.724751 0.921830 0.204084 -0.657948
C169  C     C_3   0.737410 0.921475 0.173973 0.070985
H65   H     H_    0.768179 0.901765 0.202578 0.180130
H66   H     H_    0.745481 0.954842 0.169337 0.133360
C170  C     C_3   0.701676 0.899474 0.110967 -0.363946
H67   H     H_    0.694040 0.866275 0.116223 0.239278
H68   H     H_    0.671037 0.919663 0.080801 0.226339
C171  C     C_3   0.716702 0.894663 0.080541 -0.888695
H69   H     H_    0.723885 0.927580 0.074016 0.271286
H70   H     H_    0.690103 0.878792 0.034978 0.283041
H71   H     H_    0.746834 0.873787 0.109151 0.257504
O50   O     O_3   0.275247 0.921817 0.795859 -0.657952
C172  C     C_3   0.262588 0.921433 0.825968 0.070970
H72   H     H_    0.231812 0.901730 0.797343 0.180134
H73   H     H_    0.254526 0.954792 0.830640 0.133326
C173  C     C_3   0.298314 0.899400 0.888951 -0.363870
H74   H     H_    0.305942 0.866209 0.883662 0.239300
H75   H     H_    0.328958 0.919582 0.919139 0.226299
C174  C     C_3   0.283285 0.894555 0.919370 -0.888846
H76   H     H_    0.276109 0.927462 0.925927 0.271199
H77   H     H_    0.309879 0.878662 0.964918 0.283060
H78   H     H_    0.253148 0.873684 0.890738 0.257539
O51   O     O_3   0.224753 0.421819 0.204133 -0.657949
C175  C     C_3   0.237411 0.421439 0.174022 0.070967
H79   H     H_    0.268188 0.401739 0.202647 0.180135
H80   H     H_    0.245469 0.454799 0.169350 0.133323
C176  C     C_3   0.201686 0.399403 0.111040 -0.363862
H81   H     H_    0.194062 0.366211 0.116331 0.239303
H82   H     H_    0.171039 0.419582 0.080853 0.226298
C177  C     C_3   0.216713 0.394564 0.080618 -0.888848
H83   H     H_    0.223885 0.427473 0.074059 0.271197
H84   H     H_    0.190119 0.378669 0.035071 0.283065
H85   H     H_    0.246852 0.373697 0.109250 0.257539
O52   O     O_3   0.775247 0.421821 0.795875 -0.657948
C178  C     C_3   0.762586 0.421447 0.825983 0.070977
H86   H     H_    0.731813 0.401741 0.797362 0.180131
H87   H     H_    0.754522 0.454808 0.830642 0.133339
C179  C     C_3   0.798314 0.399423 0.888973 -0.363900
H88   H     H_    0.805945 0.366230 0.883694 0.239295
H89   H     H_    0.828957 0.419608 0.919154 0.226315
C180  C     C_3   0.783285 0.394591 0.919393 -0.888785
H90   H     H_    0.776107 0.427501 0.925939 0.271234
H91   H     H_    0.809880 0.378705 0.964946 0.283050
H92   H     H_    0.753149 0.373719 0.890767 0.257528
I1    I     I_    0.874331 0.080971 0.310765 -0.392441
I2    I     I_    0.125674 0.080943 0.689277 -0.392450
I3    I     I_    0.374326 0.580947 0.310730 -0.392457
I4    I     I_    0.625673 0.580951 0.689265 -0.392460
O53   O     O_3   0.421684 0.774576 0.438477 -0.641978
C181  C     C_3   0.400575 0.761020 0.379567 0.110051
H93   H     H_    0.383788 0.729138 0.369154 0.183649
H94   H     H_    0.423860 0.754689 0.376471 0.124824
C182  C     C_3   0.365725 0.794947 0.331189 -0.377077
H95   H     H_    0.342557 0.800826 0.334363 0.239112
H96   H     H_    0.382124 0.826649 0.339736 0.219737
C183  C     C_3   0.339592 0.779061 0.266659 -0.914653
H97   H     H_    0.362077 0.773622 0.262211 0.267963
H98   H     H_    0.314741 0.804370 0.232716 0.268092
H99   H     H_    0.322061 0.747803 0.256377 0.269231
O54   O     O_3   0.578317 0.774576 0.561527 -0.641970
C184  C     C_3   0.599425 0.761020 0.620437 0.110048
H100  H     H_    0.616213 0.729138 0.630850 0.183653
H101  H     H_    0.576140 0.754689 0.623532 0.124813
C185  C     C_3   0.634274 0.794948 0.668815 -0.377067
H102  H     H_    0.657443 0.800827 0.665642 0.239118
H103  H     H_    0.617874 0.826650 0.660266 0.219729
C186  C     C_3   0.660406 0.779063 0.733345 -0.914685
H104  H     H_    0.637921 0.773625 0.737791 0.267943
H105  H     H_    0.685257 0.804373 0.767288 0.268096
H106  H     H_    0.677938 0.747805 0.743627 0.269239
O55   O     O_3   0.921684 0.274576 0.438477 -0.641970
C187  C     C_3   0.900576 0.261019 0.379567 0.110054
H107  H     H_    0.883789 0.229137 0.369155 0.183660
H108  H     H_    0.923861 0.254689 0.376471 0.124819
C188  C     C_3   0.865725 0.294946 0.331189 -0.377080
H109  H     H_    0.842557 0.300824 0.334363 0.239118
H110  H     H_    0.882124 0.326648 0.339736 0.219733
C189  C     C_3   0.839593 0.279059 0.266659 -0.914642
H111  H     H_    0.862078 0.273622 0.262212 0.267954
H112  H     H_    0.814741 0.304368 0.232716 0.268093
H113  H     H_    0.822062 0.247801 0.256378 0.269240
O56   O     O_3   0.078317 0.274576 0.561528 -0.641974
C190  C     C_3   0.099425 0.261020 0.620438 0.110049
H114  H     H_    0.116213 0.229138 0.630851 0.183648
H115  H     H_    0.076140 0.254689 0.623532 0.124825
C191  C     C_3   0.134274 0.294948 0.668816 -0.377078
H116  H     H_    0.157443 0.300827 0.665644 0.239113
H117  H     H_    0.117874 0.326650 0.660267 0.219738
C192  C     C_3   0.160406 0.279063 0.733345 -0.914649
H118  H     H_    0.137920 0.273624 0.737791 0.267964
H119  H     H_    0.185256 0.304373 0.767289 0.268092
H120  H     H_    0.177938 0.247806 0.743628 0.269230
O57   O     O_3   0.436125 0.134914 0.388373 -0.622168
C193  C     C_3   0.454517 0.118955 0.368844 0.124952
H121  H     H_    0.436665 0.088141 0.342465 0.178748
H122  H     H_    0.490203 0.109922 0.407266 0.099289
C194  C     C_3   0.447938 0.152481 0.326737 -0.379228
H123  H     H_    0.412310 0.161064 0.288306 0.237565
H124  H     H_    0.466779 0.183044 0.352924 0.215304
C195  C     C_3   0.463763 0.133944 0.300653 -0.938956
H125  H     H_    0.499482 0.125584 0.338309 0.265558
H126  H     H_    0.458800 0.158943 0.270557 0.268135
H127  H     H_    0.444724 0.103838 0.273129 0.263092
O58   O     O_3   0.563883 0.134923 0.611608 -0.622148
C196  C     C_3   0.545495 0.119007 0.631160 0.124947
H128  H     H_    0.563359 0.088210 0.657586 0.178731
H129  H     H_    0.509814 0.109955 0.592747 0.099306
C197  C     C_3   0.552059 0.152581 0.673213 -0.379276
H130  H     H_    0.587682 0.161185 0.711629 0.237574
H131  H     H_    0.533201 0.183125 0.646978 0.215285
C198  C     C_3   0.536245 0.134089 0.699329 -0.938896
H132  H     H_    0.500531 0.125706 0.661688 0.265575
H133  H     H_    0.541195 0.159122 0.729384 0.268159
H134  H     H_    0.555302 0.104005 0.726903 0.263025
O59   O     O_3   0.936127 0.634918 0.388383 -0.622161
C199  C     C_3   0.954524 0.618980 0.368852 0.124937
H135  H     H_    0.936670 0.588173 0.342453 0.178738
H136  H     H_    0.990208 0.609942 0.407274 0.099299
C200  C     C_3   0.947952 0.652528 0.326770 -0.379239
H137  H     H_    0.912326 0.661118 0.288342 0.237568
H138  H     H_    0.966797 0.683084 0.352978 0.215294
C201  C     C_3   0.963778 0.634013 0.300678 -0.938935
H139  H     H_    0.999495 0.625646 0.338331 0.265565
H140  H     H_    0.958821 0.659028 0.270602 0.268143
H141  H     H_    0.944734 0.603916 0.273133 0.263064
O60   O     O_3   0.063869 0.634918 0.611622 -0.622169
C202  C     C_3   0.045471 0.618962 0.631144 0.124933
H142  H     H_    0.063318 0.588146 0.657519 0.178744
H143  H     H_    0.009784 0.609934 0.592718 0.099291
C203  C     C_3   0.052052 0.652488 0.673253 -0.379206
H144  H     H_    0.087681 0.661066 0.711688 0.237565
H145  H     H_    0.033216 0.683054 0.647070 0.215302
C204  C     C_3   0.036220 0.633955 0.699330 -0.938962
H146  H     H_    0.000500 0.625600 0.661670 0.265556
H147  H     H_    0.041186 0.658954 0.729428 0.268134
H148  H     H_    0.055254 0.603846 0.726850 0.263095
O61   O     O_3   0.029159 0.863478 0.601255 -0.621077
C205  C     C_3   0.074378 0.874688 0.642216 0.137186
H149  H     H_    0.080246 0.905416 0.666370 0.178948
H150  H     H_    0.084010 0.882276 0.618784 0.102199
C206  C     C_3   0.103960 0.838189 0.689954 -0.376581
H151  H     H_    0.094370 0.831349 0.713390 0.236546
H152  H     H_    0.099634 0.807473 0.666983 0.214882
C207  C     C_3   0.152562 0.851495 0.737596 -0.958411
H153  H     H_    0.162929 0.857639 0.715049 0.268534
H154  H     H_    0.173203 0.824513 0.771558 0.271750
H155  H     H_    0.158112 0.881782 0.762164 0.261473
O62   O     O_3   0.970842 0.863472 0.398748 -0.621081
C208  C     C_3   0.925625 0.874689 0.357788 0.137207
H156  H     H_    0.919761 0.905412 0.333630 0.178951
H157  H     H_    0.915996 0.882289 0.381223 0.102192
C209  C     C_3   0.896037 0.838188 0.310056 -0.376625
H158  H     H_    0.905627 0.831332 0.286624 0.236552
H159  H     H_    0.900355 0.807480 0.333031 0.214882
C210  C     C_3   0.847437 0.851506 0.262408 -0.958360
H160  H     H_    0.837070 0.857671 0.284951 0.268549
H161  H     H_    0.826792 0.824522 0.228452 0.271753
H162  H     H_    0.841895 0.881784 0.237834 0.261461
O63   O     O_3   0.529156 0.363469 0.601247 -0.621080
C211  C     C_3   0.574375 0.374682 0.642208 0.137191
H163  H     H_    0.580240 0.405408 0.666365 0.178949
H164  H     H_    0.584006 0.382276 0.618776 0.102197
C212  C     C_3   0.603959 0.338182 0.689942 -0.376595
H165  H     H_    0.594369 0.331334 0.713376 0.236551
H166  H     H_    0.599636 0.307469 0.666968 0.214878
C213  C     C_3   0.652560 0.351493 0.737587 -0.958389
H167  H     H_    0.662927 0.357646 0.715042 0.268539
H168  H     H_    0.673202 0.324510 0.771546 0.271754
H169  H     H_    0.658107 0.381776 0.762159 0.261468
O64   O     O_3   0.470835 0.363482 0.398737 -0.621075
C214  C     C_3   0.425616 0.374691 0.357777 0.137179
H170  H     H_    0.419748 0.405420 0.333625 0.178949
H171  H     H_    0.415985 0.382277 0.381211 0.102197
C215  C     C_3   0.396034 0.338192 0.310038 -0.376581
H172  H     H_    0.405624 0.331353 0.286601 0.236548
H173  H     H_    0.400360 0.307476 0.333007 0.214882
C216  C     C_3   0.347432 0.351499 0.262396 -0.958410
H174  H     H_    0.337065 0.357643 0.284943 0.268539
H175  H     H_    0.326792 0.324518 0.228432 0.271752
H176  H     H_    0.341882 0.381787 0.237830 0.261469
I5    I     I_    0.406601 0.943868 0.119368 -0.406739
I6    I     I_    0.593742 0.944411 0.880988 -0.406900
I7    I     I_    0.906457 0.444096 0.119219 -0.406790
I8    I     I_    0.093389 0.443851 0.880620 -0.406739

loop_
_geom_bond_atom_site_label_1
_geom_bond_atom_site_label_2
_ccdc_geom_bond_type
C177  H84   S    
C4    C36   S    
C111  H23   S    
C23   C155  T    
C200  H138  S    
O41   Zn5   S    
C204  H146  S    
C99   C103  A    
O43   Zn7   S    
C119  C161  S    
C157  I5    S    
C180  H90   S    
C171  H69   S    
C102  H18   S    
C77   O29   A    
C198  H133  S    
C112  C124  A    
C55   C59   A    
C26   C50   A    
C95   O14   A    
C180  H92   S    
C177  H85   S    
C100  O56   S    
C29   C33   A    
C100  C104  A    
C9    C13   S    
C115  H27   S    
C8    C168  S    
C201  H141  S    
C3    O3    A    
C54   C74   A    
C11   C15   S    
C12   C16   S    
C1    O1    A    
C70   C74   A    
O26   Zn3   S    
C40   H64   S    
C83   O42   A    
C86   H34   S    
C5    C13   S    
C173  C174  S    
C141  C145  A    
C115  C118  A    
C2    C34   S    
C7    C15   S    
C8    C16   S    
O36   Zn8   S    
C201  H140  S    
C160  I8    S    
C107  C124  S    
C41   C49   A    
C184  H101  S    
O21   Zn1   S    
O29   Zn5   S    
O6    Zn10  S    
O8    Zn12  S    
O31   Zn7   S    
C179  H88   S    
O16   Zn12  S    
C27   C31   A    
C214  H170  S    
C71   H15   S    
C28   C32   A    
C202  C203  S    
C103  H19   S    
C127  C136  A    
C4    O20   A    
C88   C122  S    
C62   C66   A    
C181  H93   S    
O10   Zn9   S    
O13   Zn9   S    
C216  H174  S    
C110  H22   S    
C185  C186  S    
C175  H79   S    
C193  H122  S    
C210  H161  S    
C110  C123  A    
C36   C40   A    
C68   C72   A    
O2    Zn1   S    
O54   C184  S    
C91   O5    A    
C168  H52   S    
C182  C183  S    
C80   C154  S    
C129  C133  A    
C211  H164  S    
C199  H136  S    
C84   O44   A    
C192  H118  S    
C204  H148  S    
C49   C73   S    
C59   C63   A    
C193  C194  S    
C12   H48   S    
C90   C118  S    
C207  H153  S    
C216  H176  S    
C48   O28   A    
C114  H26   S    
C111  C124  A    
C78   O32   A    
C181  C182  S    
C190  H114  S    
C57   C61   A    
O24   Zn2   S    
C27   H55   S    
C78   C106  S    
C60   C64   A    
C54   H6    S    
C128  C136  A    
C64   C94   S    
C6    C14   S    
O5    Zn9   S    
C141  O61   S    
C66   C70   A    
C9    C165  S    
C183  H97   S    
C27   C51   A    
C87   C159  S    
C188  C189  S    
C144  O64   S    
C88   C160  S    
C205  H150  S    
C97   C107  A    
C61   C65   A    
C5    C21   S    
C132  C134  A    
C215  H172  S    
C186  H104  S    
C212  H166  S    
C21   C153  T    
C191  H116  S    
C18   C150  T    
C24   C156  T    
C69   H13   S    
C41   O49   S    
C46   O26   A    
O1    Zn1   S    
C176  H82   S    
O18   Zn3   S    
C30   H58   S    
C65   I1    S    
C202  H142  S    
C209  H159  S    
C143  O63   S    
C189  H111  S    
C53   H5    S    
O39   Zn8   S    
O61   C205  S    
C37   H61   S    
C99   C108  A    
C92   O6    A    
C79   O37   A    
C56   H8    S    
C175  C176  S    
C80   O34   A    
C32   C36   A    
C90   O48   A    
C3    O19   A    
C159  I7    S    
C50   C74   S    
C1    O17   A    
O45   Zn9   S    
C121  C163  S    
C122  C164  S    
C187  H107  S    
C157  C161  S    
C85   C119  S    
O56   C190  S    
C16   C122  S    
C139  C143  A    
C116  C118  A    
C172  H73   S    
C26   H54   S    
C194  C195  S    
C19   C151  T    
O42   Zn6   S    
C99   O55   S    
C110  C114  A    
C96   O15   A    
C207  H155  S    
C165  H49   S    
C5    C85   S    
C126  H30   S    
C196  H129  S    
C160  C168  S    
O35   Zn7   S    
C170  H68   S    
C101  H17   S    
C167  H51   S    
C173  H75   S    
C127  C131  A    
C104  H20   S    
C139  C148  A    
C100  C108  A    
C213  H167  S    
C30   C34   A    
O32   Zn8   S    
C13   H41   S    
O37   Zn6   S    
O4    Zn2   S    
C10   C14   S    
C157  C165  S    
C178  H87   S    
C109  C123  A    
C19   C163  S    
C183  H99   S    
C209  H158  S    
C8    C88   S    
O49   C169  S    
C125  C129  A    
C79   C153  S    
O12   Zn11  S    
C131  O59   S    
C3    C35   S    
C28   H56   S    
C130  O58   S    
C11   C163  S    
C58   H10   S    
C97   O53   S    
C88   H36   S    
C9    C161  S    
O52   C178  S    
C17   C161  S    
C42   C50   A    
C113  C117  A    
O30   Zn6   S    
C89   C117  S    
C26   C30   A    
C174  H77   S    
C203  H144  S    
C112  C116  A    
C194  H124  S    
C4    O4    A    
C190  C191  S    
C7    C167  S    
O14   Zn10  S    
C46   C150  S    
C197  H130  S    
C52   C76   S    
C127  H31   S    
C44   O52   S    
C10   C166  S    
C96   C146  S    
C122  H4    S    
C81   C155  S    
C187  C188  S    
C196  H128  S    
C95   O13   A    
C57   H9    S    
C125  C135  A    
C93   O7    A    
C7    C23   S    
C8    C24   S    
C96   O16   A    
C186  H106  S    
C129  O57   S    
C37   C41   A    
C114  C117  A    
O63   C211  S    
C116  H28   S    
O51   C175  S    
O7    Zn11  S    
C203  C204  S    
C10   C162  S    
O15   Zn11  S    
O25   Zn3   S    
C82   O36   A    
C83   O41   A    
C91   O9    A    
C11   H47   S    
C58   C62   A    
C143  C146  A    
C11   C167  S    
C6    C166  S    
C95   C145  S    
C158  I6    S    
C131  C134  A    
C104  C106  A    
C184  H100  S    
C138  H38   S    
O40   Zn7   S    
C84   C134  S    
C179  H89   S    
C209  C210  S    
C160  C164  S    
O27   Zn4   S    
C202  H143  S    
C211  C212  S    
C54   C58   A    
C169  H65   S    
C181  H94   S    
C208  H157  S    
C126  C130  A    
C20   C164  S    
O62   C208  S    
C102  C105  A    
C175  H80   S    
C170  H67   S    
O28   Zn4   S    
C70   H14   S    
C7    C87   S    
C32   H60   S    
C47   O27   A    
C206  H152  S    
C179  C180  S    
C214  C215  S    
O55   C187  S    
C69   C73   A    
C182  H96   S    
C59   H11   S    
C85   H33   S    
C6    C22   S    
C216  H175  S    
C177  H83   S    
C212  H165  S    
C200  C201  S    
C25   C29   A    
C204  H147  S    
C142  C145  A    
C85   C157  S    
C197  C198  S    
C140  H40   S    
C87   H35   S    
C171  H70   S    
C180  H91   S    
O46   Zn10  S    
C53   C73   A    
C77   O30   A    
C2    O18   A    
C210  H160  S    
C198  H134  S    
O58   C196  S    
C169  C170  S    
C144  C146  A    
C138  C142  A    
C196  C197  S    
C87   C121  S    
C53   C57   A    
O64   C214  S    
C10   H46   S    
C42   O50   S    
C33   C37   A    
C98   C107  A    
C20   C152  T    
C142  O62   S    
C128  H32   S    
C47   O23   A    
C12   C164  S    
O34   Zn6   S    
C183  H98   S    
C188  H110  S    
C205  C206  S    
C72   H16   S    
C195  H126  S    
C47   C151  S    
C126  C135  A    
C14   C120  S    
C48   C152  S    
C93   O11   A    
C201  H139  S    
C31   C35   A    
C130  C133  A    
C108  C123  S    
C191  H117  S    
C64   C68   A    
C184  C185  S    
C158  C166  S    
O57   C193  S    
O44   Zn8   S    
O11   Zn12  S    
C137  C141  A    
O17   Zn3   S    
C113  H25   S    
C137  C147  A    
C140  C144  A    
C195  H125  S    
C208  C209  S    
C6    C86   S    
C189  H112  S    
C45   O25   A    
C60   H12   S    
C215  C216  S    
C63   C93   S    
C43   O51   S    
C9    H45   S    
C191  C192  S    
C77   C105  S    
C193  H121  S    
C210  H162  S    
C178  H86   S    
C98   C102  A    
C18   C162  S    
C120  H2    S    
C43   C51   A    
C65   C69   A    
C187  H108  S    
C67   C71   A    
C25   C49   A    
C189  H113  S    
C176  H81   S    
C56   C60   A    
C199  H135  S    
C172  H72   S    
C84   O43   A    
C200  H137  S    
C192  H119  S    
C90   O47   A    
C46   O22   A    
C98   O54   S    
C169  H66   S    
C174  H76   S    
C56   C76   A    
C31   H59   S    
C66   I2    S    
C78   O31   A    
C35   C39   A    
C198  H132  S    
C29   H57   S    
C72   C76   A    
C140  C148  A    
C1    C33   S    
C38   H62   S    
C137  H37   S    
O53   C181  S    
C211  H163  S    
C67   I3    S    
O48   Zn12  S    
C213  H168  S    
C82   O40   A    
C51   C75   S    
C89   O45   A    
C38   C42   A    
O20   Zn4   S    
C112  H24   S    
C119  H1    S    
C81   O39   A    
C2    O2    A    
C94   O12   A    
C205  H149  S    
C185  H102  S    
C15   H43   S    
O9    Zn10  S    
C92   O10   A    
C109  H21   S    
C213  H169  S    
C62   C92   S    
C212  C213  S    
O59   C199  S    
C25   H53   S    
C5    C165  S    
C48   O24   A    
C166  H50   S    
C80   O38   A    
C109  C113  A    
C82   C156  S    
C206  C207  S    
C176  C177  S    
C125  H29   S    
C203  H145  S    
C159  C167  S    
C195  H127  S    
C207  H154  S    
C128  C132  A    
C13   C119  S    
C190  H115  S    
C132  O60   S    
C101  C105  A    
C63   C67   A    
O3    Zn2   S    
C14   H42   S    
C16   H44   S    
C197  H131  S    
C39   C43   A    
C185  H103  S    
C39   H63   S    
C192  H120  S    
C188  H109  S    
C199  C200  S    
C40   C44   A    
C138  C147  A    
C172  C173  S    
C186  H105  S    
C86   C158  S    
C55   H7    S    
O50   C172  S    
C121  H3    S    
C206  H151  S    
O47   Zn11  S    
C170  C171  S    
C159  C163  S    
C139  H39   S    
C173  H74   S    
C81   O35   A    
O60   C202  S    
C22   C154  T    
C94   O8    A    
C15   C121  S    
C34   C38   A    
C17   C149  T    
C12   C168  S    
C178  C179  S    
C86   C120  S    
C171  H71   S    
C120  C162  S    
C215  H173  S    
C55   C75   A    
C71   C75   A    
C28   C52   A    
C44   C52   A    
C208  H156  S    
C194  H123  S    
O23   Zn2   S    
C89   O46   A    
C79   O33   A    
C103  C106  A    
C45   C149  S    
O19   Zn4   S    
C83   C133  S    
C136  C147  S    
C158  C162  S    
C68   I4    S    
O22   Zn1   S    
O33   Zn5   S    
C135  C148  S    
C174  H78   S    
C214  H171  S    
C111  C115  A    
O38   Zn5   S    
C182  H95   S    
C97   C101  A    
C61   C91   S    
C45   O21   A    
