data_mof_unit_54276.cif
_audit_creation_date              2012-12-11T15:45:00-0500
_audit_creation_method            fapswitch 2.2
_symmetry_space_group_name_H-M    P1
_symmetry_Int_Tables_number       1
_space_group_crystal_system       triclinic
_cell_length_a                    6.938999
_cell_length_b                    16.755149
_cell_length_c                    17.086849
_cell_angle_alpha                 100.221872
_cell_angle_beta                  88.907187
_cell_angle_gamma                 90.757157
_cell_volume                      1954.60041696

loop_
_atom_site_label
_atom_site_type_symbol
_atom_type_description
_atom_site_fract_x
_atom_site_fract_y
_atom_site_fract_z
_atom_type_partial_charge
O1    O     O_R   0.494370 0.415690 0.413450 -0.543061
O2    O     O_R   0.819420 0.429360 0.578420 -0.517190
O3    O     O_R   0.994280 0.584310 0.586550 -0.523215
C1    C     C_R   0.650602 0.414689 0.605936 0.730553
O4    O     O_R   0.823790 0.406230 0.413570 -0.547805
O5    O     O_R   0.998670 0.561000 0.420530 -0.537940
C2    C     C_R   0.655296 0.382921 0.385178 0.699823
O6    O     O_R   0.489970 0.439000 0.579470 -0.540897
O7    O     O_3   0.662300 0.550810 0.502470 -0.378642
V1    V     V_3+5 0.935380 0.490570 0.499540 1.451583
O8    O     O_R   0.328650 0.570640 0.421580 -0.541489
C3    C     C_R   0.163307 0.586251 0.394650 0.702249
O9    O     O_R   0.324290 0.593770 0.586430 -0.560692
C4    C     C_R   0.153976 0.617254 0.614784 0.778395
V2    V     V_3+5 0.435930 0.509430 0.500460 1.397245
O10   O     O_3   0.159140 0.449190 0.497530 -0.368163
C5    C     C_R   0.267809 0.691741 0.746385 -0.252517
C6    C     C_R   0.257445 0.755817 0.811230 -0.259019
C7    C     C_R   0.118375 0.816518 0.814727 -0.190828
C8    C     C_R   0.987070 0.811982 0.751789 0.373584
C9    C     C_R   0.992877 0.745249 0.687738 0.379404
C10   C     C_R   0.138802 0.686050 0.683378 -0.200668
C11   C     C_R   0.171462 0.640403 0.334249 -0.091823
C12   C     C_R   0.091295 0.865313 0.171381 -0.242542
C13   C     C_R   0.901808 0.811493 0.274496 0.361734
C14   C     C_R   0.922038 0.865467 0.219980 0.388835
C15   C     C_R   0.241169 0.812744 0.181069 -0.286254
C16   C     C_R   0.218572 0.756524 0.233011 0.089842
C17   C     C_R   0.045984 0.753811 0.278312 -0.024117
C18   C     C_R   0.021331 0.693474 0.326342 -0.188612
C19   C     C_R   0.342744 0.644864 0.289441 -0.150702
C20   C     C_R   0.365033 0.701354 0.238846 -0.066619
H1    H     H_    0.888337 0.688816 0.359408 0.159352
H2    H     H_    0.461381 0.604593 0.293835 0.123527
C21   C     C_R   0.650180 0.366205 0.671013 -0.157817
C22   C     C_R   0.613730 0.134758 0.829468 -0.135013
C23   C     C_R   0.447147 0.172137 0.716302 -0.244081
C24   C     C_R   0.474243 0.117401 0.769018 0.463097
C25   C     C_R   0.731417 0.204179 0.832706 -0.270126
C26   C     C_R   0.704413 0.258363 0.779320 0.080856
C27   C     C_R   0.560336 0.242522 0.721030 0.091221
C28   C     C_R   0.532922 0.296725 0.667674 -0.272045
C29   C     C_R   0.789409 0.383315 0.731629 0.464483
C30   C     C_R   0.816706 0.329119 0.784275 -0.229425
H3    H     H_    0.427086 0.282854 0.621223 0.136703
H4    H     H_    0.334044 0.160766 0.672809 0.125617
C31   C     C_R   0.809576 0.285972 0.272360 -0.146234
C32   C     C_R   0.796209 0.222953 0.206723 -0.224748
C33   C     C_R   0.618296 0.185051 0.184622 -0.170525
C34   C     C_R   0.452366 0.211858 0.230778 0.475467
C35   C     C_R   0.466003 0.276695 0.295061 -0.233957
C36   C     C_R   0.644285 0.314061 0.317031 -0.117284
O11   O     O_R   0.774880 0.061150 0.920630 -0.538396
O12   O     O_R   0.440980 0.093710 0.086500 -0.511477
O13   O     O_R   0.266190 0.938890 0.079390 -0.540604
C37   C     C_R   0.609135 0.116969 0.115157 0.718158
O14   O     O_R   0.445420 0.070740 0.921670 -0.519300
O15   O     O_R   0.270660 0.915760 0.913380 -0.546936
C38   C     C_R   0.614156 0.086002 0.894486 0.722100
O16   O     O_R   0.770400 0.084270 0.086640 -0.545062
O17   O     O_3   0.602590 0.949210 0.997500 -0.380179
V3    V     V_3+5 0.329470 0.009420 0.000470 1.494879
O18   O     O_R   0.940650 0.906250 0.913470 -0.544922
C39   C     C_R   0.109776 0.884161 0.884112 0.770598
O19   O     O_R   0.936210 0.929220 0.078300 -0.514695
C40   C     C_R   0.100931 0.915236 0.106769 0.752777
V4    V     V_3+5 0.828930 0.990510 0.999490 1.467615
O20   O     O_3   0.105680 0.050790 0.002500 -0.363860
H5    H     H_    0.375365 0.645428 0.746051 0.137101
H6    H     H_    0.371551 0.812553 0.145030 0.174101
O21   O     O_3   0.911144 0.449962 0.736256 -0.547523
C41   C     C_3   0.814738 0.518371 0.778368 -0.264246
H7    H     H_    0.774500 0.509874 0.839771 0.134139
H8    H     H_    0.684975 0.532769 0.746406 0.105530
H9    H     H_    0.913711 0.571518 0.783404 0.163018
H10   H     H_    0.927372 0.342417 0.828766 0.137708
O22   O     O_3   0.352928 0.050568 0.767447 -0.547907
C42   C     C_3   0.363881 0.999430 0.692410 -0.259813
H11   H     H_    0.301341 0.939447 0.698267 0.173012
H12   H     H_    0.515509 0.989343 0.670556 0.134427
H13   H     H_    0.276711 0.023541 0.648175 0.144530
H14   H     H_    0.837295 0.218022 0.879139 0.138569
H15   H     H_    0.949143 0.313665 0.287161 0.143629
H16   H     H_    0.925580 0.204441 0.172424 0.198435
O23   O     O_3   0.273700 0.177957 0.210988 -0.558255
C43   C     C_3   0.234157 0.118570 0.258176 -0.270813
H17   H     H_    0.348315 0.071583 0.251217 0.127253
H18   H     H_    0.097582 0.087482 0.237795 0.157717
H19   H     H_    0.214443 0.146590 0.321854 0.125327
H20   H     H_    0.358362 0.757827 0.859139 0.139766
H21   H     H_    0.335706 0.297151 0.328099 0.135476
O24   O     O_3   0.876672 0.879012 0.745821 -0.552252
C44   C     C_3   0.690135 0.871842 0.778676 -0.117344
H22   H     H_    0.646960 0.931795 0.811948 0.160569
H23   H     H_    0.678132 0.828091 0.820758 0.087516
H24   H     H_    0.585120 0.855633 0.730263 0.131868
O25   O     O_3   0.864007 0.741719 0.626475 -0.553121
C45   C     C_3   0.688481 0.707086 0.648467 -0.159488
H25   H     H_    0.688507 0.640684 0.630135 0.173874
H26   H     H_    0.568652 0.731588 0.618086 0.152571
H27   H     H_    0.656587 0.718515 0.713360 0.070290
O26   O     O_3   0.731985 0.811603 0.318485 -0.544273
C46   C     C_3   0.763087 0.852670 0.397031 -0.233907
H28   H     H_    0.846201 0.910278 0.399363 0.107340
H29   H     H_    0.837816 0.813611 0.432653 0.152329
H30   H     H_    0.620889 0.868222 0.426111 0.162471
H31   H     H_    0.498240 0.702398 0.204850 0.127922
O27   O     O_3   0.767842 0.913953 0.209476 -0.531477
C47   C     C_3   0.765548 0.984108 0.269119 -0.198598
H32   H     H_    0.731695 0.036957 0.241252 0.131634
H33   H     H_    0.904369 0.997981 0.300833 0.073678
H34   H     H_    0.648423 0.978284 0.312918 0.156999

loop_
_geom_bond_atom_site_label_1
_geom_bond_atom_site_label_2
_ccdc_geom_bond_type
O15   V3    S    
C5    H5    S    
C44   H22   S    
C27   C28   A    
C7    C8    A    
C12   C15   A    
C1    O6    A    
C22   C38   S    
O25   C45   S    
O11   C38   A    
O14   V3    S    
O22   C42   S    
C8    O24   S    
C3    C11   S    
C23   C24   A    
C16   C17   A    
C12   C14   A    
C2    C36   S    
C47   H33   S    
O5    C3    A    
C42   H12   S    
C13   O26   S    
O14   C38   A    
V2    O10   S    
C45   H25   S    
O13   V3    S    
O27   C47   S    
C6    C7    A    
C30   H10   S    
C21   C28   A    
C34   O23   S    
C35   H21   S    
O8    V2    S    
C19   C20   A    
O16   V4    S    
O19   V4    S    
C20   H31   S    
O1    V2    S    
C31   H15   S    
C21   C29   A    
O7    V1    S    
C12   C40   S    
C1    C21   S    
C44   H23   S    
O9    C4    A    
O15   C39   A    
O17   V3    S    
C41   H9    S    
C34   C35   A    
O12   C37   A    
C13   C17   A    
O18   V4    S    
V4    O20   S    
C6    H20   S    
C11   C18   A    
C16   C20   A    
C41   H8    S    
C47   H34   S    
C14   O27   S    
C25   C26   A    
O4    C2    A    
C42   H11   S    
O12   V3    S    
C13   C14   A    
O23   C43   S    
C32   H16   S    
C28   H3    S    
C11   C19   A    
O2    C1    A    
C29   C30   A    
C17   C18   A    
C9    O25   S    
O17   V4    S    
C31   C32   A    
C26   C30   A    
C7    C39   S    
C5    C6    A    
C19   H2    S    
C46   H29   S    
O3    C4    A    
C15   H6    S    
C32   C33   A    
C33   C34   A    
C44   H24   S    
C45   H26   S    
O9    V2    S    
C33   C37   S    
C46   H28   S    
O13   C40   A    
C43   H17   S    
C26   C27   A    
C29   O21   S    
C18   H1    S    
O1    C2    A    
C22   C25   A    
C25   H14   S    
C41   H7    S    
C43   H19   S    
O5    V1    S    
O8    C3    A    
C31   C36   A    
C24   O22   S    
O6    V2    S    
C45   H27   S    
C5    C10   A    
V3    O20   S    
C4    C10   S    
C22   C24   A    
O7    V2    S    
C35   C36   A    
O3    V1    S    
V1    O10   S    
C47   H32   S    
C42   H13   S    
O24   C44   S    
C46   H30   S    
C43   H18   S    
C23   C27   A    
O26   C46   S    
O11   V4    S    
O18   C39   A    
C37   O16   A    
O4    V1    S    
O21   C41   S    
C8    C9    A    
O19   C40   A    
C15   C16   A    
C23   H4    S    
C9    C10   A    
O2    V1    S    
