data_mof_unit_16449.cif
_audit_creation_date              2013-03-05T16:05:59-0500
_audit_creation_method            fapswitch 2.2
_symmetry_space_group_name_H-M    P1
_symmetry_Int_Tables_number       1
_space_group_crystal_system       triclinic
_cell_length_a                    8.232578
_cell_length_b                    15.10146
_cell_length_c                    17.3529
_cell_angle_alpha                 100.690021
_cell_angle_beta                  97.010207
_cell_angle_gamma                 98.743632
_cell_volume                      2070.08008542

loop_
_atom_site_label
_atom_site_type_symbol
_atom_site_description
_atom_site_fract_x
_atom_site_fract_y
_atom_site_fract_z
_atom_type_partial_charge
P1    P     P_3+3 0.993950 0.412000 0.316970 0.505347
O1    O     O_2   0.823670 0.438410 0.305690 -0.325135
O2    O     O_3   0.097540 0.445020 0.403910 -0.370299
O3    O     O_3   0.626660 0.608370 0.360070 -0.327973
O4    O     O_2   0.659749 0.517134 0.218018 -0.351477
O5    O     O_3   0.948515 0.292066 0.293528 -0.554619
O6    O     O_3   0.678740 0.694742 0.232630 -0.513367
H1    H     H_    0.541705 0.776317 0.298946 0.105708
C1    C     C_3   0.649875 0.846982 0.213497 0.375250
H2    H     H_    0.695054 0.826665 0.155968 0.068420
P2    P     P_3+3 0.694070 0.714570 0.569730 0.619901
P3    P     P_3+3 0.108579 0.776085 0.407318 0.573212
O7    O     O_2   0.863840 0.726690 0.546510 -0.320791
O8    O     O_3   0.059500 0.657930 0.401470 -0.326294
O9    O     O_2   0.987598 0.821915 0.456344 -0.325367
O10   O     O_3   0.732326 0.740304 0.673668 -0.455392
O11   O     O_3   0.053339 0.794706 0.311912 -0.474852
C2    C     C_3   0.109799 0.729600 0.257792 0.471045
H3    H     H_    0.037054 0.660090 0.253787 0.106583
H4    H     H_    0.243890 0.730100 0.275746 -0.029879
C3    C     C_3   0.086281 0.752608 0.175932 -0.813879
H5    H     H_    0.133414 0.702365 0.132996 0.190663
H6    H     H_    0.952304 0.749975 0.155274 0.263585
C4    C     C_3   0.276431 0.774182 0.758813 1.093854
C5    C     C_3   0.223223 0.743084 0.832842 -1.057942
H7    H     H_    0.309877 0.701296 0.854951 0.224476
H8    H     H_    0.230990 0.803291 0.881809 0.308622
H9    H     H_    0.093790 0.705897 0.820723 0.221462
Ba1   Ba    Ba6+2 0.844370 0.541120 0.463210 1.728164
C6    C     C_3   0.923097 0.258229 0.361638 0.323981
H10   H     H_    0.815163 0.282312 0.384761 0.101086
H11   H     H_    0.033998 0.280535 0.408203 0.128587
C7    C     C_3   0.889987 0.154072 0.339720 -0.768423
H12   H     H_    0.773266 0.129029 0.296780 0.304131
H13   H     H_    0.877876 0.125029 0.393253 0.211433
H14   H     H_    0.995032 0.129767 0.312706 0.259033
C8    C     C_3   0.772080 0.664512 0.703193 0.455091
H15   H     H_    0.902436 0.660013 0.697072 0.049681
H16   H     H_    0.690130 0.599020 0.672701 0.096510
C9    C     C_3   0.752272 0.677878 0.790604 -0.830842
H17   H     H_    0.811094 0.747906 0.823158 0.314817
H18   H     H_    0.811508 0.628673 0.819060 0.186999
H19   H     H_    0.618546 0.665984 0.796392 0.261521
P4    P     P_3+3 0.195760 0.588070 0.683040 0.518902
O12   O     O_2   0.366040 0.561620 0.694360 -0.368166
O13   O     O_3   0.092170 0.555060 0.596100 -0.312176
O14   O     O_3   0.563060 0.391710 0.639940 -0.349469
O15   O     O_3   0.233833 0.707969 0.686055 -0.562787
P5    P     P_3+3 0.088050 0.224951 0.597269 0.490018
O16   O     O_3   0.598320 0.387100 0.455790 -0.386550
O17   O     O_3   0.130210 0.342150 0.598540 -0.398498
O18   O     O_2   0.204353 0.179312 0.545285 -0.369652
O19   O     O_3   0.155250 0.207981 0.692262 -0.481729
Ba2   Ba    Ba6+2 0.345470 0.458960 0.536800 1.638056
P6    P     P_3+3 0.577166 0.595445 0.257580 0.504313
C10   C     C_3   0.571531 0.759204 0.237612 0.085578
H20   H     H_    0.454937 0.731019 0.195036 0.028066
O20   O     O_3   0.591400 0.612970 0.544220 -0.367393
C11   C     C_3   0.402137 0.297586 0.290617 0.216587
H21   H     H_    0.300804 0.321694 0.320909 0.029197
H22   H     H_    0.501664 0.356759 0.292141 0.125064
C12   C     C_3   0.325340 0.254727 0.204592 0.185761
H23   H     H_    0.222382 0.197282 0.203098 0.114647
H24   H     H_    0.273023 0.306949 0.176873 0.020166
P7    P     P_3+3 0.503803 0.271176 0.429684 0.452124
O21   O     O_2   0.325880 0.273340 0.453540 -0.384033
O22   O     O_3   0.468891 0.232340 0.326480 -0.540648
H25   H     H_    0.155707 0.822241 0.177990 0.301618
C13   C     C_3   0.114753 0.277722 0.748380 0.485590
H26   H     H_    0.183361 0.345800 0.744978 0.129720
H27   H     H_    0.979253 0.277747 0.738536 -0.008980
C14   C     C_3   0.163708 0.261915 0.831570 -0.781210
H28   H     H_    0.300206 0.281095 0.850049 0.248782
H29   H     H_    0.102822 0.304519 0.874508 0.217389
H30   H     H_    0.125523 0.188744 0.833282 0.310132
P8    P     P_3+3 0.599528 0.399690 0.741685 0.462513
C15   C     C_3   0.644677 0.240424 0.762447 0.124408
H31   H     H_    0.747208 0.275982 0.811017 0.088974
O23   O     O_2   0.488317 0.464292 0.778596 -0.397876
O24   O     O_3   0.517965 0.292501 0.758767 -0.512979
H32   H     H_    0.691671 0.228108 0.704627 0.084654
C16   C     C_3   0.574803 0.148393 0.780654 0.092406
H33   H     H_    0.497053 0.103430 0.726634 0.143673
H34   H     H_    0.496109 0.158956 0.828048 0.123577
C17   C     C_2   0.264075 0.498278 0.269446 -0.276274
C18   C     C_3   0.346047 0.568269 0.228168 0.104280
C19   C     C_2   0.291283 0.541407 0.139811 -0.244253
C20   C     C_2   0.138595 0.490013 0.110749 0.130190
C21   C     C_2   0.039373 0.451717 0.168614 -0.283256
C22   C     C_1   0.107461 0.459059 0.243863 0.216568
C23   C     C_R   0.887377 0.457018 0.856930 -0.304234
C24   C     C_R   0.819903 0.447975 0.777422 0.211744
C25   C     C_R   0.078906 0.529647 0.751517 0.210440
C26   C     C_R   0.151319 0.529772 0.829548 -0.281421
C27   C     C_R   0.055676 0.496177 0.883767 0.146428
C28   C     C_2   0.065509 0.470378 0.024365 -0.141073
C29   C     C_2   0.133438 0.509717 0.968622 -0.158178
C30   C     C_R   0.916394 0.482604 0.724804 -0.468157
H35   H     H_    0.251080 0.556542 0.984999 0.134051
H36   H     H_    0.913333 0.414955 0.147762 0.182882
H37   H     H_    0.806832 0.434242 0.896749 0.143334
H38   H     H_    0.948973 0.422412 0.007421 0.134902
H39   H     H_    0.371180 0.570670 0.102511 0.140196
H40   H     H_    0.282034 0.556936 0.848769 0.162541
H41   H     H_    0.337770 0.475167 0.315229 0.144435
H42   H     H_    0.861867 0.477377 0.663852 0.152674
C31   C     C_R   0.330685 0.823409 0.451884 0.023336
H43   H     H_    0.191109 0.952456 0.394166 0.199117
C32   C     C_R   0.585339 0.794695 0.522488 0.178249
C33   C     C_R   0.768085 0.232492 0.526714 -0.499464
C34   C     C_R   0.868327 0.176036 0.556171 0.199685
C35   C     C_R   0.805521 0.082848 0.548331 -0.219225
C36   C     C_R   0.641194 0.044063 0.509131 0.081245
C37   C     C_R   0.544944 0.102120 0.474909 -0.012101
C38   C     C_R   0.570529 0.949285 0.500633 0.090067
C39   C     C_R   0.404659 0.915799 0.459346 -0.026393
C40   C     C_R   0.315869 0.974979 0.426262 -0.063808
C41   C     C_R   0.385529 0.065298 0.432414 -0.034211
C42   C     C_R   0.657583 0.886821 0.532702 -0.200524
C43   C     C_R   0.424892 0.764019 0.481341 0.020392
C44   C     C_R   0.610369 0.196037 0.483345 0.239643
H44   H     H_    0.780343 0.907485 0.566839 0.185699
H45   H     H_    0.818011 0.304357 0.532345 0.160362
H46   H     H_    0.889153 0.042645 0.571826 0.176431
H47   H     H_    0.309562 0.105719 0.403800 0.166492
N1    N     N_R   0.789951 0.898927 0.272748 0.264891
O25   O     O_R   0.772095 0.921924 0.346900 -0.390275
O26   O     O_R   0.925161 0.934303 0.249664 -0.366808
N2    N     N_R   0.524820 0.904549 0.202390 0.217761
O27   O     O_R   0.480880 0.921012 0.132579 -0.316922
O28   O     O_R   0.454984 0.938738 0.261674 -0.388216
S1    S     S_3+6 0.474560 0.212985 0.147473 0.050703
O29   O     O_2   0.526472 0.131593 0.175383 -0.182602
O30   O     O_2   0.397444 0.184857 0.061558 -0.236794
O31   O     O_3   0.641633 0.295751 0.157729 -0.521948
H48   H     H_    0.724501 0.264967 0.131578 0.364853
S2    S     S_3+6 0.738823 0.093572 0.814705 0.027652
O32   O     O_2   0.666704 0.005054 0.834958 -0.101213
O33   O     O_2   0.844093 0.074496 0.750739 -0.261317
O34   O     O_3   0.856725 0.161330 0.896509 -0.525855
H49   H     H_    0.777260 0.176991 0.933200 0.350123
N3    N     N_R   0.346217 0.674840 0.482086 0.251126
O35   O     O_R   0.351728 0.606383 0.425704 -0.395036
O36   O     O_R   0.249711 0.664847 0.534137 -0.275475
N4    N     N_R   0.455772 0.808918 0.771451 0.232747
O37   O     O_R   0.543813 0.824091 0.841770 -0.352208
O38   O     O_R   0.519514 0.844257 0.716565 -0.309242
S3    S     S_3+6 0.176351 0.869673 0.744613 0.048773
O39   O     O_2   0.168540 0.879188 0.659551 -0.269408
O40   O     O_2   0.003560 0.856750 0.764898 -0.242551
O41   O     O_3   0.287243 0.966318 0.803813 -0.478937
H50   H     H_    0.230076 0.015930 0.790452 0.380970

loop_
_geom_bond_atom_site_label_1
_geom_bond_atom_site_label_2
_geom_bond_distance
_ccdc_geom_bond_type
C19   C20   1.356548 D    
C20   C28   1.502573 S    
P1    C22   1.846520 S    
C28   H38   1.082790 S    
P2    C32   1.858930 S    
C2    C3    1.520668 S    
C34   C35   1.398871 A    
S3    O41   1.681834 S    
O6    P6    1.755925 S    
O19   C13   1.405053 S    
H1    C10   1.113958 S    
N4    O37   1.302587 A    
C24   C30   1.402175 A    
O31   H48   0.990551 S    
C15   H31   1.109886 S    
C10   H20   1.111023 S    
C5    H9    1.102089 S    
S2    O33   1.502748 D    
O16   Ba2   2.884785 S    
O1    Ba1   2.852987 S    
O7    Ba1   2.876201 S    
S3    O40   1.499619 D    
O14   P8    1.732801 S    
N2    O27   1.300882 A    
C16   S2    1.784507 S    
C4    N4    1.464908 S    
S1    O31   1.679525 S    
C33   C44   1.394906 A    
C6    H10   1.101805 S    
O2    Ba2   2.840516 S    
C15   O24   1.400912 S    
Ba1   Ba2   4.512011 S    
C38   C39   1.431983 A    
C7    H14   1.110827 S    
C39   C40   1.396113 A    
O2    Ba1   2.897962 S    
C2    H3    1.112210 S    
C13   H27   1.107786 S    
C33   C34   1.393497 A    
C12   H24   1.110055 S    
P4    C25   1.877711 S    
C29   H35   1.081117 S    
C37   C44   1.412280 A    
C9    H19   1.108116 S    
S1    O29   1.502668 D    
P7    O22   1.751376 S    
P3    O11   1.747740 S    
O41   H50   0.990747 S    
P8    O23   1.543742 D    
C41   H47   1.078411 S    
P7    C44   1.849217 S    
P2    O20   1.589624 S    
C1    H2    1.113893 S    
O3    Ba1   2.809235 S    
O10   C8    1.403620 S    
P5    C34   1.846559 S    
C11   O22   1.403127 S    
C20   C21   1.510628 S    
C9    H18   1.105129 S    
C26   H40   1.079342 S    
C11   H21   1.110491 S    
C3    H5    1.109841 S    
C13   H26   1.110666 S    
O6    C10   1.408099 S    
C23   H37   1.079859 S    
C14   H30   1.108853 S    
C17   H41   1.081967 S    
C35   C36   1.422185 A    
N4    O38   1.301052 A    
P4    O13   1.590452 S    
C7    H12   1.109862 S    
Ba1   O16   2.814691 S    
O34   H49   0.991023 S    
S2    O34   1.681387 S    
C11   H22   1.110818 S    
C21   H36   1.083753 S    
P1    O5    1.751950 S    
C4    O15   1.426126 S    
C12   S1    1.786004 S    
C43   N3    1.405956 S    
C4    C5    1.536657 S    
C14   H29   1.109824 S    
C4    S3    1.806256 S    
C23   C24   1.396695 A    
C18   C19   1.504520 S    
P5    O17   1.746516 S    
C5    H7    1.101926 S    
C17   C18   1.505890 S    
P1    O2    1.590461 S    
C13   C14   1.522642 S    
C8    H15   1.102232 S    
C33   H45   1.082371 S    
P2    O10   1.751388 S    
P3    O9    1.546848 D    
C15   H32   1.112824 S    
P5    O18   1.544770 D    
C28   C29   1.358513 D    
O13   Ba2   2.898859 S    
C12   H23   1.111044 S    
P1    Ba1   3.378674 S    
O11   C2    1.402734 S    
C1    C10   1.536237 S    
S3    O39   1.503962 D    
C37   C41   1.401834 A    
P8    C24   1.833901 S    
O14   Ba2   2.808629 S    
C19   H39   1.080990 S    
S1    O30   1.502741 D    
C9    H17   1.108112 S    
O5    C6    1.397747 S    
P3    O8    1.749561 S    
O12   Ba2   2.853456 S    
P7    O21   1.573378 D    
C16   H34   1.111019 S    
C3    H6    1.109734 S    
C3    H25   1.110004 S    
N3    O36   1.288051 A    
O8    Ba1   2.758749 S    
C8    C9    1.524760 S    
C31   C43   1.397126 A    
P4    O12   1.515068 D    
C32   C42   1.397113 A    
C36   C37   1.427845 A    
Ba2   O20   2.814004 S    
C42   H44   1.076600 S    
C11   C12   1.527676 S    
N1    O26   1.300905 A    
C6    C7    1.521666 S    
H43   C40   1.079212 S    
O4    P6    1.545718 D    
P8    O24   1.747884 S    
C14   H28   1.108198 S    
P3    C31   1.872094 S    
C17   C22   1.319400 D    
C27   C29   1.496075 S    
C35   H46   1.076697 S    
Ba2   O21   2.876490 S    
C1    N2    1.462415 S    
C5    H8    1.111406 S    
S2    O32   1.498952 D    
C38   C42   1.419870 A    
C1    N1    1.462421 S    
C30   H42   1.081112 S    
Ba1   O13   2.839866 S    
O17   Ba2   2.759384 S    
C25   C26   1.410866 A    
O3    P6    1.742798 S    
C40   C41   1.376180 A    
C6    H11   1.106979 S    
P2    O7    1.495432 D    
C15   C16   1.525274 S    
P6    C18   1.870040 S    
N1    O25   1.301474 A    
P5    O19   1.751043 S    
P1    O1    1.514763 D    
C7    H13   1.107121 S    
C2    H4    1.108325 S    
C26   C27   1.413873 A    
O16   P7    1.755261 S    
C31   C39   1.410565 A    
C23   C27   1.406243 A    
P4    Ba2   3.379181 S    
Ba1   O20   2.885553 S    
P2    Ba1   3.399435 S    
C8    H16   1.108674 S    
C16   H33   1.111193 S    
N3    O35   1.295344 A    
C36   C38   1.434001 A    
C21   C22   1.334282 D    
C25   C30   1.395353 A    
P4    O15   1.779817 S    
C32   C43   1.389322 A    
N2    O28   1.301157 A    
