data_mof_unit_34603.cif
_audit_creation_date              2013-03-05T16:33:13-0500
_audit_creation_method            fapswitch 2.2
_symmetry_space_group_name_H-M    P1
_symmetry_Int_Tables_number       1
_space_group_crystal_system       triclinic
_cell_length_a                    27.774738
_cell_length_b                    10.84552
_cell_length_c                    9.674555
_cell_angle_alpha                 89.965136
_cell_angle_beta                  87.844365
_cell_angle_gamma                 94.438965
_cell_volume                      2903.46440926

loop_
_atom_site_label
_atom_site_type_symbol
_atom_site_description
_atom_site_fract_x
_atom_site_fract_y
_atom_site_fract_z
_atom_type_partial_charge
O1    O     O_R   0.500000 0.319640 0.618810 -0.590447
O2    O     O_R   0.500010 0.319680 0.381230 -0.587024
C1    C     C_R   0.500829 0.262925 0.500251 0.777750
O3    O     O_R   0.430260 0.500000 0.618780 -0.575825
O4    O     O_R   0.430270 0.500040 0.381190 -0.606971
C2    C     C_R   0.407727 0.497415 0.501616 0.821124
Cu1   Cu    Cu3+1 0.500000 0.499980 0.640670 0.939443
Cu2   Cu    Cu3+1 0.500000 0.500020 0.359330 0.928972
O5    O     O_R   0.499990 0.680320 0.618770 -0.572914
O6    O     O_R   0.500000 0.680360 0.381190 -0.589052
O7    O     O_R   0.569730 0.499960 0.618810 -0.577092
O8    O     O_R   0.569740 0.500000 0.381220 -0.578066
C3    C     C_R   0.500482 0.737443 0.500037 0.820843
C4    C     C_R   0.592451 0.500251 0.497789 0.793439
C5    C     C_R   0.173258 0.370538 0.492017 0.623645
O9    O     O_2   0.194003 0.264623 0.463244 -0.497924
N1    N     N_R   0.201578 0.478123 0.507760 -0.447362
C6    C     C_R   0.181331 0.588227 0.526681 0.535736
C7    C     C_R   0.281205 0.554030 0.409620 -0.198674
C8    C     C_R   0.331411 0.561228 0.409633 -0.205141
C9    C     C_R   0.327701 0.407188 0.591282 -0.366835
C10   C     C_R   0.276745 0.400948 0.595081 0.557629
C11   C     C_R   0.253523 0.476978 0.504168 0.263531
C12   C     C_R   0.101395 0.484281 0.507821 -0.143956
C13   C     C_R   0.122619 0.370411 0.502878 -0.125821
C14   C     C_R   0.092722 0.259731 0.512373 0.521903
C15   C     C_R   0.131124 0.595573 0.514149 -0.068207
C16   C     C_R   0.354858 0.490177 0.502981 -0.073818
H1    H     H_    0.346465 0.346760 0.655199 0.150922
C17   C     C_R   0.645641 0.501275 0.492436 -0.065613
C18   C     C_R   0.970474 0.379141 0.475548 0.047520
C19   C     C_R   0.979020 0.604188 0.498999 0.019058
C20   C     C_R   0.949371 0.493565 0.484373 0.059984
C21   C     C_R   0.941121 0.273518 0.438912 -0.247831
C22   C     C_R   0.891250 0.276167 0.424762 0.166083
C23   C     C_R   0.868969 0.386781 0.457291 -0.024837
C24   C     C_R   0.898515 0.497898 0.475059 -0.117532
C25   C     C_R   0.877399 0.613410 0.482257 -0.046655
C26   C     C_R   0.826302 0.611927 0.485300 0.530500
N2    N     N_R   0.798641 0.502718 0.480048 -0.461892
C27   C     C_R   0.818412 0.391858 0.469784 0.508651
C28   C     C_R   0.721609 0.494774 0.358090 0.196172
C29   C     C_R   0.671036 0.491647 0.365091 -0.236318
C30   C     C_R   0.671472 0.512485 0.614375 -0.226331
C31   C     C_R   0.721689 0.513373 0.608999 -0.141346
C32   C     C_R   0.746967 0.504188 0.481951 0.353718
O10   O     O_2   0.788730 0.287530 0.474938 -0.554616
C33   C     C_R   0.021002 0.375121 0.491527 0.003342
C34   C     C_R   0.050462 0.486927 0.504630 0.029440
C35   C     C_R   0.029299 0.600925 0.519129 0.020497
C36   C     C_R   0.042863 0.262362 0.502452 -0.302171
H2    H     H_    0.651583 0.480744 0.270615 0.159462
H3    H     H_    0.957044 0.188758 0.412053 0.132664
H4    H     H_    0.021923 0.174475 0.511616 0.147134
O11   O     O_2   0.209501 0.688350 0.565134 -0.566444
C37   C     C_R   0.109341 0.709170 0.519274 0.099320
H5    H     H_    0.351981 0.623321 0.337714 0.165829
H6    H     H_    0.263603 0.610450 0.337413 0.163805
C38   C     C_R   0.958456 0.716130 0.479273 -0.227816
C39   C     C_R   0.908549 0.724304 0.479878 0.164892
O12   O     O_2   0.803753 0.717251 0.494794 -0.561704
C40   C     C_R   0.059696 0.707203 0.555323 0.138989
H7    H     H_    0.981528 0.798879 0.458568 0.137158
H8    H     H_    0.652930 0.520329 0.714117 0.160461
H9    H     H_    0.741141 0.520966 0.703946 0.139288
C41   C     C_R   0.494896 0.062497 0.623309 0.059227
C42   C     C_R   0.505238 0.130596 0.502003 -0.046873
C43   C     C_R   0.521855 0.069140 0.384118 -0.217896
H10   H     H_    0.534299 0.119865 0.291714 0.164923
C44   C     C_R   0.519974 0.940204 0.382525 -0.230159
H11   H     H_    0.529334 0.894926 0.287482 0.156256
C45   C     C_R   0.504107 0.871686 0.501157 -0.046284
C46   C     C_R   0.494565 0.935324 0.623314 0.040698
C47   C     C_3   0.451847 0.921243 0.722587 0.354948
C48   C     C_3   0.452296 0.061817 0.721797 -0.551023
H12   H     H_    0.461244 0.880271 0.822897 0.061386
H13   H     H_    0.420275 0.098296 0.674878 0.201088
H14   H     H_    0.462464 0.103939 0.821905 0.160765
C49   C     C_R   0.537237 0.559346 0.067893 0.168187
N3    N     N_R   0.500300 0.500930 0.147930 -0.226780
C50   C     C_R   0.468523 0.420039 0.078537 0.203127
C51   C     C_R   0.466176 0.427497 0.930187 0.218971
N4    N     N_R   0.500310 0.500890 0.852020 -0.209056
C52   C     C_R   0.536795 0.559287 0.922421 0.178381
C53   C     C_3   0.554408 0.691515 0.910886 -0.526716
C54   C     C_3   0.557545 0.692310 0.068615 -0.077476
H15   H     H_    0.589423 0.703253 0.850971 0.190778
H16   H     H_    0.526342 0.749780 0.873777 0.190403
H17   H     H_    0.532698 0.755495 0.118549 0.175065
C55   C     C_3   0.136467 0.830401 0.471883 -0.332238
C56   C     C_3   0.108205 0.900078 0.368127 -0.794439
H18   H     H_    0.098066 0.839004 0.280016 0.231686
H19   H     H_    0.075018 0.933596 0.417547 0.257462
H20   H     H_    0.131055 0.981531 0.327251 0.281167
H21   H     H_    0.145262 0.889713 0.561874 0.224965
H22   H     H_    0.170846 0.813557 0.415778 0.238558
C57   C     C_3   0.891878 0.854191 0.477639 -0.358805
C58   C     C_3   0.879071 0.897719 0.623759 -0.757103
H23   H     H_    0.865678 0.991357 0.619259 0.231956
H24   H     H_    0.850816 0.833998 0.675482 0.279794
H25   H     H_    0.911730 0.902581 0.687052 0.231156
H26   H     H_    0.921441 0.919986 0.435362 0.155158
H27   H     H_    0.862143 0.862812 0.405948 0.235772
C59   C     C_3   0.044043 0.802673 0.661330 -0.390178
C60   C     C_3   0.017254 0.742544 0.788160 -0.827458
H28   H     H_    0.981228 0.699959 0.761464 0.261939
H29   H     H_    0.038703 0.670744 0.832323 0.255949
H30   H     H_    0.011764 0.813970 0.868224 0.234020
H31   H     H_    0.076399 0.855472 0.701250 0.205052
H32   H     H_    0.022648 0.873983 0.617627 0.189927
O13   O     O_3   0.411096 0.863387 0.658794 -0.552966
C61   C     C_3   0.374237 0.834268 0.760189 -0.290279
H33   H     H_    0.363638 0.918691 0.815231 0.152787
H34   H     H_    0.385419 0.765123 0.835195 0.152003
H35   H     H_    0.341965 0.792429 0.708443 0.208128
O14   O     O_3   0.248751 0.331512 0.693777 -0.575752
C62   C     C_3   0.264136 0.211017 0.706430 -0.261581
H36   H     H_    0.294256 0.210403 0.778636 0.138245
H37   H     H_    0.274524 0.170699 0.604666 0.178441
H38   H     H_    0.233629 0.150126 0.751657 0.192617
C63   C     C_3   0.436528 0.317422 0.154536 -0.321431
C64   C     C_3   0.454762 0.188877 0.130321 -0.878122
H39   H     H_    0.436016 0.139294 0.045658 0.223990
H40   H     H_    0.494277 0.195256 0.106322 0.252125
H41   H     H_    0.446726 0.130628 0.223980 0.257023
H42   H     H_    0.432923 0.328456 0.265002 0.255863
H43   H     H_    0.398182 0.317040 0.127139 0.175772
C65   C     C_3   0.421136 0.367598 0.866413 -0.340108
C66   C     C_3   0.378398 0.447760 0.894033 -0.836263
H44   H     H_    0.377727 0.483674 0.001443 0.230170
H45   H     H_    0.380408 0.529056 0.824304 0.278752
H46   H     H_    0.343652 0.392163 0.881624 0.244035
H47   H     H_    0.426739 0.341018 0.758530 0.232178
H48   H     H_    0.410810 0.274942 0.908784 0.163161
C67   C     C_3   0.610763 0.708476 0.112298 -0.355725
C68   C     C_3   0.616720 0.770537 0.252593 -0.818625
H49   H     H_    0.610727 0.870166 0.244186 0.240264
H50   H     H_    0.591318 0.726525 0.331769 0.267965
H51   H     H_    0.654135 0.763150 0.286578 0.249949
H52   H     H_    0.626525 0.617609 0.113173 0.196487
H53   H     H_    0.632923 0.767534 0.036114 0.205973
O15   O     O_3   0.111628 0.148386 0.539001 -0.555978
C69   C     C_3   0.112369 0.133721 0.683964 -0.295205
H54   H     H_    0.075023 0.118110 0.729641 0.144144
H55   H     H_    0.131996 0.214144 0.734307 0.180631
H56   H     H_    0.131931 0.051625 0.707708 0.172804
C70   C     C_3   0.747413 0.489210 0.217929 -0.413712
C71   C     C_3   0.750266 0.614598 0.145410 -0.832807
H57   H     H_    0.713547 0.643043 0.127137 0.246188
H58   H     H_    0.769902 0.685809 0.209124 0.277564
H59   H     H_    0.769981 0.608553 0.043939 0.240471
H60   H     H_    0.784704 0.461166 0.226302 0.206222
H61   H     H_    0.728044 0.418630 0.152696 0.200342
C72   C     C_3   0.864898 0.162691 0.361450 -0.347355
C73   C     C_3   0.846532 0.190497 0.218573 -0.783928
H62   H     H_    0.819096 0.259326 0.224142 0.261393
H63   H     H_    0.877096 0.226376 0.148703 0.237925
H64   H     H_    0.829712 0.104153 0.173524 0.237740
H65   H     H_    0.889671 0.088379 0.345465 0.168411
H66   H     H_    0.835457 0.121586 0.431306 0.251126

loop_
_geom_bond_atom_site_label_1
_geom_bond_atom_site_label_2
_geom_bond_distance
_ccdc_geom_bond_type
C69   H56   1.106689 S    
Cu1   N4    2.045087 S    
C73   H63   1.111011 S    
C62   H36   1.110266 S    
C46   C47   1.496500 S    
C7    C8    1.390604 A    
C12   C15   1.411405 A    
C65   C66   1.540281 S    
C61   H34   1.112541 S    
C57   C58   1.528647 S    
C67   C68   1.524271 S    
C31   C32   1.399887 A    
C30   H8    1.083091 S    
Cu1   O7    1.940338 S    
C60   H29   1.111048 S    
N1    C11   1.442874 S    
C47   H12   1.115282 S    
C23   C24   1.418833 A    
C71   H58   1.111100 S    
C63   H43   1.106846 S    
C62   H37   1.114642 S    
O4    C2    1.300982 A    
N3    C50   1.387362 A    
O7    C4    1.308891 A    
C29   H2    1.081084 S    
C5    C13   1.406368 A    
C69   H54   1.112721 S    
C69   H55   1.114474 S    
O14   C62   1.412650 S    
C5    N1    1.367672 A    
C21   C22   1.399512 A    
C28   C32   1.412422 A    
O5    C3    1.303889 A    
C61   H33   1.113142 S    
C33   C36   1.412452 A    
C2    C16   1.464001 S    
C70   C71   1.525057 S    
C43   H10   1.080750 S    
C18   C20   1.414155 A    
C44   H11   1.075426 S    
C57   H26   1.111026 S    
C66   H46   1.108181 S    
C10   O14   1.391405 S    
C41   C42   1.395004 A    
C38   C39   1.395606 A    
C9    C10   1.410775 A    
C73   H64   1.110510 S    
C49   C52   1.407888 A    
C17   C30   1.404118 A    
C23   C27   1.410184 A    
C4    C17   1.475468 S    
C68   H51   1.110393 S    
C28   C70   1.513182 S    
C59   C60   1.529620 S    
C50   C51   1.441656 A    
C40   C59   1.533083 S    
C53   H15   1.111912 S    
C7    H6    1.083020 S    
C67   H52   1.109061 S    
C26   O12   1.346128 S    
C60   H30   1.110614 S    
O2    Cu2   1.967219 S    
C47   C48   1.523690 S    
C42   C43   1.402473 A    
Cu1   Cu2   2.721838 S    
C71   H59   1.110430 S    
C25   C26   1.417235 A    
C12   C13   1.409103 A    
C68   H50   1.104144 S    
C39   C57   1.516893 S    
C62   H38   1.109361 S    
C26   N2    1.363036 A    
C15   C37   1.414067 A    
C68   H49   1.109334 S    
C8    C16   1.398054 A    
O3    Cu1   1.956475 S    
C13   C14   1.406675 A    
C53   C54   1.531702 S    
C41   C46   1.378576 A    
C9    H1    1.077097 S    
O6    C3    1.306229 A    
C20   C24   1.423170 A    
C50   C63   1.538086 S    
O1    C1    1.302140 A    
C22   C23   1.421949 A    
C7    C11   1.404590 A    
C72   H66   1.107156 S    
C24   C25   1.424448 A    
C65   H48   1.098263 S    
C56   H19   1.108747 S    
C54   C67   1.549575 S    
N4    C52   1.358318 A    
C67   H53   1.112030 S    
Cu2   O8    1.956469 S    
C51   C65   1.516702 S    
N1    C6    1.368277 A    
C27   O10   1.347173 S    
C18   C21   1.407210 A    
C52   C53   1.481709 S    
C48   H13   1.112736 S    
C19   C35   1.420387 A    
C63   C64   1.534855 S    
C57   H27   1.107640 S    
C6    O11   1.349288 S    
C25   C39   1.425817 A    
O3    C2    1.314529 A    
N2    C27   1.362070 A    
C9    C16   1.397972 A    
O8    C4    1.312629 A    
C58   H23   1.109621 S    
C58   H24   1.109028 S    
C18   C33   1.421659 A    
C31   H9    1.083043 S    
C35   C40   1.426903 A    
C37   C40   1.408079 A    
C17   C29   1.404441 A    
C28   C29   1.401504 A    
N2    C32   1.435988 S    
C64   H40   1.110087 S    
C56   H18   1.111118 S    
C30   C31   1.393070 A    
C66   H44   1.109977 S    
C53   H16   1.110366 S    
C12   C34   1.418661 A    
Cu1   O5    1.967217 S    
C33   C34   1.417877 A    
O13   C61   1.408583 S    
O1    Cu1   1.967409 S    
C10   C11   1.411974 A    
C1    C42   1.449948 S    
C6    C15   1.412635 A    
C45   C46   1.396078 A    
C54   H17   1.108045 S    
C55   H21   1.106262 S    
O4    Cu2   1.940341 S    
C55   H22   1.108119 S    
C3    C45   1.451685 S    
C58   H25   1.111298 S    
C60   H28   1.108724 S    
C38   H7    1.075785 S    
C22   C72   1.523383 S    
C19   C20   1.411956 A    
C36   H4    1.079288 S    
C64   H41   1.110055 S    
C70   H60   1.107654 S    
C64   H39   1.104737 S    
C72   H65   1.106750 S    
C14   O15   1.381425 S    
C65   H47   1.091678 S    
C56   H20   1.110614 S    
C59   H32   1.104399 S    
C47   O13   1.413771 S    
C55   C56   1.531334 S    
C59   H31   1.109676 S    
C41   C48   1.490539 S    
C37   C55   1.525287 S    
O2    C1    1.307120 A    
C71   H57   1.108480 S    
C49   C54   1.507361 S    
C70   H61   1.111765 S    
C48   H14   1.107965 S    
C49   N3    1.375678 A    
C72   C73   1.529112 S    
C63   H42   1.077232 S    
C21   H3    1.078302 S    
Cu2   O6    1.967408 S    
C34   C35   1.414315 A    
C73   H62   1.107175 S    
Cu2   N3    2.044920 S    
C43   C44   1.395420 A    
O15   C69   1.412446 S    
C44   C45   1.404961 A    
C19   C38   1.397090 A    
C51   N4    1.390256 A    
C8    H5    1.083514 S    
C14   C36   1.394207 A    
C61   H35   1.109514 S    
C5    O9    1.348990 S    
C66   H45   1.106529 S    
