data_mof_unit_48634.cif
_audit_creation_date              2012-12-10T16:44:17-0500
_audit_creation_method            fapswitch 2.2
_symmetry_space_group_name_H-M    P1
_symmetry_Int_Tables_number       1
_space_group_crystal_system       triclinic
_cell_length_a                    7.47034
_cell_length_b                    8.685909
_cell_length_c                    13.472068
_cell_angle_alpha                 95.142474
_cell_angle_beta                  78.04284
_cell_angle_gamma                 103.160918
_cell_volume                      831.901453709

loop_
_atom_site_label
_atom_site_type_symbol
_atom_type_description
_atom_site_fract_x
_atom_site_fract_y
_atom_site_fract_z
_atom_type_partial_charge
C1    C     C_R   0.543565 0.800011 0.505612 0.871786
C2    C     C_R   0.408160 0.506897 0.976735 -0.007963
C3    C     C_R   0.460633 0.552712 0.873768 0.050623
C4    C     C_R   0.550235 0.544175 0.038193 0.075643
C5    C     C_R   0.724296 0.648212 0.001737 0.165760
C6    C     C_R   0.760249 0.707885 0.905601 -0.245540
C7    C     C_R   0.631608 0.660439 0.842485 -0.188770
C8    C     C_R   0.529691 0.479846 0.133307 -0.261862
C9    C     C_R   0.826899 0.641488 0.160392 -0.173228
C10   C     C_R   0.337831 0.493748 0.804891 -0.100894
C11   C     C_2   0.562996 0.967686 0.514102 -0.374993
C12   C     C_R   0.400661 0.498018 0.693947 0.785096
C13   C     C_2   0.430122 0.031566 0.493247 -0.380247
C14   C     C_R   0.454486 0.199815 0.497029 0.884849
C15   C     C_R   0.600140 0.509517 0.306150 0.779814
C16   C     C_R   0.861396 0.693653 0.062252 -0.188333
C17   C     C_R   0.658782 0.537194 0.197161 -0.052053
C18   C     C_R   0.153327 0.417722 0.841640 -0.268016
C19   C     C_R   0.092387 0.391702 0.943464 -0.154453
C20   C     C_R   0.215970 0.429828 0.011410 0.282318
Cu1   Cu    Cu3+1 0.321300 0.483160 0.488710 0.944782
Cu2   Cu    Cu3+1 0.678700 0.516840 0.511290 0.960492
H1    H     H_    0.928403 0.686907 0.208553 0.143312
H2    H     H_    0.303456 0.960082 0.471362 0.173257
H3    H     H_    0.008597 0.614927 0.582175 0.194763
H4    H     H_    0.890252 0.790545 0.878282 0.141793
H5    H     H_    0.993051 0.774113 0.034775 0.133261
H6    H     H_    0.415711 0.383981 0.160131 0.170781
H7    H     H_    0.054684 0.376551 0.791319 0.179150
H8    H     H_    0.945824 0.339091 0.970013 0.169838
H9    H     H_    0.665645 0.714690 0.769932 0.159804
H10   H     H_    0.686096 0.038823 0.539005 0.170491
N1    N     N_2   0.947230 0.542220 0.528320 -0.172642
N2    N     N_2   0.052770 0.457780 0.471680 -0.010973
O1    O     O_R   0.383920 0.714220 0.492660 -0.588282
O2    O     O_R   0.685730 0.742660 0.511730 -0.597903
O3    O     O_R   0.275440 0.478800 0.636790 -0.595223
O4    O     O_R   0.577250 0.507240 0.655860 -0.587271
O5    O     O_R   0.314270 0.257340 0.488270 -0.599812
O6    O     O_R   0.616080 0.285780 0.507340 -0.538668
O7    O     O_R   0.422750 0.492760 0.344140 -0.586567
O8    O     O_R   0.724560 0.521200 0.363210 -0.576282
N3    N     N_2   0.975053 0.363522 0.397647 -0.247966
H11   H     H_    0.019366 0.413816 0.328239 0.251405
C21   C     C_3   0.996603 0.202070 0.393431 -0.553792
H12   H     H_    0.889995 0.125098 0.354091 0.181964
H13   H     H_    0.976430 0.159803 0.471029 0.226521
H14   H     H_    0.137799 0.192366 0.350891 0.201709
N4    N     N_2   0.134942 0.404075 0.114919 -0.447784
H15   H     H_    0.170028 0.489209 0.170005 0.244951
C22   C     C_3   0.038173 0.244530 0.142306 -0.730229
H16   H     H_    0.897939 0.247019 0.189225 0.237618
H17   H     H_    0.121714 0.194527 0.184754 0.218407
H18   H     H_    0.018992 0.163728 0.074764 0.229560

loop_
_geom_bond_atom_site_label_1
_geom_bond_atom_site_label_2
_ccdc_geom_bond_type
C2    C4    A    
N3    H11   S    
C6    C7    A    
Cu1   O1    S    
C13   C14   S    
C20   N4    S    
C11   C13   D    
C15   O8    A    
C19   C20   A    
Cu1   O5    S    
C4    C8    A    
C22   H18   S    
Cu2   O6    S    
C16   H5    S    
C2    C3    A    
C18   H7    S    
C6    H4    S    
C21   H12   S    
N3    C21   S    
C15   O7    A    
Cu2   O8    S    
C10   C12   S    
Cu2   O2    S    
C10   C18   A    
Cu1   O7    S    
C9    C17   A    
C9    C16   A    
C11   H10   S    
N1    N2    D    
C3    C7    A    
C21   H13   S    
C1    O2    A    
C12   O4    A    
C5    C6    A    
C8    H6    S    
C7    H9    S    
C14   O6    A    
C22   H16   S    
Cu2   O4    S    
Cu1   O3    S    
C1    O1    A    
C15   C17   S    
N4    H15   S    
C21   H14   S    
C12   O3    A    
C3    C10   A    
Cu2   N1    S    
C18   C19   A    
C5    C16   A    
Cu1   N2    S    
C22   H17   S    
C14   O5    A    
Cu1   Cu2   S    
C19   H8    S    
C2    C20   A    
C9    H1    S    
N2    N3    S    
C8    C17   A    
C13   H2    S    
H3    N1    S    
C4    C5    A    
N4    C22   S    
C1    C11   S    
