data_mof_unit_8999.cif
_audit_creation_date              2012-12-10T17:18:55-0500
_audit_creation_method            fapswitch 2.2
_symmetry_space_group_name_H-M    P1
_symmetry_Int_Tables_number       1
_space_group_crystal_system       triclinic
_cell_length_a                    10.176268
_cell_length_b                    10.792414
_cell_length_c                    13.625601
_cell_angle_alpha                 91.871037
_cell_angle_beta                  100.434383
_cell_angle_gamma                 96.35127
_cell_volume                      1460.5459976

loop_
_atom_site_label
_atom_site_type_symbol
_atom_type_description
_atom_site_fract_x
_atom_site_fract_y
_atom_site_fract_z
_atom_type_partial_charge
C1    C     C_R   0.055727 0.733030 0.497605 0.827937
C2    C     C_2   0.028519 0.070632 0.540947 -0.240145
C3    C     C_2   0.431102 0.511675 0.508251 -0.133465
C4    C     C_2   0.568890 0.488433 0.491627 -0.130472
C5    C     C_R   0.093312 0.510863 0.685877 0.844828
C6    C     C_R   0.905069 0.483924 0.314202 0.892863
C7    C     C_R   0.138551 0.501853 0.792957 -0.061161
C8    C     C_R   0.846890 0.453124 0.209107 -0.069528
C9    C     C_R   0.111112 0.527906 0.964594 -0.209426
C10   C     C_R   0.846515 0.349166 0.048995 -0.204429
C11   C     C_R   0.061854 0.535541 0.862973 -0.204652
C12   C     C_R   0.948050 0.267689 0.510660 0.824933
C13   C     C_R   0.914442 0.391927 0.144571 -0.208153
C14   C     C_R   0.260415 0.454795 0.824514 -0.273856
C15   C     C_R   0.712705 0.470855 0.177766 -0.255442
C16   C     C_R   0.310806 0.444234 0.925633 0.094310
C17   C     C_R   0.639893 0.419411 0.086472 0.095334
C18   C     C_R   0.236499 0.485467 0.996503 0.170940
C19   C     C_R   0.709645 0.363213 0.019261 0.177339
C20   C     C_R   0.439033 0.404773 0.957785 0.068919
C21   C     C_R   0.500802 0.428782 0.058942 0.068536
C22   C     C_3   0.761534 0.097019 0.623672 -0.338309
C23   C     C_R   0.421859 0.462069 0.129080 -0.221202
C24   C     C_3   0.320454 0.920500 0.552335 -0.315321
C25   C     C_R   0.509085 0.345479 0.892194 -0.235640
C26   C     C_R   0.290578 0.487867 0.098041 -0.238277
C27   C     C_R   0.641807 0.322949 0.923449 -0.239980
C28   C     C_2   0.094914 0.866878 0.508975 0.337137
C29   C     C_2   0.923128 0.136636 0.530297 0.343268
C30   C     C_2   0.010498 0.936917 0.543547 -0.241050
H1    H     H_    0.233898 0.515842 0.153444 0.154502
H2    H     H_    0.900293 0.304113 0.998890 0.146907
H3    H     H_    0.458882 0.466833 0.208731 0.148391
H4    H     H_    0.462349 0.312606 0.816980 0.144515
H5    H     H_    0.129763 0.114959 0.540898 0.193593
H6    H     H_    0.920696 0.894728 0.568013 0.191926
H7    H     H_    0.759606 0.197337 0.644156 0.176225
H8    H     H_    0.832851 0.055236 0.681548 0.151985
H9    H     H_    0.659483 0.048299 0.622960 0.183037
H10   H     H_    0.340432 0.824095 0.571515 0.164230
H11   H     H_    0.308402 0.975310 0.620149 0.144807
H12   H     H_    0.692657 0.277638 0.871438 0.140611
H13   H     H_    0.410136 0.966020 0.526243 0.206047
H14   H     H_    0.577698 0.414493 0.438119 0.170959
H15   H     H_    0.422291 0.585675 0.561696 0.157950
H16   H     H_    0.018238 0.375669 0.168278 0.160761
H17   H     H_    0.965938 0.570404 0.839426 0.160362
H18   H     H_    0.665471 0.623278 0.589268 0.160314
H19   H     H_    0.334516 0.376793 0.410664 0.169608
H20   H     H_    0.665947 0.526209 0.225913 0.162719
H21   H     H_    0.318495 0.432506 0.769024 0.161579
H22   H     H_    0.053345 0.558847 0.018198 0.155158
N1    N     N_2   0.322180 0.446120 0.460900 -0.188764
N2    N     N_2   0.677820 0.553880 0.539100 -0.188912
O1    O     O_R   0.935190 0.693030 0.507870 -0.629628
O2    O     O_3   0.207648 0.919725 0.474960 -0.583214
O3    O     O_R   0.064810 0.306970 0.492130 -0.631660
O4    O     O_R   0.142080 0.658430 0.482770 -0.581371
O5    O     O_R   0.857920 0.341570 0.517230 -0.585823
O6    O     O_R   0.969700 0.527180 0.651960 -0.617088
O7    O     O_R   0.030300 0.472820 0.348040 -0.603732
O8    O     O_R   0.176600 0.492580 0.626860 -0.618255
O9    O     O_R   0.823400 0.507420 0.373140 -0.602957
O10   O     O_3   0.793177 0.080618 0.527870 -0.585451
Zn1   Zn    Zn3+2 0.861850 0.523100 0.516760 0.941888
Zn2   Zn    Zn3+2 0.138150 0.476900 0.483240 0.942944

loop_
_geom_bond_atom_site_label_1
_geom_bond_atom_site_label_2
_ccdc_geom_bond_type
C2    H5    S    
C6    O9    A    
C1    C28   S    
C7    C11   A    
C5    O8    A    
O9    Zn1   S    
C8    C13   A    
N1    Zn2   S    
C12   C29   S    
C25   C27   A    
C19   C27   A    
C12   O5    A    
C10   C19   A    
C11   H17   S    
C14   H21   S    
C18   C26   A    
C30   H6    S    
O3    Zn2   S    
C16   C20   A    
C28   C30   D    
C28   O2    S    
C29   O10   S    
C26   H1    S    
N2    Zn1   S    
C1    O4    A    
O5    Zn1   S    
H18   N2    S    
C24   H11   S    
C3    N1    D    
C27   H12   S    
C9    H22   S    
C2    C29   D    
H19   N1    S    
C12   O3    A    
C6    O7    A    
C17   C19   A    
C3    H15   S    
O6    Zn1   S    
C8    C15   A    
C5    C7    S    
C9    C11   A    
C21   C23   A    
C1    O1    A    
C13   H16   S    
C14   C16   A    
C23   C26   A    
C24   O2    S    
C20   C25   A    
C22   H9    S    
C22   O10   S    
C3    C4    S    
C22   H8    S    
C10   H2    S    
C9    C18   A    
C25   H4    S    
C2    C30   S    
C20   C21   A    
C16   C18   A    
C15   H20   S    
C15   C17   A    
C24   H13   S    
O8    Zn2   S    
C24   H10   S    
C6    C8    S    
C4    H14   S    
C5    O6    A    
C4    N2    D    
O1    Zn1   S    
C22   H7    S    
O7    Zn2   S    
O4    Zn2   S    
C7    C14   A    
C17   C21   A    
C23   H3    S    
C10   C13   A    
