data_mof_unit_33204.cif
_audit_creation_date              2012-12-10T16:58:27-0500
_audit_creation_method            fapswitch 2.2
_symmetry_space_group_name_H-M    P1
_symmetry_Int_Tables_number       1
_space_group_crystal_system       triclinic
_cell_length_a                    7.766437
_cell_length_b                    8.615706
_cell_length_c                    23.342741
_cell_angle_alpha                 91.465073
_cell_angle_beta                  85.50663
_cell_angle_gamma                 93.508099
_cell_volume                      1553.88337379

loop_
_atom_site_label
_atom_site_type_symbol
_atom_type_description
_atom_site_fract_x
_atom_site_fract_y
_atom_site_fract_z
_atom_type_partial_charge
C1    C     C_R   0.545279 0.794303 0.498540 0.820469
C2    C     C_R   0.454712 0.205696 0.501412 0.805678
C3    C     C_R   0.564288 0.349844 0.755887 -0.137788
C4    C     C_R   0.437947 0.599878 0.237728 -0.143172
C5    C     C_R   0.561140 0.355681 0.696655 0.436005
C6    C     C_R   0.439171 0.613709 0.297084 0.439450
C7    C     C_R   0.504211 0.491036 0.672146 -0.355636
C8    C     C_R   0.492657 0.487383 0.327865 -0.355164
C9    C     C_R   0.448294 0.617013 0.707886 0.319234
C10   C     C_R   0.543449 0.349214 0.298339 0.322284
C11   C     C_R   0.447901 0.604654 0.767155 0.739561
C12   C     C_R   0.545387 0.341588 0.238793 0.746605
C13   C     C_R   0.506699 0.472449 0.790757 -0.050174
C14   C     C_R   0.492481 0.465876 0.208897 -0.052770
C15   C     C_2   0.569610 0.956641 0.497875 0.315285
C16   C     C_2   0.430378 0.043363 0.502021 0.309549
C17   C     C_R   0.501577 0.499372 0.610331 0.838585
C18   C     C_R   0.498187 0.499006 0.389679 0.836271
C19   C     C_R   0.352180 0.402620 0.122657 0.624818
C20   C     C_R   0.655609 0.511754 0.876553 0.622588
C21   C     C_R   0.645368 0.506825 0.117003 0.642568
C22   C     C_R   0.362752 0.406686 0.882152 0.647396
C23   C     C_R   0.651766 0.505517 0.057148 -0.057669
C24   C     C_R   0.359320 0.400289 0.941861 -0.059167
C25   C     C_R   0.503781 0.451468 0.029649 -0.089951
C26   C     C_R   0.507795 0.453065 0.969346 -0.089010
C27   C     C_R   0.351567 0.397400 0.062448 -0.079742
C28   C     C_R   0.659365 0.508826 0.936593 -0.076267
C29   C     C_R   0.802109 0.558809 0.024705 -0.267158
C30   C     C_R   0.210278 0.343722 0.974247 -0.266084
C31   C     C_R   0.807940 0.561239 0.964601 0.464675
C32   C     C_R   0.204354 0.341566 0.034369 0.464425
H1    H     H_    0.915770 0.599774 0.046064 0.202570
H2    H     H_    0.096858 0.302162 0.952874 0.202941
H3    H     H_    0.608403 0.247841 0.775199 0.222150
H4    H     H_    0.398179 0.695399 0.213522 0.220685
N1    N     N_R   0.496984 0.457414 0.147971 -0.341221
N2    N     N_R   0.508626 0.462676 0.851336 -0.342236
N3    N     N_2   0.950330 0.457950 0.484560 0.280571
N4    N     N_2   0.049670 0.542050 0.515440 0.279913
O1    O     O_R   0.389250 0.738570 0.503790 -0.580822
O2    O     O_R   0.610750 0.261430 0.496210 -0.580877
O3    O     O_R   0.678390 0.711620 0.493890 -0.534632
O4    O     O_R   0.321610 0.288380 0.506110 -0.533767
O5    O     O_R   0.355400 0.513520 0.588790 -0.592383
O6    O     O_R   0.644600 0.486480 0.411210 -0.587913
O7    O     O_R   0.644550 0.486570 0.578900 -0.571166
O8    O     O_R   0.355450 0.513430 0.421100 -0.576587
O9    O     O_2   0.210087 0.354676 0.156026 -0.408112
O10   O     O_2   0.796108 0.563947 0.843271 -0.410845
O11   O     O_2   0.785578 0.558061 0.144352 -0.479378
O12   O     O_2   0.221479 0.358337 0.854849 -0.475903
Zn1   Zn    Zn3+2 0.306930 0.518000 0.506610 1.206521
Zn2   Zn    Zn3+2 0.693070 0.482000 0.493390 1.210105
O13   O     O_3   0.956596 0.615500 0.933031 -0.658718
H5    H     H_    0.046811 0.648188 0.959399 0.335806
O14   O     O_3   0.056287 0.285904 0.065922 -0.662419
H6    H     H_    0.966760 0.251507 0.039521 0.335846
O15   O     O_3   0.611796 0.226068 0.665050 -0.670992
H7    H     H_    0.572224 0.228706 0.625892 0.337420
O16   O     O_3   0.391091 0.752998 0.322412 -0.662575
H8    H     H_    0.419103 0.758713 0.363009 0.342433
O17   O     O_3   0.395621 0.754061 0.687214 -0.631586
H9    H     H_    0.429128 0.761546 0.645598 0.346992
O18   O     O_3   0.590709 0.219282 0.325519 -0.630317
H10   H     H_    0.551948 0.224379 0.366846 0.341104
F1    F     F_    0.393708 0.723284 0.802129 -0.573211
F2    F     F_    0.596548 0.211670 0.209729 -0.568104
F3    F     F_    0.736810 0.016577 0.493146 -0.557723
F4    F     F_    0.263178 0.983430 0.506728 -0.559617
F5    F     F_    0.030471 0.357623 0.448689 -0.494557
F6    F     F_    0.969528 0.642372 0.551312 -0.495083

loop_
_geom_bond_atom_site_label_1
_geom_bond_atom_site_label_2
_ccdc_geom_bond_type
C7    C17   S    
C21   O11   S    
O13   H5    S    
C4    H4    S    
C16   F4    S    
C1    C15   S    
C25   C27   A    
C20   N2    A    
C19   O9    S    
O3    Zn2   S    
C26   C28   A    
C20   O10   S    
C3    C13   A    
C3    H3    S    
C9    C11   A    
C28   C31   A    
C23   C29   A    
O6    Zn2   S    
C23   C25   A    
O14   H6    S    
O5    Zn1   S    
O15   H7    S    
C29   C31   A    
C27   C32   A    
N4    F6    S    
O2    Zn2   S    
C14   N1    S    
C30   C32   A    
C12   F2    S    
C24   C26   A    
O1    Zn1   S    
C13   N2    S    
O16   H8    S    
C10   C12   A    
C32   O14   S    
C2    O2    A    
O7    Zn2   S    
C18   O6    A    
C6    O16   S    
C1    O1    A    
C19   C27   A    
C12   C14   A    
N4    Zn1   S    
C24   C30   A    
C21   C23   A    
C4    C14   A    
O8    Zn1   S    
C15   F3    S    
C22   C24   A    
N3    Zn2   S    
C19   N1    A    
C5    O15   S    
C4    C6    A    
C15   C16   D    
C22   N2    A    
C29   H1    S    
C11   C13   A    
C2    C16   S    
C11   F1    S    
C21   N1    A    
C22   O12   S    
O18   H10   S    
C10   O18   S    
C2    O4    A    
N3    N4    D    
C7    C9    A    
C30   H2    S    
C5    C7    A    
C6    C8    A    
C20   C28   A    
C31   O13   S    
C25   C26   A    
C9    O17   S    
O4    Zn1   S    
C1    O3    A    
C8    C10   A    
C8    C18   S    
O17   H9    S    
C17   O7    A    
C17   O5    A    
C3    C5    A    
N3    F5    S    
C18   O8    A    
