data_mof_unit_35130.cif
_audit_creation_date              2012-10-26T18:28:56-0400
_audit_creation_method            fapswitch 2.2
_symmetry_space_group_name_H-M    P1
_symmetry_Int_Tables_number       1
_space_group_crystal_system       triclinic
_cell_length_a                    11.905382
_cell_length_b                    12.97364
_cell_length_c                    15.724272
_cell_angle_alpha                 96.594858
_cell_angle_beta                  73.012775
_cell_angle_gamma                 99.700007
_cell_volume                      2283.98430288

loop_
_atom_site_label
_atom_site_type_symbol
_atom_type_description
_atom_site_fract_x
_atom_site_fract_y
_atom_site_fract_z
_atom_type_partial_charge
C1    C     C_R   0.522449 0.699985 0.498211 0.545355
C2    C     C_R   0.342978 0.021970 0.561305 -0.009194
C3    C     C_R   0.647482 0.869025 0.444829 -0.000172
C4    C     C_R   0.352518 0.130976 0.555171 -0.000171
C5    C     C_R   0.440061 0.864246 0.529445 -0.128343
C6    C     C_R   0.559939 0.135754 0.470553 -0.128343
C7    C     C_R   0.445223 0.971341 0.522826 0.041025
C8    C     C_R   0.554776 0.028658 0.477172 0.041026
C9    C     C_R   0.928226 0.593661 0.593325 -0.053683
C10   C     C_R   0.071774 0.406340 0.406675 -0.053683
C11   C     C_R   0.815697 0.587462 0.579507 0.131839
C12   C     C_R   0.477551 0.300015 0.501789 0.545355
C13   C     C_R   0.184302 0.412538 0.420493 0.131839
C14   C     C_R   0.863578 0.458482 0.458975 0.137782
C15   C     C_R   0.136422 0.541518 0.541025 0.137782
C16   C     C_R   0.426830 0.494899 0.668217 0.545798
C17   C     C_R   0.573169 0.505101 0.331783 0.545798
C18   C     C_R   0.983579 0.465830 0.465371 -0.006575
C19   C     C_R   0.016421 0.534170 0.534629 -0.006575
C20   C     C_R   0.382380 0.486056 0.765196 -0.015400
C21   C     C_R   0.617619 0.513944 0.234804 -0.015400
C22   C     C_R   0.226046 0.435232 0.897944 -0.006797
C23   C     C_R   0.359272 0.508486 0.091515 -0.031460
C24   C     C_R   0.773954 0.564769 0.102056 -0.006797
C25   C     C_R   0.264915 0.445800 0.805875 -0.122964
C26   C     C_R   0.735085 0.554201 0.194125 -0.122965
C27   C     C_R   0.462136 0.510601 0.816364 -0.103687
C28   C     C_R   0.537864 0.489399 0.183636 -0.103687
C29   C     C_R   0.430379 0.488016 0.906099 0.008291
C30   C     C_R   0.569621 0.511984 0.093901 0.008291
C31   C     C_R   0.307660 0.463644 0.950810 0.010368
C32   C     C_R   0.692340 0.536356 0.049190 0.010368
C33   C     C_R   0.518170 0.495519 0.952823 0.000771
C34   C     C_R   0.640728 0.491514 0.908485 -0.031460
C35   C     C_R   0.481830 0.504481 0.047177 0.000771
C36   C     C_1   0.148583 0.470340 0.096380 0.248787
C37   C     C_1   0.851417 0.529661 0.903620 0.248787
C38   C     C_1   0.266843 0.343974 0.367182 0.283015
C39   C     C_1   0.733156 0.656026 0.632818 0.283015
C40   C     C_1   0.944627 0.661077 0.670598 0.165105
C41   C     C_1   0.055373 0.338924 0.329402 0.165105
C42   C     C_1   0.104358 0.388136 0.933034 0.241041
C43   C     C_1   0.895642 0.611864 0.066966 0.241041
C44   C     C_1   0.321772 0.558681 0.180938 0.198605
C45   C     C_R   0.272561 0.476811 0.045309 -0.020489
C46   C     C_1   0.678228 0.441319 0.819062 0.198605
C47   C     C_1   0.252850 0.186529 0.599935 0.222307
C48   C     C_1   0.747150 0.813471 0.400068 0.222307
C49   C     C_3   0.774722 0.040493 0.391562 -0.383552
C50   C     C_3   0.225276 0.959507 0.608437 -0.383551
C51   C     C_3   0.174601 0.616593 0.611561 -0.305216
C52   C     C_3   0.825399 0.383407 0.388439 -0.305216
C53   C     C_R   0.727439 0.523189 0.954691 -0.020489
C54   C     C_R   0.461492 0.186797 0.508842 -0.010403
C55   C     C_R   0.538508 0.813203 0.491158 -0.010404
C56   C     C_R   0.657022 0.978030 0.438694 -0.009195
Cu1   Cu    Cu3+1 0.386820 0.492450 0.493500 0.977835
Cu2   Cu    Cu3+1 0.613180 0.507550 0.506500 0.977836
H1    H     H_    0.450318 0.450026 0.214349 0.154779
H2    H     H_    0.151226 0.006417 0.633510 0.162902
H3    H     H_    0.197811 0.896452 0.561488 0.138989
H4    H     H_    0.234689 0.924387 0.666717 0.143888
H5    H     H_    0.265637 0.624870 0.612183 0.189547
H6    H     H_    0.163663 0.697433 0.602322 0.100920
H7    H     H_    0.124655 0.590176 0.678614 0.147110
H8    H     H_    0.734363 0.375130 0.387817 0.189547
H9    H     H_    0.875344 0.409824 0.321386 0.147110
H10   H     H_    0.836337 0.302567 0.397677 0.100920
H11   H     H_    0.549682 0.549974 0.785651 0.154779
H12   H     H_    0.796753 0.577396 0.234118 0.162697
H13   H     H_    0.203247 0.422605 0.765882 0.162698
H14   H     H_    0.641067 0.181608 0.434963 0.117612
H15   H     H_    0.358932 0.818392 0.565035 0.117613
H16   H     H_    0.848771 0.993582 0.366487 0.162902
H17   H     H_    0.765308 0.075613 0.333282 0.143887
H18   H     H_    0.802189 0.103547 0.438509 0.138989
N1    N     N_R   0.216750 0.481110 0.483710 -0.240102
N2    N     N_1   0.993065 0.650103 0.039561 -0.244592
N3    N     N_1   0.291551 0.598733 0.251923 -0.268648
N4    N     N_1   0.708449 0.401267 0.748077 -0.268648
N5    N     N_1   0.173459 0.230966 0.635641 -0.281135
N6    N     N_1   0.826542 0.769035 0.364363 -0.281134
N7    N     N_R   0.783250 0.518890 0.516290 -0.240102
N8    N     N_1   0.050243 0.465521 0.138023 -0.263321
N9    N     N_1   0.949757 0.534480 0.861977 -0.263321
N10   N     N_1   0.331441 0.288317 0.324212 -0.296873
N11   N     N_1   0.668559 0.711683 0.675788 -0.296873
N12   N     N_1   0.955424 0.715317 0.732409 -0.273751
N13   N     N_1   0.044576 0.284684 0.267590 -0.273751
N14   N     N_1   0.006934 0.349899 0.960439 -0.244592
O1    O     O_R   0.419950 0.645670 0.495380 -0.521555
O2    O     O_R   0.580050 0.354330 0.504620 -0.521555
O3    O     O_R   0.611110 0.658410 0.506370 -0.480620
O4    O     O_R   0.388890 0.341590 0.493630 -0.480620
O5    O     O_R   0.350820 0.490050 0.621260 -0.521895
O6    O     O_R   0.649180 0.509950 0.378740 -0.521895
O7    O     O_R   0.541970 0.502800 0.632250 -0.485945
O8    O     O_R   0.458030 0.497200 0.367750 -0.485945

loop_
_geom_bond_atom_site_label_1
_geom_bond_atom_site_label_2
_ccdc_geom_bond_type
C41   N13   T    
C21   C26   A    
C23   C45   A    
C27   C29   A    
C14   C18   A    
C2    C7    A    
C39   N11   T    
C8    C56   A    
C7    C8    A    
C22   C42   S    
C43   N2    T    
C6    H14   S    
C30   C35   A    
C38   N10   T    
C37   N9    T    
Cu2   O3    S    
C24   C26   A    
C16   O7    A    
C20   C25   A    
C29   C33   A    
C3    C48   S    
C18   C19   A    
C51   H7    S    
Cu2   O6    S    
C2    C50   S    
C15   C19   A    
C3    C55   A    
C9    C19   A    
C14   C52   S    
C22   C25   A    
C49   H17   S    
C25   H13   S    
C15   C51   S    
C17   O8    A    
C52   H10   S    
C37   C53   S    
C1    O1    A    
C10   C41   S    
C12   O4    A    
Cu2   O7    S    
C14   N7    A    
C6    C54   A    
C12   O2    A    
C10   C18   A    
C13   N1    A    
C22   C31   A    
Cu1   N1    S    
C51   H5    S    
C5    C7    A    
C6    C8    A    
C11   N7    A    
C9    C40   S    
C17   C21   S    
C23   C44   S    
C42   N14   T    
C2    C4    A    
C24   C32   A    
C3    C56   A    
C16   C20   S    
C33   C34   A    
C49   H18   S    
C36   C45   S    
C17   O6    A    
C11   C39   S    
C9    C11   A    
C13   C38   S    
C52   H9    S    
C34   C46   S    
C21   C28   A    
C23   C35   A    
Cu1   O4    S    
C31   C45   A    
C26   H12   S    
C32   C53   A    
C52   H8    S    
C28   H1    S    
C50   H3    S    
C16   O5    A    
Cu1   O1    S    
C4    C54   A    
C5    C55   A    
C44   N3    T    
C51   H6    S    
C10   C13   A    
C27   H11   S    
C20   C27   A    
C49   C56   S    
C50   H2    S    
C40   N12   T    
C28   C30   A    
C1    C55   S    
C29   C31   A    
Cu2   N7    S    
C30   C32   A    
Cu1   Cu2   S    
C15   N1    A    
C36   N8    T    
C50   H4    S    
Cu1   O8    S    
C33   C35   A    
C48   N6    T    
C47   N5    T    
C5    H15   S    
C34   C53   A    
C1    O3    A    
Cu1   O5    S    
C24   C43   S    
C49   H16   S    
C46   N4    T    
Cu2   O2    S    
C12   C54   S    
C4    C47   S    
