data_mof_unit_23714.cif
_audit_creation_date              2012-12-10T18:11:42-0500
_audit_creation_method            fapswitch 2.2
_symmetry_space_group_name_H-M    P1
_symmetry_Int_Tables_number       1
_space_group_crystal_system       triclinic
_cell_length_a                    10.487733
_cell_length_b                    12.602308
_cell_length_c                    13.290237
_cell_angle_alpha                 83.465682
_cell_angle_beta                  90.949531
_cell_angle_gamma                 102.227281
_cell_volume                      1705.51514276

loop_
_atom_site_label
_atom_site_type_symbol
_atom_type_description
_atom_site_fract_x
_atom_site_fract_y
_atom_site_fract_z
_atom_type_partial_charge
C1    C     C_R   0.491511 0.439745 0.691191 0.886651
C2    C     C_3   0.061113 0.578069 0.429061 -0.187705
C3    C     C_3   0.986110 0.598994 0.521232 -0.133871
C4    C     C_3   0.878032 0.501904 0.500484 0.028317
C5    C     C_R   0.689302 0.705441 0.076149 -0.189579
C6    C     C_R   0.546442 0.594242 0.204277 -0.040342
C7    C     C_R   0.421438 0.296340 0.836866 0.536674
C8    C     C_R   0.398594 0.268823 0.940416 -0.245544
C9    C     C_R   0.440935 0.345174 0.007525 -0.258931
C10   C     C_R   0.511824 0.451335 0.973100 0.091827
C11   C     C_R   0.548982 0.475710 0.870162 -0.053231
C12   C     C_R   0.742426 0.500681 0.500298 0.847869
C13   C     C_R   0.549678 0.533019 0.038803 0.033366
C14   C     C_R   0.640594 0.630886 0.006422 0.043772
C15   C     C_R   0.681726 0.652425 0.905243 0.491167
C16   C     C_R   0.641742 0.573020 0.839833 -0.272040
C17   C     C_R   0.496830 0.520936 0.135819 -0.224780
C18   C     C_R   0.642578 0.686954 0.174858 -0.220963
C19   C     C_R   0.490908 0.402510 0.800382 -0.217536
C20   C     C_R   0.305465 0.082961 0.357461 -0.307837
C21   C     C_R   0.677027 0.806956 0.608199 0.021540
C22   C     C_R   0.725813 0.916218 0.620098 -0.255939
C23   C     C_R   0.515919 0.560015 0.309780 0.851363
C24   C     C_R   0.657381 0.994604 0.581063 -0.228305
C25   C     C_R   0.544364 0.964857 0.522868 0.016637
C26   C     C_R   0.504475 0.853411 0.506232 0.235299
C27   C     C_R   0.474812 0.042051 0.475403 -0.023426
C28   C     C_R   0.373332 0.007932 0.406619 0.196197
C29   C     C_R   0.342005 0.899701 0.386213 -0.291569
C30   C     C_R   0.407230 0.823972 0.434817 -0.200879
C31   C     C_R   0.501383 0.152369 0.493330 -0.042822
C32   C     C_R   0.337356 0.190868 0.377711 0.011648
C33   C     C_R   0.257575 0.499342 0.499756 0.860502
C34   C     C_3   0.938946 0.422228 0.570989 -0.181905
C35   C     C_3   0.049696 0.519206 0.591706 -0.161604
C36   C     C_3   0.122007 0.498337 0.499554 0.029611
C37   C     C_3   0.013908 0.401287 0.478810 -0.134448
C38   C     C_3   0.950353 0.481091 0.408328 -0.175035
H1    H     H_    0.094923 0.534451 0.666263 0.142671
H2    H     H_    0.420452 0.317418 0.086547 0.155255
H3    H     H_    0.343635 0.188469 0.968813 0.157895
H4    H     H_    0.686398 0.588595 0.765571 0.180018
H5    H     H_    0.285343 0.249919 0.340940 0.123986
H6    H     H_    0.228434 0.058313 0.304216 0.141552
H7    H     H_    0.573404 0.184634 0.546862 0.119822
H8    H     H_    0.730365 0.746122 0.638532 0.153661
H9    H     H_    0.884370 0.359077 0.628766 0.128990
H10   H     H_    0.698751 0.078047 0.593100 0.137607
H11   H     H_    0.383521 0.744112 0.411213 0.210000
H12   H     H_    0.029211 0.320721 0.461505 0.145709
H13   H     H_    0.905084 0.465905 0.333770 0.140298
H14   H     H_    0.115694 0.641291 0.371341 0.126870
H15   H     H_    0.970752 0.679541 0.538556 0.146705
H16   H     H_    0.684990 0.742465 0.228846 0.162955
H17   H     H_    0.765586 0.776891 0.055359 0.179776
N1    N     N_R   0.432930 0.222190 0.444670 -0.095087
N2    N     N_R   0.566370 0.776980 0.554790 -0.136203
O1    O     O_R   0.467970 0.366730 0.627150 -0.561630
O2    O     O_R   0.510820 0.544830 0.662520 -0.624295
O3    O     O_R   0.664630 0.410960 0.482340 -0.625094
O4    O     O_R   0.707470 0.589060 0.517710 -0.641091
O5    O     O_R   0.489180 0.455170 0.337480 -0.619670
O6    O     O_R   0.532030 0.633270 0.372850 -0.638600
O7    O     O_R   0.292530 0.410940 0.482290 -0.619461
O8    O     O_R   0.335370 0.589040 0.517660 -0.638321
Zn1   Zn    Zn3+2 0.471390 0.381080 0.476380 0.957654
Zn2   Zn    Zn3+2 0.528610 0.618920 0.523620 0.921683
H18   H     H_    0.417689 0.453719 0.160953 0.141047
O9    O     O_3   0.365021 0.222467 0.771157 -0.587927
C39   C     C_3   0.441089 0.142733 0.769760 -0.292485
H19   H     H_    0.437083 0.091600 0.844065 0.147801
H20   H     H_    0.544191 0.180488 0.747861 0.142625
H21   H     H_    0.400672 0.087752 0.712193 0.196035
H22   H     H_    0.267204 0.873443 0.331684 0.150246
H23   H     H_    0.816619 0.940121 0.659575 0.167434
O10   O     O_3   0.759891 0.751649 0.868483 -0.618417
C40   C     C_3   0.681728 0.831027 0.856298 -0.351805
H24   H     H_    0.602039 0.809529 0.801278 0.184247
H25   H     H_    0.744211 0.911031 0.828493 0.194079
H26   H     H_    0.637551 0.842872 0.928365 0.159317

loop_
_geom_bond_atom_site_label_1
_geom_bond_atom_site_label_2
_ccdc_geom_bond_type
C12   O4    A    
C34   C37   S    
C35   C36   S    
C33   O8    A    
C7    C8    A    
C40   H24   S    
C11   C19   A    
C29   C30   A    
C36   C37   S    
C1    O2    A    
C15   C16   A    
C33   C36   S    
C34   C35   S    
C2    C38   S    
O2    Zn2   S    
O1    Zn1   S    
C23   O5    A    
C8    C9    A    
O8    Zn2   S    
C39   H19   S    
C31   N1    A    
C4    C12   S    
C9    C10   A    
C23   O6    A    
C15   O10   S    
O3    Zn1   S    
C21   C22   A    
C22   H23   S    
N2    Zn2   S    
C20   H6    S    
C38   H13   S    
O6    Zn2   S    
O10   C40   S    
C40   H25   S    
C6    C18   A    
C4    C34   S    
C1    C19   S    
O5    Zn1   S    
C27   C31   A    
C24   H10   S    
C24   C25   A    
C5    C18   A    
C20   C28   A    
C25   C26   A    
C9    H2    S    
O7    Zn1   S    
C35   H1    S    
C21   N2    A    
C37   C38   S    
C11   C16   A    
O4    Zn2   S    
C3    C35   S    
C39   H21   S    
C8    H3    S    
C5    C14   A    
C2    H14   S    
C30   H11   S    
C4    C38   S    
C26   C30   A    
C7    C19   A    
C22   C24   A    
C3    C4    S    
C16   H4    S    
C21   H8    S    
C20   C32   A    
C40   H26   S    
C2    C36   S    
C6    C17   A    
C28   C29   A    
C17   H18   S    
C5    H17   S    
C10   C13   A    
C7    O9    S    
C29   H22   S    
C25   C27   A    
C13   C17   A    
C2    C3    S    
C1    O1    A    
C37   H12   S    
C3    H15   S    
C33   O7    A    
N1    Zn1   S    
C6    C23   S    
C32   H5    S    
O9    C39   S    
C26   N2    A    
C10   C11   A    
C18   H16   S    
C12   O3    A    
C31   H7    S    
C27   C28   A    
C14   C15   A    
C39   H20   S    
C34   H9    S    
C13   C14   A    
C32   N1    A    
