data_mof_unit_51564.cif
_audit_creation_date              2012-10-26T21:21:01-0400
_audit_creation_method            fapswitch 2.2
_symmetry_space_group_name_H-M    P1
_symmetry_Int_Tables_number       1
_space_group_crystal_system       triclinic
_cell_length_a                    10.876203
_cell_length_b                    10.955678
_cell_length_c                    9.720839
_cell_angle_alpha                 90.629798
_cell_angle_beta                  89.66114
_cell_angle_gamma                 87.457246
_cell_volume                      1157.06388839

loop_
_atom_site_label
_atom_site_type_symbol
_atom_type_description
_atom_site_fract_x
_atom_site_fract_y
_atom_site_fract_z
_atom_type_partial_charge
Br1   Br    Br    0.452475 0.658799 0.911596 -0.446755
Br2   Br    Br    0.323969 0.315521 0.145516 -0.551762
Br3   Br    Br    0.887555 0.101253 0.851366 -0.479187
Br4   Br    Br    0.765788 0.205848 0.558905 -0.511594
C1    C     C_R   0.493636 0.266071 0.498813 0.587888
C2    C     C_2   0.476760 0.135567 0.496483 -0.058143
C3    C     C_2   0.472166 0.407778 0.923639 0.078974
C4    C     C_R   0.262610 0.498979 0.500819 0.532439
C5    C     C_2   0.444443 0.420674 0.074675 0.267598
C6    C     C_R   0.494699 0.734660 0.500168 0.537569
C7    C     C_R   0.737562 0.489390 0.499538 0.576202
C8    C     C_R   0.140592 0.326222 0.675142 -0.141466
C9    C     C_R   0.082906 0.245008 0.759744 -0.112986
C10   C     C_R   0.958591 0.227192 0.744821 0.218748
C11   C     C_R   0.891697 0.292702 0.644821 0.192809
C12   C     C_R   0.071856 0.405766 0.586857 -0.011570
C13   C     C_R   0.942841 0.393719 0.578242 0.003825
C14   C     C_3   0.110047 0.678738 0.342708 -0.275878
C15   C     C_3   0.121567 0.648899 0.189248 -0.383330
C16   C     C_3   0.377458 0.899061 0.278949 -0.258788
C17   C     C_3   0.257263 0.976568 0.283543 -0.431099
C18   C     C_3   0.589377 0.094024 0.267975 -0.226478
C19   C     C_3   0.691579 0.996315 0.239567 -0.414095
C20   C     C_R   0.128836 0.493390 0.503571 0.040201
C21   C     C_R   0.057003 0.574179 0.420966 0.001875
C22   C     C_R   0.930261 0.565090 0.419098 -0.122792
C23   C     C_R   0.872244 0.478564 0.497352 0.008416
C24   C     C_2   0.463128 0.936991 0.393659 -0.014006
C25   C     C_2   0.501513 0.866248 0.499311 -0.101008
C26   C     C_2   0.508342 0.060787 0.389614 0.022677
Cu1   Cu    Cu3+1 0.500020 0.500020 0.638630 1.073162
Cu2   Cu    Cu3+1 0.499980 0.499980 0.361370 0.999615
H1    H     H_    0.427163 0.100127 0.583885 0.087352
H2    H     H_    0.162370 0.726152 0.135007 0.155845
H3    H     H_    0.049613 0.762586 0.356758 0.142806
H4    H     H_    0.200403 0.702513 0.384341 0.150156
H5    H     H_    0.209063 0.964038 0.383149 0.155883
H6    H     H_    0.275121 0.074681 0.271058 0.212345
H7    H     H_    0.196359 0.948268 0.198807 0.162012
H8    H     H_    0.423009 0.910301 0.177648 0.179544
H9    H     H_    0.352061 0.803163 0.284294 0.181221
H10   H     H_    0.752777 0.027374 0.156334 0.191451
H11   H     H_    0.747495 0.980289 0.333456 0.187668
H12   H     H_    0.464097 0.318452 0.876423 0.130041
H13   H     H_    0.652639 0.909016 0.205803 0.166872
H14   H     H_    0.636920 0.179913 0.285249 0.211600
H15   H     H_    0.531634 0.105005 0.174736 0.176420
H16   H     H_    0.573005 0.539407 0.110157 0.234740
H17   H     H_    0.239313 0.323225 0.681601 0.156237
H18   H     H_    0.137080 0.189407 0.830485 0.165308
H19   H     H_    0.875257 0.630228 0.359434 0.129397
H20   H     H_    0.553361 0.905742 0.582843 0.135856
H21   H     H_    0.181786 0.565780 0.171778 0.228127
H22   H     H_    0.029518 0.633832 0.144896 0.162787
N1    N     N_2   0.498640 0.498660 0.846910 -0.123445
N2    N     N_2   0.498610 0.498630 0.153040 -0.309599
O1    O     O_R   0.500020 0.321960 0.617040 -0.504873
O2    O     O_R   0.499980 0.321920 0.382900 -0.470095
O3    O     O_R   0.319670 0.500020 0.617100 -0.506168
O4    O     O_R   0.319630 0.499980 0.382950 -0.468054
O5    O     O_R   0.500020 0.678080 0.617100 -0.438106
O6    O     O_R   0.499980 0.678040 0.382960 -0.514758
O7    O     O_R   0.680370 0.500020 0.617050 -0.463113
O8    O     O_R   0.680330 0.499980 0.382900 -0.506517

loop_
_geom_bond_atom_site_label_1
_geom_bond_atom_site_label_2
_ccdc_geom_bond_type
C19   H13   S    
C3    N1    D    
C16   C24   S    
C14   H3    S    
Cu1   O5    S    
C19   H10   S    
Cu1   Cu2   S    
C17   H7    S    
C2    H1    S    
C1    O1    A    
Cu2   O2    S    
C25   H20   S    
C21   C22   A    
Cu1   N1    S    
C3    C5    S    
Cu1   O1    S    
Br4   C11   S    
C24   C26   S    
C8    H17   S    
Br1   N1    S    
Cu2   O6    S    
C12   C20   A    
C5    N2    D    
C9    C10   A    
C4    O4    A    
C8    C9    A    
Br3   C10   S    
C6    C25   S    
C15   H21   S    
C22   C23   A    
C6    O6    A    
C14   C21   S    
C1    O2    A    
C15   H22   S    
C24   C25   D    
C4    C20   S    
Cu2   N2    S    
C7    C23   S    
C16   H9    S    
C22   H19   S    
C7    O7    A    
C4    O3    A    
C1    C2    S    
C16   H8    S    
C18   H15   S    
C6    O5    A    
Cu2   O4    S    
C9    H18   S    
C13   C23   A    
Cu1   O7    S    
C19   H11   S    
C20   C21   A    
Cu2   O8    S    
C17   H5    S    
H16   N2    S    
C7    O8    A    
Cu1   O3    S    
C11   C13   A    
C18   C19   S    
C14   C15   S    
C18   C26   S    
C18   H14   S    
C16   C17   S    
C10   C11   A    
Br2   C5    S    
C14   H4    S    
C2    C26   D    
C17   H6    S    
C8    C12   A    
C12   C13   A    
C3    H12   S    
C15   H2    S    
