data_mof_unit_44787.cif
_audit_creation_date              2012-12-11T15:22:23-0500
_audit_creation_method            fapswitch 2.2
_symmetry_space_group_name_H-M    P1
_symmetry_Int_Tables_number       1
_space_group_crystal_system       monoclinic
_cell_length_a                    22.443796
_cell_length_b                    12.983409
_cell_length_c                    27.016576
_cell_angle_alpha                 90.0
_cell_angle_beta                  90.632952
_cell_angle_gamma                 90.0
_cell_volume                      7872.06836536

loop_
_atom_site_label
_atom_site_type_symbol
_atom_type_description
_atom_site_fract_x
_atom_site_fract_y
_atom_site_fract_z
_atom_type_partial_charge
C1    C     C_R   0.721278 0.346803 0.178693 0.575385
C2    C     C_R   0.278722 0.346803 0.821307 0.575385
C3    C     C_R   0.221278 0.846803 0.178693 0.575385
C4    C     C_R   0.778722 0.846803 0.821307 0.575386
C5    C     C_R   0.473948 0.162640 0.872032 -0.003979
C6    C     C_R   0.526052 0.162640 0.127968 -0.003980
C7    C     C_R   0.973948 0.662640 0.872032 -0.003979
C8    C     C_R   0.026052 0.662640 0.127968 -0.003980
C9    C     C_R   0.520587 0.257071 0.102803 -0.132576
C10   C     C_R   0.479413 0.257071 0.897197 -0.132576
C11   C     C_R   0.020587 0.757071 0.102803 -0.132576
C12   C     C_R   0.979412 0.757071 0.897197 -0.132576
C13   C     C_R   0.508931 0.258463 0.051711 0.011106
C14   C     C_R   0.491069 0.258463 0.948289 0.011106
C15   C     C_R   0.008931 0.758463 0.051711 0.011106
C16   C     C_R   0.991069 0.758463 0.948289 0.011106
C17   C     C_R   0.503717 0.164378 0.025836 0.061643
C18   C     C_R   0.496283 0.164378 0.974164 0.061643
C19   C     C_R   0.003717 0.664378 0.025836 0.061643
C20   C     C_R   0.996283 0.664378 0.974164 0.061643
C21   C     C_R   0.504760 0.351773 0.025645 -0.138476
C22   C     C_R   0.495240 0.351773 0.974355 -0.138476
C23   C     C_R   0.004760 0.851773 0.025645 -0.138476
C24   C     C_R   0.995240 0.851773 0.974355 -0.138476
C25   C     C_R   0.736449 0.961872 0.128992 0.028691
C26   C     C_R   0.263551 0.961872 0.871008 0.028691
C27   C     C_R   0.236449 0.461872 0.128992 0.028691
C28   C     C_R   0.763551 0.461872 0.871008 0.028691
C29   C     C_R   0.792133 0.946296 0.107484 -0.096334
C30   C     C_R   0.207867 0.946297 0.892516 -0.096333
C31   C     C_R   0.292133 0.446296 0.107484 -0.096333
C32   C     C_R   0.707867 0.446296 0.892516 -0.096333
C33   C     C_R   0.795785 0.926513 0.056832 -0.101798
C34   C     C_R   0.204215 0.926514 0.943168 -0.101799
C35   C     C_R   0.295785 0.426513 0.056832 -0.101798
C36   C     C_R   0.704215 0.426513 0.943168 -0.101798
C37   C     C_R   0.743919 0.926168 0.026837 0.037550
C38   C     C_R   0.256081 0.926168 0.973163 0.037550
C39   C     C_R   0.243919 0.426168 0.026837 0.037550
C40   C     C_R   0.756081 0.426168 0.973163 0.037550
C41   C     C_R   0.688257 0.938694 0.049088 -0.119534
C42   C     C_R   0.311743 0.938693 0.950912 -0.119534
C43   C     C_R   0.188257 0.438694 0.049088 -0.119534
C44   C     C_R   0.811743 0.438694 0.950912 -0.119534
C45   C     C_R   0.553784 0.157202 0.177434 0.551754
C46   C     C_R   0.446216 0.157202 0.822566 0.551755
C47   C     C_R   0.053784 0.657202 0.177434 0.551754
C48   C     C_R   0.946216 0.657202 0.822566 0.551755
C49   C     C_R   0.684548 0.954466 0.099654 -0.123332
C50   C     C_R   0.315452 0.954466 0.900346 -0.123332
C51   C     C_R   0.184548 0.454467 0.099654 -0.123332
C52   C     C_R   0.815452 0.454467 0.900346 -0.123332
C53   C     C_R   0.702327 0.869217 0.944660 -0.093651
C54   C     C_R   0.297673 0.869217 0.055340 -0.093651
C55   C     C_R   0.202327 0.369217 0.944660 -0.093651
C56   C     C_R   0.797673 0.369217 0.055340 -0.093651
C57   C     C_R   0.706688 0.858066 0.893323 0.261209
C58   C     C_R   0.293312 0.858066 0.106677 0.261210
C59   C     C_R   0.206688 0.358066 0.893323 0.261209
C60   C     C_R   0.793311 0.358066 0.106677 0.261209
C61   C     C_R   0.802963 0.943857 0.897277 -0.166151
C62   C     C_R   0.197037 0.943858 0.102723 -0.166151
C63   C     C_R   0.302963 0.443857 0.897277 -0.166151
C64   C     C_R   0.697037 0.443857 0.102723 -0.166151
C65   C     C_R   0.796567 0.959145 0.947689 -0.134070
C66   C     C_R   0.203433 0.959146 0.052312 -0.134071
C67   C     C_R   0.296567 0.459145 0.947689 -0.134071
C68   C     C_R   0.703433 0.459145 0.052311 -0.134070
C69   C     C_R   0.747849 0.917105 0.972421 -0.013614
C70   C     C_R   0.252151 0.917106 0.027579 -0.013614
C71   C     C_R   0.247849 0.417106 0.972421 -0.013614
C72   C     C_R   0.752151 0.417105 0.027579 -0.013614
C73   C     C_R   0.760259 0.887682 0.869866 0.016410
C74   C     C_R   0.239741 0.887682 0.130134 0.016410
C75   C     C_R   0.260259 0.387682 0.869866 0.016411
C76   C     C_R   0.739741 0.387682 0.130134 0.016410
C77   C     C_R   0.527959 0.168916 0.371011 0.030231
C78   C     C_R   0.472041 0.168916 0.628989 0.030230
C79   C     C_R   0.027959 0.668916 0.371011 0.030231
C80   C     C_R   0.972041 0.668916 0.628989 0.030230
C81   C     C_R   0.537044 0.259890 0.398263 -0.097784
C82   C     C_R   0.462956 0.259890 0.601737 -0.097784
C83   C     C_R   0.037044 0.759890 0.398263 -0.097784
C84   C     C_R   0.962956 0.759890 0.601737 -0.097784
C85   C     C_R   0.525597 0.262360 0.448779 -0.104527
C86   C     C_R   0.474403 0.262360 0.551221 -0.104527
C87   C     C_R   0.025596 0.762361 0.448779 -0.104527
C88   C     C_R   0.974403 0.762360 0.551221 -0.104527
C89   C     C_R   0.730890 0.002383 0.179245 0.543577
C90   C     C_R   0.269110 0.002383 0.820755 0.543577
C91   C     C_R   0.230889 0.502382 0.179245 0.543577
C92   C     C_R   0.769110 0.502382 0.820755 0.543576
C93   C     C_R   0.503915 0.174458 0.472875 0.032639
C94   C     C_R   0.496085 0.174459 0.527125 0.032639
C95   C     C_R   0.003915 0.674458 0.472875 0.032639
C96   C     C_R   0.996085 0.674459 0.527125 0.032639
C97   C     C_R   0.490810 0.085837 0.444894 -0.118010
C98   C     C_R   0.509190 0.085837 0.555106 -0.118010
C99   C     C_R   0.990810 0.585837 0.444894 -0.118010
C100  C     C_R   0.009190 0.585837 0.555106 -0.118010
C101  C     C_R   0.503093 0.082856 0.394444 -0.122087
C102  C     C_R   0.496907 0.082856 0.605556 -0.122088
C103  C     C_R   0.003093 0.582856 0.394444 -0.122088
C104  C     C_R   0.996907 0.582856 0.605556 -0.122088
C105  C     C_R   0.738710 0.958346 0.372703 0.036694
C106  C     C_R   0.261290 0.958346 0.627297 0.036694
C107  C     C_R   0.238711 0.458346 0.372703 0.036694
C108  C     C_R   0.761289 0.458346 0.627297 0.036694
C109  C     C_R   0.686402 0.941697 0.399823 -0.165926
C110  C     C_R   0.313598 0.941697 0.600177 -0.165926
C111  C     C_R   0.186402 0.441697 0.399823 -0.165926
C112  C     C_R   0.813598 0.441697 0.600177 -0.165926
C113  C     C_R   0.689156 0.926739 0.450379 -0.138782
C114  C     C_R   0.310843 0.926739 0.549621 -0.138782
C115  C     C_R   0.189157 0.426739 0.450379 -0.138782
C116  C     C_R   0.810844 0.426739 0.549621 -0.138782
C117  C     C_R   0.744291 0.925823 0.474744 -0.007499
C118  C     C_R   0.255708 0.925823 0.525256 -0.007499
C119  C     C_R   0.244291 0.425823 0.474744 -0.007499
C120  C     C_R   0.755708 0.425823 0.525256 -0.007499
C121  C     C_R   0.797039 0.933388 0.447524 -0.084649
C122  C     C_R   0.202961 0.933388 0.552476 -0.084649
C123  C     C_R   0.297039 0.433388 0.447524 -0.084649
C124  C     C_R   0.702961 0.433388 0.552476 -0.084649
C125  C     C_R   0.794653 0.949818 0.396565 0.230553
C126  C     C_R   0.205347 0.949818 0.603434 0.230553
C127  C     C_R   0.294653 0.449818 0.396565 0.230553
C128  C     C_R   0.705347 0.449818 0.603435 0.230554
C129  C     C_R   0.786798 0.978465 0.555992 -0.118863
C130  C     C_R   0.213202 0.978466 0.444008 -0.118863
C131  C     C_R   0.286798 0.478466 0.555992 -0.118863
C132  C     C_R   0.713202 0.478465 0.444008 -0.118863
C133  C     C_R   0.721281 0.347607 0.321607 0.544878
C134  C     C_R   0.278719 0.347607 0.678392 0.544879
C135  C     C_R   0.221281 0.847607 0.321607 0.544878
C136  C     C_R   0.778719 0.847607 0.678392 0.544879
C137  C     C_R   0.793426 0.962813 0.606570 -0.121214
C138  C     C_R   0.206574 0.962813 0.393430 -0.121214
C139  C     C_R   0.293426 0.462813 0.606570 -0.121214
C140  C     C_R   0.706574 0.462813 0.393430 -0.121214
C141  C     C_R   0.715385 0.833333 0.603515 -0.121704
C142  C     C_R   0.284615 0.833333 0.396485 -0.121703
C143  C     C_R   0.215385 0.333333 0.603515 -0.121703
C144  C     C_R   0.784615 0.333333 0.396485 -0.121704
C145  C     C_R   0.709237 0.848240 0.552950 -0.116611
C146  C     C_R   0.290763 0.848240 0.447050 -0.116611
C147  C     C_R   0.209237 0.348240 0.552950 -0.116611
C148  C     C_R   0.790763 0.348241 0.447050 -0.116611
C149  C     C_R   0.746534 0.917955 0.528659 0.035435
C150  C     C_R   0.253466 0.917955 0.471341 0.035435
C151  C     C_R   0.246534 0.417955 0.528659 0.035435
C152  C     C_R   0.753466 0.417955 0.471341 0.035435
C153  C     C_R   0.759712 0.886600 0.630134 0.024946
C154  C     C_R   0.240288 0.886600 0.369866 0.024945
C155  C     C_R   0.259712 0.386600 0.630134 0.024946
C156  C     C_R   0.740288 0.386600 0.369866 0.024945
C157  C     C_R   0.554487 0.158902 0.321710 0.548501
C158  C     C_R   0.445513 0.158902 0.678290 0.548500
C159  C     C_R   0.054487 0.658902 0.321710 0.548501
C160  C     C_R   0.945513 0.658902 0.678290 0.548500
C161  C     C_R   0.731654 0.001994 0.323079 0.572112
C162  C     C_R   0.268346 0.001994 0.676921 0.572112
C163  C     C_R   0.231654 0.501994 0.323079 0.572113
C164  C     C_R   0.768346 0.501994 0.676921 0.572112
C165  C     C_R   0.515738 0.069974 0.102422 -0.112424
C166  C     C_R   0.484262 0.069974 0.897578 -0.112424
C167  C     C_R   0.015738 0.569974 0.102422 -0.112424
C168  C     C_R   0.984262 0.569974 0.897578 -0.112424
C169  C     C_R   0.506623 0.069954 0.051499 0.009256
C170  C     C_R   0.493377 0.069953 0.948501 0.009256
C171  C     C_R   0.006623 0.569954 0.051499 0.009256
C172  C     C_R   0.993377 0.569954 0.948501 0.009256
C173  C     C_R   0.496966 0.976612 0.974359 -0.130897
C174  C     C_R   0.503034 0.976612 0.025641 -0.130897
C175  C     C_R   0.996966 0.476612 0.974359 -0.130898
C176  C     C_R   0.003034 0.476612 0.025641 -0.130898
Cr1   Cr    Cr6+3 0.756570 0.170940 0.251190 1.126368
Cr2   Cr    Cr6+3 0.243430 0.170940 0.748810 1.126368
Cr3   Cr    Cr6+3 0.256570 0.670940 0.251190 1.126367
Cr4   Cr    Cr6+3 0.743430 0.670940 0.748810 1.126368
Cr5   Cr    Cr6+3 0.623740 0.299110 0.249580 1.037592
Cr6   Cr    Cr6+3 0.376260 0.299110 0.750420 1.037592
Cr7   Cr    Cr6+3 0.123740 0.799110 0.249580 1.037592
Cr8   Cr    Cr6+3 0.876260 0.799110 0.750420 1.037592
Cr9   Cr    Cr6+3 0.625990 0.036240 0.250480 1.028482
Cr10  Cr    Cr6+3 0.374010 0.036240 0.749520 1.028481
Cr11  Cr    Cr6+3 0.125990 0.536240 0.250480 1.028481
Cr12  Cr    Cr6+3 0.874010 0.536240 0.749520 1.028481
H1    H     H_    0.480616 0.996666 0.878543 0.161429
H2    H     H_    0.519383 0.996666 0.121457 0.161429
H3    H     H_    0.980617 0.496666 0.878543 0.161429
H4    H     H_    0.019384 0.496666 0.121457 0.161429
H5    H     H_    0.843477 0.971628 0.880425 0.148804
H6    H     H_    0.156523 0.971629 0.119575 0.148804
H7    H     H_    0.343477 0.471628 0.880425 0.148804
H8    H     H_    0.656523 0.471628 0.119575 0.148804
H9    H     H_    0.647470 0.941508 0.027395 0.117719
H10   H     H_    0.352529 0.941507 0.972605 0.117719
H11   H     H_    0.147471 0.441508 0.027395 0.117720
H12   H     H_    0.852529 0.441508 0.972605 0.117720
H13   H     H_    0.640942 0.968303 0.115110 0.137361
H14   H     H_    0.359058 0.968302 0.884890 0.137362
H15   H     H_    0.140942 0.468303 0.115110 0.137361
H16   H     H_    0.859058 0.468303 0.884890 0.137362
H17   H     H_    0.556808 0.327217 0.381377 0.143588
H18   H     H_    0.443192 0.327217 0.618623 0.143588
H19   H     H_    0.056807 0.827217 0.381376 0.143588
H20   H     H_    0.943192 0.827217 0.618623 0.143588
H21   H     H_    0.527668 0.017934 0.537781 0.104311
H22   H     H_    0.472332 0.017934 0.462219 0.104311
H23   H     H_    0.027668 0.517934 0.537781 0.104311
H24   H     H_    0.972332 0.517934 0.462219 0.104311
H25   H     H_    0.504480 0.011874 0.625729 0.132913
H26   H     H_    0.495520 0.011874 0.374271 0.132913
H27   H     H_    0.004480 0.511874 0.625729 0.132913
H28   H     H_    0.995520 0.511874 0.374271 0.132913
H29   H     H_    0.536482 0.331581 0.469318 0.113189
H30   H     H_    0.463518 0.331581 0.530682 0.113189
H31   H     H_    0.036482 0.831581 0.469318 0.113189
H32   H     H_    0.963518 0.831581 0.530682 0.113189
H33   H     H_    0.642633 0.947869 0.382756 0.148642
H34   H     H_    0.357367 0.947869 0.617243 0.148642
H35   H     H_    0.142633 0.447869 0.382756 0.148642
H36   H     H_    0.857367 0.447869 0.617243 0.148642
H37   H     H_    0.814557 0.035123 0.537951 0.111168
H38   H     H_    0.185443 0.035123 0.462049 0.111168
H39   H     H_    0.314557 0.535123 0.537951 0.111168
H40   H     H_    0.685443 0.535122 0.462049 0.111168
H41   H     H_    0.827446 0.005611 0.626528 0.135978
H42   H     H_    0.172554 0.005611 0.373472 0.135978
H43   H     H_    0.327446 0.505611 0.626528 0.135978
H44   H     H_    0.672554 0.505611 0.373472 0.135978
H45   H     H_    0.494204 0.903645 0.954997 0.151854
H46   H     H_    0.505796 0.903645 0.045003 0.151854
H47   H     H_    0.994204 0.403645 0.954997 0.151854
H48   H     H_    0.005796 0.403645 0.045003 0.151854
H49   H     H_    0.647935 0.921011 0.470691 0.117627
H50   H     H_    0.352065 0.921011 0.529309 0.117627
H51   H     H_    0.147935 0.421010 0.470691 0.117627
H52   H     H_    0.852065 0.421011 0.529309 0.117627
H53   H     H_    0.677718 0.800997 0.532504 0.112727
H54   H     H_    0.322282 0.800996 0.467496 0.112727
H55   H     H_    0.177718 0.300996 0.532504 0.112727
H56   H     H_    0.822282 0.300997 0.467496 0.112727
H57   H     H_    0.688722 0.774121 0.620814 0.153544
H58   H     H_    0.311277 0.774120 0.379186 0.153544
H59   H     H_    0.188723 0.274120 0.620814 0.153544
H60   H     H_    0.811278 0.274121 0.379186 0.153544
H61   H     H_    0.840026 0.928302 0.466019 0.137332
H62   H     H_    0.159974 0.928303 0.533981 0.137332
H63   H     H_    0.340026 0.428303 0.466019 0.137333
H64   H     H_    0.659974 0.428302 0.533981 0.137332
H65   H     H_    0.471586 0.328847 0.877679 0.130974
H66   H     H_    0.528415 0.328847 0.122321 0.130974
H67   H     H_    0.971585 0.828847 0.877679 0.130974
H68   H     H_    0.028414 0.828847 0.122321 0.130974
H69   H     H_    0.491259 0.424667 0.955073 0.118991
H70   H     H_    0.508741 0.424667 0.044927 0.118992
H71   H     H_    0.991258 0.924667 0.955073 0.118991
H72   H     H_    0.008741 0.924667 0.044927 0.118991
H73   H     H_    0.832616 0.952005 0.129514 0.150628
H74   H     H_    0.167384 0.952006 0.870486 0.150628
H75   H     H_    0.332616 0.452005 0.129514 0.150628
H76   H     H_    0.667384 0.452005 0.870486 0.150628
H77   H     H_    0.663562 0.838360 0.962907 0.145697
H78   H     H_    0.336437 0.838360 0.037092 0.145697
H79   H     H_    0.163562 0.338360 0.962907 0.145697
H80   H     H_    0.836438 0.338360 0.037093 0.145697
H81   H     H_    0.839326 0.914036 0.041065 0.116024
H82   H     H_    0.160673 0.914038 0.958936 0.116024
H83   H     H_    0.339326 0.414036 0.041064 0.116024
H84   H     H_    0.660674 0.414036 0.958935 0.116024
H85   H     H_    0.830837 0.001702 0.967418 0.125494
H86   H     H_    0.169163 0.001703 0.032582 0.125494
H87   H     H_    0.330837 0.501702 0.967418 0.125494
H88   H     H_    0.669163 0.501702 0.032582 0.125494
O1    O     O_R   0.769900 0.064540 0.196060 -0.461147
O2    O     O_R   0.230100 0.064540 0.803940 -0.461148
O3    O     O_R   0.269900 0.564540 0.196060 -0.461147
O4    O     O_R   0.730100 0.564540 0.803940 -0.461147
O5    O     O_R   0.574760 0.239320 0.300850 -0.496576
O6    O     O_R   0.425240 0.239320 0.699150 -0.496576
O7    O     O_R   0.074760 0.739320 0.300850 -0.496576
O8    O     O_R   0.925240 0.739320 0.699150 -0.496576
O9    O     O_R   0.566290 0.069580 0.305400 -0.520151
O10   O     O_R   0.433710 0.069580 0.694600 -0.520151
O11   O     O_R   0.066290 0.569580 0.305400 -0.520151
O12   O     O_R   0.933710 0.569580 0.694600 -0.520151
O13   O     O_R   0.680760 0.993330 0.302620 -0.521579
O14   O     O_R   0.319240 0.993330 0.697380 -0.521578
O15   O     O_R   0.180760 0.493330 0.302620 -0.521579
O16   O     O_R   0.819240 0.493330 0.697380 -0.521578
O17   O     O_3   0.668770 0.168760 0.250420 -0.270363
O18   O     O_3   0.331230 0.168760 0.749580 -0.270363
O19   O     O_3   0.168770 0.668760 0.250420 -0.270363
O20   O     O_3   0.831230 0.668760 0.749580 -0.270363
O21   O     O_R   0.750800 0.274080 0.199250 -0.422490
O22   O     O_R   0.249200 0.274080 0.800750 -0.422490
O23   O     O_R   0.250800 0.774080 0.199250 -0.422491
O24   O     O_R   0.749200 0.774080 0.800750 -0.422490
O25   O     O_R   0.669990 0.371670 0.194150 -0.536018
O26   O     O_R   0.330010 0.371670 0.805850 -0.536018
O27   O     O_R   0.169990 0.871670 0.194150 -0.536017
O28   O     O_R   0.830010 0.871670 0.805850 -0.536018
O29   O     O_R   0.574600 0.238480 0.197800 -0.498633
O30   O     O_R   0.425400 0.238480 0.802200 -0.498634
O31   O     O_R   0.074600 0.738480 0.197800 -0.498633
O32   O     O_R   0.925400 0.738480 0.802200 -0.498634
O33   O     O_R   0.566130 0.068680 0.194240 -0.517849
O34   O     O_R   0.433870 0.068680 0.805760 -0.517850
O35   O     O_R   0.066130 0.568680 0.194240 -0.517849
O36   O     O_R   0.933870 0.568680 0.805760 -0.517850
O37   O     O_R   0.680610 0.992490 0.199570 -0.514022
O38   O     O_R   0.319390 0.992490 0.800430 -0.514022
O39   O     O_R   0.180610 0.492490 0.199570 -0.514023
O40   O     O_R   0.819390 0.492490 0.800430 -0.514022
O41   O     O_R   0.770060 0.065440 0.307230 -0.455636
O42   O     O_R   0.229940 0.065440 0.692770 -0.455636
O43   O     O_R   0.270060 0.565440 0.307230 -0.455636
O44   O     O_R   0.729940 0.565440 0.692770 -0.455636
O45   O     O_R   0.750960 0.274920 0.302300 -0.499887
O46   O     O_R   0.249040 0.274920 0.697700 -0.499887
O47   O     O_R   0.250960 0.774920 0.302300 -0.499887
O48   O     O_R   0.749040 0.774920 0.697700 -0.499887
O49   O     O_R   0.670160 0.372580 0.305320 -0.522313
O50   O     O_R   0.329840 0.372580 0.694680 -0.522313
O51   O     O_R   0.170160 0.872580 0.305320 -0.522313
O52   O     O_R   0.829840 0.872580 0.694680 -0.522314
Cl1   Cl    Cl    0.862386 0.960201 0.364585 -0.597970
Cl2   Cl    Cl    0.137614 0.960201 0.635415 -0.597970
Cl3   Cl    Cl    0.362386 0.460201 0.364585 -0.597970
Cl4   Cl    Cl    0.637614 0.460201 0.635415 -0.597970
S1    S     S_3+6 0.643494 0.810242 0.860846 0.008631
O53   O     O_2   0.648814 0.695395 0.855820 -0.273637
O54   O     O_2   0.587897 0.834903 0.889033 -0.323869
O55   O     O_3   0.638596 0.864497 0.804396 -0.514807
H89   H     H_    0.604855 0.828959 0.787748 0.361804
S2    S     S_3+6 0.356506 0.810241 0.139154 0.008632
O56   O     O_2   0.351185 0.695395 0.144179 -0.273638
O57   O     O_2   0.412103 0.834902 0.110967 -0.323867
O58   O     O_3   0.361404 0.864496 0.195604 -0.514806
H90   H     H_    0.395143 0.828955 0.212253 0.361804
S3    S     S_3+6 0.143494 0.310242 0.860846 0.008631
O59   O     O_2   0.148814 0.195395 0.855820 -0.273637
O60   O     O_2   0.087897 0.334903 0.889033 -0.323869
O61   O     O_3   0.138596 0.364497 0.804396 -0.514807
H91   H     H_    0.104855 0.328959 0.787748 0.361804
S4    S     S_3+6 0.856506 0.310242 0.139154 0.008632
O62   O     O_2   0.851186 0.195395 0.144180 -0.273637
O63   O     O_2   0.912103 0.334903 0.110967 -0.323869
O64   O     O_3   0.861404 0.364497 0.195604 -0.514807
H92   H     H_    0.895145 0.328959 0.212252 0.361804

loop_
_geom_bond_atom_site_label_1
_geom_bond_atom_site_label_2
_ccdc_geom_bond_type
C99   C103  A    
C7    C168  A    
C92   O40   A    
C55   C59   A    
C142  C146  A    
C131  C151  A    
C19   C20   A    
C45   O29   A    
C53   C69   A    
C38   C70   S    
S1    O53   D    
C108  C164  S    
C37   C69   S    
C26   C50   A    
C95   C99   A    
C29   C33   A    
C100  C104  A    
C31   H75   S    
C3    O27   A    
C32   H76   S    
C3    C74   S    
C9    C13   A    
C163  O43   A    
C146  C150  A    
C77   C101  A    
Cr7   O51   S    
C12   C16   A    
C142  H58   S    
C169  C174  A    
Cr2   O2    S    
C172  C175  A    
C141  C145  A    
C108  C112  A    
C138  C154  A    
C6    C165  A    
C21   C22   A    
C135  O51   A    
C112  H36   S    
C125  Cl1   S    
C174  H46   S    
C41   C49   A    
Cr12  O16   S    
C18   C170  A    
C22   H69   S    
C25   C29   A    
C27   C31   A    
C28   C32   A    
Cr9   O13   S    
Cr10  O10   S    
C62   C66   A    
C167  C171  A    
C98   C102  A    
C60   C76   A    
Cr6   O30   S    
C30   H74   S    
C78   C82   A    
C102  H25   S    
C175  C176  A    
C54   C70   A    
C147  H55   S    
C68   C72   A    
C11   H68   S    
C137  C153  A    
C2    O26   A    
C3    O23   A    
Cr8   O28   S    
C20   C172  A    
C175  H47   S    
C132  C152  A    
C62   H6    S    
C130  C138  A    
C109  H33   S    
S1    O55   S    
C160  O8    A    
C84   C88   A    
O55   H89   S    
Cr6   O6    S    
C119  C123  A    
C26   C90   S    
C5    C46   S    
C105  C125  A    
C7    C48   S    
Cr6   O26   S    
Cr3   O23   S    
C8    C47   S    
C107  C127  A    
C115  H51   S    
C136  C153  S    
C66   C70   A    
C53   H77   S    
S4    O62   D    
C57   S1    S    
C158  O6    A    
C129  C137  A    
C130  H38   S    
C39   C71   S    
C34   H82   S    
C139  H43   S    
C4    O24   A    
C89   O37   A    
C103  H28   S    
C55   C71   A    
C2    C75   S    
C92   O4    A    
Cr10  O38   S    
C10   H65   S    
C161  O13   A    
O64   H92   S    
C134  O46   A    
Cr4   O4    S    
C46   O34   A    
C6    C9    A    
C129  C149  A    
C64   C68   A    
Cr5   O17   S    
C48   O36   A    
C86   H30   S    
C81   H17   S    
C57   C73   A    
C83   H19   S    
C123  C127  A    
C78   C158  S    
C87   C95   A    
C130  C150  A    
C141  H57   S    
C23   C24   A    
C27   C91   S    
C110  C114  A    
C114  H50   S    
C44   C52   A    
C106  C162  S    
C164  O44   A    
C79   C103  A    
C11   C15   A    
C27   C51   A    
C7    C12   A    
C98   H21   S    
C49   H13   S    
C30   C34   A    
C65   H85   S    
C138  H42   S    
C41   H9    S    
C10   C14   A    
C164  O16   A    
C133  O49   A    
C56   C72   A    
S4    O64   S    
C108  C128  A    
C116  C120  A    
C144  C156  A    
C147  C151  A    
C121  C125  A    
C61   C65   A    
C122  H62   S    
C84   H20   S    
C143  C155  A    
C139  C155  A    
Cr5   O25   S    
C146  H54   S    
C89   O1    A    
C17   C18   A    
C36   H84   S    
C5    C166  A    
C142  C154  A    
C91   O3    A    
C4    C73   S    
Cr12  O20   S    
C42   C50   A    
C113  C117  A    
C107  C163  S    
C23   H72   S    
C26   C30   A    
S2    O57   D    
C58   S2    S    
C128  Cl4   S    
C105  C161  S    
Cr9   O17   S    
Cr10  O14   S    
C61   H5    S    
C112  C116  A    
Cr11  O19   S    
C58   C74   A    
Cr4   O44   S    
C105  C109  A    
C40   C72   S    
C1    C76   S    
C107  C111  A    
C148  C152  A    
C117  C149  S    
C44   H12   S    
S2    O58   S    
C171  C176  A    
C100  H23   S    
C115  C119  A    
C13   C17   A    
C166  H1    S    
C14   C22   A    
S3    O60   D    
C124  H64   S    
Cr3   O47   S    
C141  C153  A    
C63   C75   A    
C64   H8    S    
C37   C41   A    
C56   H80   S    
C163  O15   A    
C131  C139  A    
C173  C174  A    
C40   C44   A    
C56   C60   A    
C129  H37   S    
C148  H56   S    
C126  Cl2   S    
C83   C87   A    
C88   C96   A    
Cr1   O17   S    
C6    C45   S    
C93   C97   A    
C78   C102  A    
C133  C156  S    
Cr3   O19   S    
Cr2   O22   S    
Cr7   O19   S    
C80   C84   A    
C15   C19   A    
C135  C154  S    
C80   C104  A    
C1    O21   A    
C132  H40   S    
C79   C159  S    
C80   C160  S    
C94   C98   A    
C135  O47   A    
C47   O35   A    
C4    O28   A    
C118  C150  S    
C90   O38   A    
Cr1   O21   S    
Cr12  O12   S    
C173  H45   S    
C159  O7    A    
Cr11  O39   S    
C82   H18   S    
C46   O30   A    
C124  C128  A    
C50   H14   S    
C12   H67   S    
Cr4   O20   S    
C165  C169  A    
Cr7   O31   S    
Cr6   O18   S    
C51   H15   S    
S1    O54   D    
C59   S3    S    
C162  O42   A    
C137  H41   S    
C53   C57   A    
C157  O9    A    
C61   C73   A    
C82   C86   A    
C33   C37   A    
C88   H32   S    
C52   H16   S    
Cr12  O36   S    
C35   C39   A    
C8    C167  A    
Cr4   O48   S    
C42   H10   S    
C101  H26   S    
Cr9   O33   S    
C111  H35   S    
Cr11  O35   S    
C140  H44   S    
C63   H7    S    
C66   H86   S    
Cr1   O41   S    
C110  H34   S    
C32   C36   A    
Cr3   O43   S    
C133  O45   A    
C104  H27   S    
Cr8   O8    S    
C162  O14   A    
C132  C140  A    
C106  C126  A    
C25   C89   S    
C90   O2    A    
C45   O33   A    
Cr12  O40   S    
C79   C83   A    
C43   C51   A    
C65   C69   A    
C143  H59   S    
C67   C71   A    
C60   S4    S    
C67   H87   S    
Cr10  O18   S    
C25   C49   A    
Cr11  O15   S    
C131  H39   S    
C168  C172  A    
C77   C81   A    
Cr7   O7    S    
C134  O50   A    
C62   C74   A    
Cr8   O52   S    
C145  C149  A    
C170  C173  A    
S3    O59   D    
C93   C94   S    
Cr2   O46   S    
C14   C18   A    
C9    H66   S    
C144  C148  A    
Cr8   O20   S    
O58   H90   S    
C143  C147  A    
C167  H4    S    
C24   H71   S    
C54   H78   S    
C168  H3    S    
C161  O41   A    
C19   C171  A    
C38   C42   A    
Cr8   O32   S    
C17   C169  A    
C21   H70   S    
C96   C100  A    
Cr9   O9    S    
C117  C121  A    
C86   C94   A    
Cr11  O11   S    
C134  C155  S    
Cr5   O29   S    
Cr2   O18   S    
C29   H73   S    
C87   H31   S    
C16   C20   A    
Cr5   O49   S    
C85   H29   S    
C15   C23   A    
Cr3   O3    S    
C16   C24   A    
C1    O25   A    
Cr1   O45   S    
C2    O22   A    
C47   O31   A    
S4    O63   D    
C165  H2    S    
C99   H24   S    
C119  C151  S    
C63   C67   A    
C120  C152  S    
C97   H22   S    
C13   C21   A    
C36   C40   A    
C55   H79   S    
C91   O39   A    
C39   C43   A    
C159  O11   A    
C160  O12   A    
C122  C126  A    
C118  C122  A    
C123  H63   S    
C121  H61   S    
C85   C93   A    
C68   H88   S    
Cr4   O24   S    
C64   C76   A    
C145  H53   S    
C28   C92   S    
C48   O32   A    
C109  C113  A    
Cr7   O27   S    
C114  C118  A    
C140  C156  A    
C144  H60   S    
Cr5   O5    S    
C59   C75   A    
C157  O5    A    
C54   C58   A    
C158  O10   A    
C33   H81   S    
C34   C38   A    
C127  Cl3   S    
C35   H83   S    
C43   H11   S    
Cr1   O1    S    
C116  H52   S    
Cr9   O37   S    
Cr6   O50   S    
Cr10  O34   S    
C5    C10   A    
C28   C52   A    
O61   H91   S    
C176  H48   S    
C8    C11   A    
C113  H49   S    
C166  C170  A    
C136  O48   A    
C31   C35   A    
Cr2   O42   S    
C81   C85   A    
C136  O52   A    
C106  C110  A    
S2    O56   D    
S3    O61   S    
C95   C96   S    
C111  C115  A    
C97   C101  A    
C120  C124  A    
C77   C157  S    
