data_mof_unit_24033.cif
_audit_creation_date              2012-10-26T20:50:48-0400
_audit_creation_method            fapswitch 2.2
_symmetry_space_group_name_H-M    P1
_symmetry_Int_Tables_number       1
_space_group_crystal_system       triclinic
_cell_length_a                    11.042906
_cell_length_b                    10.86698
_cell_length_c                    9.568216
_cell_angle_alpha                 91.088377
_cell_angle_beta                  101.792354
_cell_angle_gamma                 91.09548
_cell_volume                      1123.46839475

loop_
_atom_site_label
_atom_site_type_symbol
_atom_type_description
_atom_site_fract_x
_atom_site_fract_y
_atom_site_fract_z
_atom_type_partial_charge
C1    C     C_R   0.497385 0.262332 0.497628 0.586967
C2    C     C_R   0.410894 0.438354 0.053718 0.011133
C3    C     C_R   0.411540 0.435597 0.905615 0.166502
C4    C     C_R   0.263132 0.497233 0.442646 0.553222
C5    C     C_R   0.601626 0.540904 0.951713 0.167195
C6    C     C_3   0.668762 0.662230 0.963820 -0.008896
C7    C     C_3   0.662276 0.667054 0.122086 -0.249592
C8    C     C_R   0.496400 0.737540 0.499956 0.547707
C9    C     C_R   0.736636 0.497694 0.557068 0.567102
C10   C     C_2   0.129550 0.478784 0.411226 -0.106139
C11   C     C_2   0.066572 0.487412 0.516113 -0.097691
C12   C     C_R   0.485268 0.128779 0.490800 0.055192
C13   C     C_2   0.870907 0.503519 0.586725 -0.083039
C14   C     C_2   0.935080 0.453484 0.495766 0.126084
C15   C     C_R   0.479969 0.066287 0.615383 0.028873
C16   C     C_3   0.851363 0.382535 0.247871 -0.278241
C17   C     C_3   0.871329 0.759610 0.964178 -0.306558
C18   C     C_3   0.582574 0.125805 0.183515 -0.276266
C19   C     C_R   0.470661 0.059334 0.360858 0.104993
C20   C     C_R   0.467902 0.930494 0.364744 -0.143466
C21   C     C_R   0.481430 0.870113 0.495649 -0.013265
C22   C     C_R   0.475585 0.939955 0.617639 -0.004756
C23   C     C_3   0.551689 0.938686 0.765365 -0.253248
C24   C     C_3   0.556511 0.078224 0.763366 -0.037456
C25   C     C_R   0.599919 0.543782 0.097724 0.105188
Cu1   Cu    Cu3+1 0.499990 0.499980 0.640670 1.011733
Cu2   Cu    Cu3+1 0.500010 0.500020 0.359330 0.947466
H1    H     H_    0.339153 0.388977 0.093000 0.153518
H2    H     H_    0.642344 0.896231 0.766946 0.157575
H3    H     H_    0.504866 0.121424 0.838865 0.156677
H4    H     H_    0.821296 0.297156 0.432587 0.266642
H5    H     H_    0.751639 0.361932 0.206381 0.152653
H6    H     H_    0.904876 0.323094 0.188201 0.159771
H7    H     H_    0.870897 0.480524 0.227977 0.132338
H8    H     H_    0.838932 0.572182 0.982997 0.254980
H9    H     H_    0.959885 0.742129 0.930179 0.149600
H10   H     H_    0.891951 0.786375 0.079357 0.142036
H11   H     H_    0.825686 0.836456 0.901076 0.172134
H12   H     H_    0.615155 0.732418 0.898403 0.146793
H13   H     H_    0.396203 0.079900 0.147060 0.250365
H14   H     H_    0.611029 0.033317 0.152288 0.128741
H15   H     H_    0.655125 0.165582 0.271479 0.167984
H16   H     H_    0.574008 0.187138 0.090679 0.154761
H17   H     H_    0.753260 0.664046 0.197091 0.134428
H18   H     H_    0.599937 0.739331 0.147878 0.122624
H19   H     H_    0.112961 0.522228 0.621168 0.145772
H20   H     H_    0.916888 0.562114 0.676030 0.083545
H21   H     H_    0.085120 0.451787 0.303233 0.116705
H22   H     H_    0.462508 0.878674 0.265724 0.131074
H23   H     H_    0.498020 0.903182 0.843119 0.112587
I1    I     I_    0.741519 0.150686 0.777265 -0.445035
I2    I     I_    0.277881 0.311473 0.784897 -0.387572
N1    N     N_R   0.500780 0.500930 0.148120 -0.255285
N2    N     N_R   0.500790 0.500890 0.852210 -0.234719
N3    N     N_2   0.883659 0.355326 0.398294 -0.480981
N4    N     N_2   0.793864 0.649345 0.939898 -0.507312
N5    N     N_2   0.464877 0.116814 0.227347 -0.493415
O1    O     O_R   0.500000 0.319640 0.618810 -0.465522
O2    O     O_R   0.500010 0.319680 0.381230 -0.478987
O3    O     O_R   0.320680 0.500000 0.575130 -0.475013
O4    O     O_R   0.320690 0.500040 0.337550 -0.511243
O5    O     O_R   0.499990 0.680320 0.618770 -0.504305
O6    O     O_R   0.500000 0.680360 0.381190 -0.512662
O7    O     O_R   0.679310 0.499960 0.662450 -0.463337
O8    O     O_R   0.679320 0.500000 0.424870 -0.498659

loop_
_geom_bond_atom_site_label_1
_geom_bond_atom_site_label_2
_ccdc_geom_bond_type
C2    H1    S    
C23   C24   S    
Cu2   N1    S    
C6    C7    S    
Cu2   O8    S    
C17   H9    S    
Cu1   O7    S    
C16   H6    S    
C16   H5    S    
C9    O7    A    
C18   N5    S    
C19   C20   A    
C7    C25   S    
C12   C15   A    
C3    I2    S    
C6    H12   S    
C4    O3    A    
C24   I1    S    
C1    O2    A    
C2    C3    A    
Cu1   O5    S    
C16   N3    S    
Cu2   O2    S    
C1    O1    A    
C19   N5    S    
C6    N4    S    
Cu1   O1    S    
C17   N4    S    
Cu1   Cu2   S    
C20   H22   S    
C1    C12   S    
Cu2   O6    S    
C5    C25   A    
C7    H18   S    
C12   C19   A    
C21   C22   A    
C15   C24   S    
C3    N2    A    
C25   N1    A    
C14   N3    S    
C24   H3    S    
C17   H11   S    
C18   H15   S    
C10   H21   S    
C5    C6    S    
Cu1   N2    S    
C11   C14   S    
C9    O8    A    
H4    N3    S    
C10   C11   D    
C8    O6    A    
C4    C10   S    
C23   H2    S    
C5    N2    A    
C20   C21   A    
C18   H14   S    
C18   H16   S    
C13   H20   S    
C9    C13   S    
C22   C23   S    
C11   H19   S    
C17   H10   S    
H13   N5    S    
Cu2   O4    S    
C16   H7    S    
H8    N4    S    
C13   C14   D    
Cu1   O3    S    
C4    O4    A    
C7    H17   S    
C15   C22   A    
C8    O5    A    
C23   H23   S    
C2    N1    A    
C8    C21   S    
