data_mof_unit_19708.cif
_audit_creation_date              2012-10-26T18:40:20-0400
_audit_creation_method            fapswitch 2.2
_symmetry_space_group_name_H-M    P1
_symmetry_Int_Tables_number       1
_space_group_crystal_system       triclinic
_cell_length_a                    8.727098
_cell_length_b                    15.095305
_cell_length_c                    13.873546
_cell_angle_alpha                 90.209337
_cell_angle_beta                  97.963581
_cell_angle_gamma                 90.080669
_cell_volume                      1810.03509793

loop_
_atom_site_label
_atom_site_type_symbol
_atom_type_description
_atom_site_fract_x
_atom_site_fract_y
_atom_site_fract_z
_atom_type_partial_charge
C1    C     C_R   0.500968 0.329904 0.499890 0.546601
C2    C     C_R   0.564463 0.573161 0.897455 0.100914
C3    C     C_R   0.495957 0.501945 0.054075 0.061507
C4    C     C_R   0.497810 0.502714 0.944999 0.057777
C5    C     C_R   0.203700 0.499920 0.475098 0.554647
C6    C     C_R   0.796313 0.500008 0.524901 0.552086
C7    C     C_2   0.037880 0.499792 0.461367 -0.151159
C8    C     C_2   0.962157 0.500009 0.538631 -0.149609
C9    C     C_R   0.442799 0.093461 0.566986 -0.130341
C10   C     C_R   0.452049 0.906733 0.421588 -0.133553
C11   C     C_R   0.435634 0.185295 0.566872 -0.130278
C12   C     C_R   0.501141 0.670153 0.500338 0.545806
C13   C     C_R   0.444976 0.814884 0.419970 -0.133315
C14   C     C_R   0.507625 0.233468 0.499897 -0.009057
C15   C     C_R   0.507814 0.766712 0.501811 -0.010962
C16   C     C_R   0.589391 0.189434 0.434073 -0.086911
C17   C     C_R   0.580033 0.810941 0.584931 -0.091698
C18   C     C_R   0.602083 0.096915 0.435460 0.020994
C19   C     C_R   0.592254 0.903495 0.586622 0.021937
C20   C     C_R   0.526245 0.048771 0.502393 -0.029172
C21   C     C_R   0.526080 0.951538 0.503845 -0.029495
C22   C     C_2   0.698028 0.052065 0.369357 0.217777
C23   C     C_R   0.630561 0.523012 0.118347 -0.149179
C24   C     C_2   0.677730 0.948484 0.673378 0.215163
C25   C     C_3   0.135359 0.537932 0.996735 -0.309166
C26   C     C_3   0.513852 0.711863 0.973808 -0.290421
C27   C     C_R   0.433331 0.431709 0.886713 -0.147002
C28   C     C_R   0.629573 0.523062 0.219613 0.024859
C29   C     C_R   0.433737 0.432131 0.785406 0.025126
C30   C     C_R   0.368461 0.477447 0.198288 0.054830
C31   C     C_R   0.566270 0.568959 0.795771 0.055331
C32   C     C_R   0.361631 0.479704 0.095857 0.108295
Cu1   Cu    Cu3+1 0.500000 0.499990 0.596430 0.942764
Cu2   Cu    Cu3+1 0.500000 0.500010 0.403570 0.944687
H1    H     H_    0.977946 0.499501 0.387263 0.116101
H2    H     H_    0.383284 0.375526 0.919350 0.139432
H3    H     H_    0.733960 0.541568 0.266533 0.127927
H4    H     H_    0.381100 0.377535 0.742175 0.128382
H5    H     H_    0.265998 0.458870 0.229026 0.127892
H6    H     H_    0.618832 0.622310 0.760063 0.126355
H7    H     H_    0.720854 0.981582 0.375468 0.119925
H8    H     H_    0.701340 0.018987 0.672498 0.122264
H9    H     H_    0.148753 0.417482 0.067828 0.247021
H10   H     H_    0.028450 0.516821 0.949249 0.151097
H11   H     H_    0.206591 0.577314 0.952074 0.163399
H12   H     H_    0.022179 0.500226 0.612743 0.131932
H13   H     H_    0.102393 0.579975 0.056500 0.135954
H14   H     H_    0.715864 0.679076 0.919952 0.252736
H15   H     H_    0.572869 0.767038 0.017352 0.161543
H16   H     H_    0.431952 0.680170 0.017688 0.155930
H17   H     H_    0.448582 0.739426 0.906075 0.154059
H18   H     H_    0.383292 0.056845 0.617743 0.130765
H19   H     H_    0.399794 0.943283 0.358396 0.133915
H20   H     H_    0.371679 0.218654 0.617899 0.122549
H21   H     H_    0.388228 0.781546 0.355416 0.133033
H22   H     H_    0.647013 0.227696 0.383670 0.171871
H23   H     H_    0.630571 0.772872 0.647428 0.158454
H24   H     H_    0.737096 0.539148 0.090529 0.128231
N1    N     N_R   0.500000 0.500020 0.258690 -0.238650
N2    N     N_R   0.500000 0.499980 0.741310 -0.240157
N3    N     N_2   0.218958 0.460586 0.036349 -0.539531
N4    N     N_2   0.627832 0.648828 0.950210 -0.544315
O1    O     O_R   0.500010 0.371450 0.581430 -0.507631
O2    O     O_2   0.724070 0.907084 0.747131 -0.517419
O3    O     O_R   0.499990 0.628550 0.418570 -0.494914
O4    O     O_R   0.500010 0.371460 0.418560 -0.494308
O5    O     O_R   0.499990 0.628540 0.581440 -0.514019
O6    O     O_R   0.274840 0.499990 0.562640 -0.495058
O7    O     O_R   0.725160 0.500010 0.437360 -0.510073
O8    O     O_R   0.274840 0.500000 0.399770 -0.513549
O9    O     O_R   0.725160 0.500000 0.600230 -0.496041
O10   O     O_2   0.754148 0.093571 0.307375 -0.504887

loop_
_geom_bond_atom_site_label_1
_geom_bond_atom_site_label_2
_ccdc_geom_bond_type
C29   H4    S    
C32   N3    S    
C6    O7    A    
C2    C4    A    
C12   C15   S    
C12   O5    A    
C5    O8    A    
C27   H2    S    
C27   C29   A    
C24   H8    S    
C12   O3    A    
Cu2   O8    S    
C9    C20   A    
H14   N4    S    
C29   N2    A    
C9    H18   S    
Cu1   O1    S    
C30   N1    A    
Cu2   O4    S    
C16   H22   S    
C19   C24   S    
C26   N4    S    
C5    C7    S    
C7    C8    D    
C24   O2    D    
C25   N3    S    
C26   H17   S    
C31   H6    S    
C30   C32   A    
C9    C11   A    
Cu2   O7    S    
Cu1   O5    S    
Cu2   N1    S    
C11   H20   S    
C7    H1    S    
C28   H3    S    
C5    O6    A    
C1    O1    A    
C25   H10   S    
C22   O10   D    
C17   C19   A    
C30   H5    S    
Cu1   Cu2   S    
Cu1   N2    S    
C18   C20   A    
C13   C15   A    
C26   H16   S    
C10   C21   A    
Cu2   O3    S    
C3    C32   A    
C11   C14   A    
C14   C16   A    
C28   N1    A    
C22   H7    S    
C23   C28   A    
Cu1   O9    S    
C3    C4    S    
C31   N2    A    
C25   H11   S    
C4    C27   A    
C20   C21   S    
H9    N3    S    
C16   C18   A    
C26   H15   S    
C15   C17   A    
C10   H19   S    
C25   H13   S    
C2    C31   A    
C6    C8    S    
C1    C14   S    
C8    H12   S    
C19   C21   A    
C18   C22   S    
C3    C23   A    
C23   H24   S    
C2    N4    S    
Cu1   O6    S    
C17   H23   S    
C6    O9    A    
C13   H21   S    
C10   C13   A    
C1    O4    A    
