data_mof_unit_66209.cif
_audit_creation_date              2012-12-10T16:52:53-0500
_audit_creation_method            fapswitch 2.2
_symmetry_space_group_name_H-M    P1
_symmetry_Int_Tables_number       1
_space_group_crystal_system       monoclinic
_cell_length_a                    23.538787
_cell_length_b                    31.119883
_cell_length_c                    18.764258
_cell_angle_alpha                 90.0
_cell_angle_beta                  125.846065
_cell_angle_gamma                 90.0
_cell_volume                      11141.8271857

loop_
_atom_site_label
_atom_site_type_symbol
_atom_type_description
_atom_site_fract_x
_atom_site_fract_y
_atom_site_fract_z
_atom_type_partial_charge
C1    C     C_R   0.805898 0.191016 0.120038 0.942782
C2    C     C_R   0.359064 0.749425 0.999159 0.912368
C3    C     C_R   0.359062 0.250573 0.999154 0.898951
C4    C     C_R   0.640935 0.749425 0.000841 0.912367
C5    C     C_R   0.140938 0.750573 0.000846 0.898952
C6    C     C_R   0.859064 0.249425 0.999159 0.912368
C7    C     C_R   0.859062 0.750573 0.999154 0.898951
C8    C     C_R   0.140935 0.249425 0.000841 0.912368
C9    C     C_1   0.581073 0.252110 0.001484 -0.177085
C10   C     C_1   0.418929 0.747885 0.998521 -0.168752
C11   C     C_1   0.418927 0.252110 0.998516 -0.177085
C12   C     C_R   0.194735 0.808929 0.880086 0.933424
C13   C     C_1   0.581071 0.747885 0.001479 -0.168752
C14   C     C_1   0.081073 0.752110 0.001484 -0.177086
C15   C     C_1   0.918929 0.247886 0.998521 -0.168752
C16   C     C_1   0.918927 0.752110 0.998516 -0.177085
C17   C     C_1   0.081071 0.247886 0.001479 -0.168752
C18   C     C_1   0.529964 0.252798 0.000728 0.014297
C19   C     C_1   0.470037 0.747197 0.999274 0.019875
C20   C     C_1   0.470036 0.252798 0.999272 0.014297
C21   C     C_1   0.529963 0.747197 0.000726 0.019875
C22   C     C_1   0.029964 0.752798 0.000728 0.014297
C23   C     C_R   0.194102 0.191016 0.879962 0.942782
C24   C     C_1   0.970037 0.247197 0.999274 0.019875
C25   C     C_1   0.970036 0.752798 0.999272 0.014297
C26   C     C_1   0.029963 0.247197 0.000726 0.019875
C27   C     C_2   0.836601 0.090038 0.247430 -0.185069
C28   C     C_2   0.161563 0.910508 0.753516 -0.253629
C29   C     C_2   0.163399 0.090038 0.752570 -0.185068
C30   C     C_2   0.838437 0.910508 0.246483 -0.253628
C31   C     C_2   0.336601 0.590038 0.247430 -0.185068
C32   C     C_2   0.661563 0.410508 0.753516 -0.253629
C33   C     C_2   0.663399 0.590038 0.752570 -0.185067
C34   C     C_R   0.805265 0.808929 0.119914 0.933425
C35   C     C_2   0.338437 0.410508 0.246483 -0.253628
C36   C     C_2   0.906751 0.084825 0.298703 -0.182109
C37   C     C_2   0.091196 0.912716 0.697184 -0.165627
C38   C     C_2   0.093249 0.084824 0.701297 -0.182110
C39   C     C_2   0.908804 0.912716 0.302816 -0.165628
C40   C     C_2   0.406751 0.584825 0.298703 -0.182109
C41   C     C_2   0.591196 0.412716 0.697184 -0.165627
C42   C     C_2   0.593249 0.584825 0.701297 -0.182109
C43   C     C_2   0.408804 0.412716 0.302816 -0.165628
C44   C     C_2   0.802572 0.121118 0.175295 -0.094099
C45   C     C_R   0.305898 0.691016 0.120038 0.942782
C46   C     C_2   0.195727 0.879817 0.826323 -0.183736
C47   C     C_2   0.197429 0.121118 0.824705 -0.094098
C48   C     C_2   0.804272 0.879817 0.173677 -0.183736
C49   C     C_2   0.302572 0.621118 0.175295 -0.094099
C50   C     C_2   0.695727 0.379817 0.826323 -0.183736
C51   C     C_2   0.697429 0.621118 0.824705 -0.094098
C52   C     C_2   0.304272 0.379817 0.173677 -0.183736
C53   C     C_2   0.830981 0.160132 0.189575 -0.276151
C54   C     C_2   0.171354 0.839638 0.810782 -0.346487
C55   C     C_2   0.169019 0.160131 0.810425 -0.276152
C56   C     C_R   0.694735 0.308929 0.880086 0.933424
C57   C     C_2   0.828645 0.839638 0.189218 -0.346487
C58   C     C_2   0.330981 0.660131 0.189575 -0.276151
C59   C     C_2   0.671354 0.339638 0.810782 -0.346487
C60   C     C_2   0.669019 0.660131 0.810425 -0.276152
C61   C     C_2   0.328645 0.339638 0.189218 -0.346487
C62   C     C_R   0.440765 0.441155 0.378491 0.946588
C63   C     C_R   0.559844 0.558233 0.622714 0.833672
C64   C     C_R   0.559235 0.441155 0.621509 0.946588
C65   C     C_R   0.440156 0.558233 0.377286 0.833672
C66   C     C_R   0.940765 0.941155 0.378491 0.946588
C67   C     C_R   0.694102 0.691016 0.879962 0.942782
C68   C     C_R   0.059844 0.058233 0.622714 0.833672
C69   C     C_R   0.059235 0.941155 0.621509 0.946588
C70   C     C_R   0.940156 0.058233 0.377286 0.833673
C71   C     C_2   0.952846 0.100828 0.273711 0.434634
C72   C     C_2   0.044215 0.891757 0.716380 0.421396
C73   C     C_2   0.047155 0.100827 0.726290 0.434633
C74   C     C_2   0.955785 0.891757 0.283619 0.421396
C75   C     C_2   0.452846 0.600828 0.273711 0.434633
C76   C     C_2   0.544215 0.391757 0.716380 0.421396
C77   C     C_2   0.547154 0.600828 0.726290 0.434633
C78   C     C_R   0.305265 0.308929 0.119914 0.933424
C79   C     C_2   0.455785 0.391757 0.283619 0.421396
C80   C     C_R   0.640938 0.250573 0.000846 0.898952
H1    H     H_    0.803799 0.072629 0.260819 0.159423
H2    H     H_    0.239378 0.890213 0.891296 0.185559
H3    H     H_    0.244787 0.112143 0.887956 0.161866
H4    H     H_    0.760622 0.890213 0.108704 0.185559
H5    H     H_    0.255214 0.612143 0.112044 0.161866
H6    H     H_    0.739378 0.390213 0.891296 0.185559
H7    H     H_    0.744786 0.612143 0.887956 0.161866
H8    H     H_    0.260622 0.390213 0.108704 0.185559
H9    H     H_    0.874151 0.169887 0.255557 0.139999
H10   H     H_    0.132219 0.828864 0.743813 0.180440
H11   H     H_    0.125849 0.169887 0.744443 0.139999
H12   H     H_    0.194728 0.931090 0.745475 0.182817
H13   H     H_    0.867780 0.828864 0.256187 0.180441
H14   H     H_    0.374151 0.669887 0.255557 0.139999
H15   H     H_    0.632219 0.328864 0.743813 0.180440
H16   H     H_    0.625849 0.669887 0.744443 0.139999
H17   H     H_    0.367781 0.328864 0.256187 0.180440
H18   H     H_    0.007323 0.108415 0.324653 0.065467
H19   H     H_    0.063500 0.883956 0.783397 0.087899
H20   H     H_    0.992678 0.108414 0.675349 0.065467
H21   H     H_    0.936500 0.883956 0.216603 0.087899
H22   H     H_    0.507323 0.608415 0.324653 0.065467
H23   H     H_    0.196201 0.072629 0.739180 0.159423
H24   H     H_    0.563500 0.383956 0.783397 0.087899
H25   H     H_    0.492678 0.608415 0.675348 0.065467
H26   H     H_    0.436500 0.383956 0.216603 0.087899
H27   H     H_    0.805271 0.931091 0.254524 0.182817
H28   H     H_    0.303799 0.572629 0.260819 0.159423
H29   H     H_    0.694728 0.431090 0.745475 0.182817
H30   H     H_    0.696201 0.572629 0.739180 0.159422
H31   H     H_    0.305272 0.431090 0.254524 0.182817
H32   H     H_    0.755214 0.112143 0.112044 0.161866
O1    O     O_R   0.820770 0.230320 0.141550 -0.628498
O2    O     O_R   0.230290 0.820740 0.960580 -0.617878
O3    O     O_R   0.230290 0.179260 0.960580 -0.604199
O4    O     O_R   0.769710 0.820740 0.039420 -0.617878
O5    O     O_R   0.269710 0.679260 0.039420 -0.604200
O6    O     O_R   0.730290 0.320740 0.960580 -0.617877
O7    O     O_R   0.730290 0.679260 0.960580 -0.604199
O8    O     O_R   0.269710 0.320740 0.039420 -0.617878
O9    O     O_R   0.692770 0.275550 0.051090 -0.613402
O10   O     O_R   0.307230 0.724450 0.948910 -0.606466
O11   O     O_R   0.307230 0.275550 0.948910 -0.613402
O12   O     O_R   0.179230 0.769680 0.858450 -0.617170
O13   O     O_R   0.692770 0.724450 0.051090 -0.606465
O14   O     O_R   0.192770 0.775550 0.051090 -0.613402
O15   O     O_R   0.807230 0.224450 0.948910 -0.606466
O16   O     O_R   0.807230 0.775550 0.948910 -0.613402
O17   O     O_R   0.192770 0.224450 0.051090 -0.606466
O18   O     O_R   0.641720 0.224490 0.948960 -0.617266
O19   O     O_R   0.358280 0.775510 0.051040 -0.617971
O20   O     O_R   0.358280 0.224490 0.051040 -0.617266
O21   O     O_R   0.641720 0.775510 0.948960 -0.617971
O22   O     O_R   0.141720 0.724490 0.948960 -0.617266
O23   O     O_R   0.179230 0.230320 0.858450 -0.628498
O24   O     O_R   0.858280 0.275510 0.051040 -0.617971
O25   O     O_R   0.858280 0.724490 0.051040 -0.617266
O26   O     O_R   0.141720 0.275510 0.948960 -0.617971
O27   O     O_R   0.501540 0.454790 0.409570 -0.575840
O28   O     O_R   0.498460 0.545210 0.590430 -0.631754
O29   O     O_R   0.498460 0.454790 0.590430 -0.575840
O30   O     O_R   0.501540 0.545210 0.409570 -0.631754
O31   O     O_R   0.001540 0.954790 0.409570 -0.575840
O32   O     O_R   0.998460 0.045210 0.590430 -0.631754
O33   O     O_R   0.998460 0.954790 0.590430 -0.575840
O34   O     O_R   0.820770 0.769680 0.141550 -0.617170
O35   O     O_R   0.001540 0.045210 0.409570 -0.631754
O36   O     O_R   0.408080 0.454790 0.409570 -0.624319
O37   O     O_R   0.591920 0.545210 0.590430 -0.616554
O38   O     O_R   0.591920 0.454790 0.590430 -0.624320
O39   O     O_R   0.408080 0.545210 0.409570 -0.616554
O40   O     O_R   0.908080 0.954790 0.409570 -0.624320
O41   O     O_R   0.091920 0.045210 0.590430 -0.616554
O42   O     O_R   0.091920 0.954790 0.590430 -0.624320
O43   O     O_R   0.908080 0.045210 0.409570 -0.616554
O44   O     O_2   0.931658 0.103473 0.196871 -0.539957
O45   O     O_R   0.320770 0.730320 0.141550 -0.628498
O46   O     O_2   0.983509 0.882934 0.657236 -0.544418
O47   O     O_2   0.068344 0.103472 0.803131 -0.539957
O48   O     O_2   0.016491 0.882934 0.342764 -0.544418
O49   O     O_2   0.431658 0.603473 0.196871 -0.539957
O50   O     O_2   0.483509 0.382934 0.657236 -0.544418
O51   O     O_2   0.568343 0.603472 0.803130 -0.539957
O52   O     O_2   0.516491 0.382934 0.342764 -0.544418
O53   O     O_R   0.679230 0.269680 0.858450 -0.617170
O54   O     O_R   0.679230 0.730320 0.858450 -0.628498
O55   O     O_R   0.320770 0.269680 0.141550 -0.617170
O56   O     O_R   0.769710 0.179260 0.039420 -0.604200
Zn1   Zn    Zn3+2 0.784110 0.284120 0.068220 0.974361
Zn2   Zn    Zn3+2 0.062380 0.000000 0.499980 1.000182
Zn3   Zn    Zn3+2 0.437620 0.500000 0.500020 1.000182
Zn4   Zn    Zn3+2 0.562380 0.500000 0.499980 1.000182
Zn5   Zn    Zn3+2 0.215890 0.715880 0.931780 0.992437
Zn6   Zn    Zn3+2 0.215890 0.284120 0.931780 0.974361
Zn7   Zn    Zn3+2 0.784110 0.715880 0.068220 0.992438
Zn8   Zn    Zn3+2 0.284110 0.784120 0.068220 0.974361
Zn9   Zn    Zn3+2 0.715890 0.215880 0.931780 0.992437
Zn10  Zn    Zn3+2 0.715890 0.784120 0.931780 0.974361
Zn11  Zn    Zn3+2 0.284110 0.215880 0.068220 0.992438
Zn12  Zn    Zn3+2 0.937620 0.000000 0.500020 1.000182

loop_
_geom_bond_atom_site_label_1
_geom_bond_atom_site_label_2
_ccdc_geom_bond_type
C77   O51   D    
C73   H20   S    
O9    Zn1   S    
C65   O39   A    
O22   Zn5   S    
C37   C69   S    
C30   H27   S    
O37   Zn4   S    
O53   Zn9   S    
C31   H28   S    
C76   O50   D    
C79   O52   D    
O39   Zn3   S    
C48   C57   D    
C54   H10   S    
O17   Zn11  S    
C29   H23   S    
C78   O55   A    
C1    O1    A    
C4    O13   A    
C29   C47   S    
C50   C59   D    
C30   C48   S    
C19   C21   S    
C24   C26   S    
C6    O15   A    
O25   Zn7   S    
O4    Zn10  S    
C52   C61   D    
C38   C73   S    
O21   Zn10  S    
C64   O29   A    
C34   O4    A    
O56   Zn9   S    
O19   Zn8   S    
O29   Zn3   S    
O36   Zn3   S    
C72   O46   D    
C31   C40   D    
O42   Zn2   S    
C8    O26   A    
C63   O28   A    
C39   C74   S    
C4    C13   S    
C56   C59   S    
C1    C53   S    
C63   O37   A    
C6    O24   A    
O7    Zn7   S    
C6    C15   S    
C46   H2    S    
C44   C53   D    
O38   Zn4   S    
O32   Zn12  S    
C60   C67   S    
C36   C70   S    
C22   C25   S    
C56   O53   A    
O26   Zn6   S    
C75   H22   S    
C55   H11   S    
C32   C41   D    
O54   Zn10  S    
C47   H3    S    
C7    O16   A    
C35   C43   D    
C61   C78   S    
O35   Zn2   S    
O41   Zn2   S    
O2    Zn8   S    
C47   C55   D    
C62   O36   A    
C35   H31   S    
C59   H15   S    
C31   C49   S    
C27   C44   S    
C3    O11   A    
C12   O2    A    
C80   O9    A    
C2    O10   A    
C5    O22   A    
C45   C58   S    
C71   H18   S    
C11   C20   T    
C80   O18   A    
C32   H29   S    
C70   O43   A    
O15   Zn9   S    
O23   Zn6   S    
C49   H5    S    
C52   H8    S    
C29   C38   D    
C45   O45   A    
C68   O41   A    
C51   H7    S    
C7    O25   A    
O1    Zn1   S    
O12   Zn5   S    
O20   Zn11  S    
C1    O56   A    
C49   C58   D    
C3    O20   A    
C79   H26   S    
C64   O38   A    
C9    C80   S    
O40   Zn12  S    
C78   O8    A    
C76   H24   S    
C66   O40   A    
C69   O33   A    
O18   Zn9   S    
C34   C57   S    
C12   O12   A    
C27   H1    S    
C10   C19   T    
C28   C46   S    
O34   Zn7   S    
C46   C54   D    
C2    O19   A    
C13   C21   T    
O27   Zn4   S    
C28   H12   S    
C32   C50   S    
C5    C14   S    
C74   H21   S    
C60   H16   S    
C67   O54   A    
O8    Zn6   S    
C7    C16   S    
C38   C68   S    
O55   Zn11  S    
O28   Zn3   S    
C40   C65   S    
C53   H9    S    
C62   O27   A    
C39   C66   S    
C51   C60   D    
O16   Zn10  S    
C17   C26   T    
O13   Zn7   S    
C44   H32   S    
C8    O17   A    
O11   Zn6   S    
O14   Zn8   S    
O43   Zn12  S    
O30   Zn4   S    
C45   O5    A    
C16   C25   T    
C33   C42   D    
C15   C24   T    
O5    Zn5   S    
C56   O6    A    
C61   H17   S    
C8    C17   S    
O31   Zn2   S    
C36   C71   S    
C23   C55   S    
C70   O35   A    
C23   O23   A    
C27   C36   D    
C33   C51   S    
O10   Zn5   S    
C73   O47   D    
C69   O42   A    
O6    Zn1   S    
C40   C75   S    
C74   O48   D    
C75   O49   D    
C14   C22   T    
C77   H25   S    
C58   H14   S    
C41   C76   S    
C65   O30   A    
C34   O34   A    
C67   O7    A    
C28   C37   D    
C71   O44   D    
O33   Zn12  S    
C30   C39   D    
C68   O32   A    
C18   C20   S    
C5    O14   A    
C12   C54   S    
C3    C11   S    
C50   H6    S    
O45   Zn8   S    
C23   O3    A    
C48   H4    S    
C9    C18   T    
O24   Zn1   S    
C42   C77   S    
C37   C72   S    
C35   C52   S    
C57   H13   S    
C33   H30   S    
C41   C64   S    
C43   C79   S    
C42   C63   S    
C66   O31   A    
O3    Zn11  S    
C43   C62   S    
C4    O21   A    
C72   H19   S    
C2    C10   S    
