data_mof_unit_25677.cif
_audit_creation_date              2013-03-05T16:41:15-0500
_audit_creation_method            fapswitch 2.2
_symmetry_space_group_name_H-M    P1
_symmetry_Int_Tables_number       1
_space_group_crystal_system       triclinic
_cell_length_a                    10.751169
_cell_length_b                    10.903393
_cell_length_c                    10.007541
_cell_angle_alpha                 88.444113
_cell_angle_beta                  89.534522
_cell_angle_gamma                 95.264758
_cell_volume                      1167.68006596

loop_
_atom_site_label
_atom_site_type_symbol
_atom_site_description
_atom_site_fract_x
_atom_site_fract_y
_atom_site_fract_z
_atom_type_partial_charge
O1    O     O_R   0.500020 0.316790 0.614690 -0.558929
O2    O     O_R   0.500000 0.316760 0.385350 -0.568907
C1    C     C_R   0.486571 0.258878 0.501468 0.953525
O3    O     O_R   0.319080 0.500020 0.614640 -0.546070
O4    O     O_R   0.319070 0.499980 0.385300 -0.644495
C2    C     C_R   0.262607 0.495141 0.501370 1.004247
Zn1   Zn    Zn3+2 0.500010 0.500020 0.653130 1.105193
Zn2   Zn    Zn3+2 0.499990 0.499980 0.346870 1.077192
O5    O     O_R   0.500000 0.683240 0.614650 -0.566590
O6    O     O_R   0.499980 0.683210 0.385310 -0.602592
O7    O     O_R   0.680930 0.500020 0.614700 -0.638174
O8    O     O_R   0.680920 0.499980 0.385360 -0.505619
C3    C     C_R   0.497059 0.739370 0.497990 0.961044
C4    C     C_R   0.736669 0.497439 0.499207 0.978760
C5    C     C_2   0.925752 0.414613 0.421618 0.396397
C6    C     C_2   0.868799 0.495186 0.495333 -0.429475
H1    H     H_    0.920233 0.570974 0.544541 0.128991
C7    C     C_2   0.061650 0.430164 0.409925 -0.237914
C8    C     C_2   0.129640 0.478348 0.509405 -0.312629
H2    H     H_    0.106104 0.396891 0.322454 0.201442
H3    H     H_    0.087990 0.496179 0.605379 0.189037
C9    C     C_R   0.470647 0.054718 0.622589 -0.050477
C10   C     C_R   0.459103 0.123211 0.503727 -0.146650
C11   C     C_R   0.427125 0.057509 0.386770 0.280305
C12   C     C_R   0.429609 0.928707 0.386167 0.399186
C13   C     C_R   0.485218 0.870708 0.494625 -0.190023
C14   C     C_R   0.492730 0.930535 0.615335 -0.216059
C15   C     C_3   0.411214 0.891193 0.734620 0.619154
C16   C     C_3   0.370554 0.019474 0.729879 0.247918
H4    H     H_    0.386978 0.061767 0.826990 0.165292
C17   C     C_R   0.391154 0.488464 0.072266 -0.042174
N1    N     N_R   0.499170 0.499140 0.142800 -0.127715
C18   C     C_R   0.603708 0.545027 0.069534 0.244134
C19   C     C_R   0.601589 0.551576 0.923602 0.408793
N2    N     N_R   0.499170 0.499180 0.857150 -0.134286
C20   C     C_R   0.390196 0.490404 0.930930 0.176035
C21   C     C_3   0.289664 0.387113 0.933452 0.680185
C22   C     C_3   0.288976 0.389087 0.085464 -0.543052
H5    H     H_    0.203518 0.424037 0.126732 0.203216
H6    H     H_    0.317907 0.306182 0.135687 0.284072
N3    N     N_R   0.857911 0.314713 0.353844 0.249792
O9    O     O_R   0.905072 0.271239 0.246747 -0.371573
O10   O     O_R   0.761837 0.253022 0.411287 -0.416727
N4    N     N_R   0.711384 0.595236 0.139257 0.201668
O11   O     O_R   0.704503 0.691447 0.211962 -0.422678
O12   O     O_R   0.806016 0.530154 0.154689 -0.406929
O13   O     O_3   0.679391 0.639786 0.852463 -0.597980
C23   C     C_3   0.806476 0.617815 0.857834 0.136563
H7    H     H_    0.838769 0.597474 0.756688 0.165928
H8    H     H_    0.824256 0.539045 0.922506 0.166399
C24   C     C_3   0.886068 0.732514 0.900191 -0.809310
H9    H     H_    0.863948 0.755870 0.004137 0.290484
H10   H     H_    0.986540 0.716678 0.893947 0.245196
H11   H     H_    0.868790 0.810953 0.832459 0.236088
O14   O     O_3   0.175372 0.418151 0.877552 -0.594801
C25   C     C_3   0.085402 0.314093 0.885517 0.091805
H12   H     H_    0.100992 0.248255 0.969793 0.158657
H13   H     H_    0.085205 0.265567 0.789859 0.198926
C26   C     C_3   0.956596 0.354285 0.904081 -0.793597
H14   H     H_    0.933254 0.408683 0.814022 0.224375
H15   H     H_    0.887357 0.272442 0.915179 0.238462
H16   H     H_    0.955125 0.408684 0.996026 0.302212
N5    N     N_R   0.338312 0.280913 0.874761 0.133179
O15   O     O_R   0.442710 0.244746 0.919798 -0.432795
O16   O     O_R   0.307334 0.258749 0.752174 -0.420227
N6    N     N_R   0.382681 0.118487 0.271959 0.174906
O17   O     O_R   0.461334 0.150416 0.175087 -0.395759
O18   O     O_R   0.263333 0.108523 0.248571 -0.389544
O19   O     O_3   0.337660 0.860087 0.317162 -0.551824
C27   C     C_3   0.374907 0.842183 0.184874 0.144057
H17   H     H_    0.464786 0.799915 0.181029 0.166190
H18   H     H_    0.382709 0.929481 0.124891 0.203088
C28   C     C_3   0.275092 0.755318 0.122166 -0.692829
H19   H     H_    0.189074 0.802520 0.104992 0.249285
H20   H     H_    0.310554 0.725358 0.026018 0.254051
H21   H     H_    0.252110 0.672799 0.188330 0.267460
N7    N     N_R   0.308717 0.794840 0.708267 0.205667
O20   O     O_R   0.285403 0.702266 0.791785 -0.398445
O21   O     O_R   0.240797 0.799094 0.601256 -0.371334
O22   O     O_3   0.476606 0.864251 0.855052 -0.641332
C29   C     C_3   0.598536 0.927266 0.862220 0.058921
H22   H     H_    0.599553 0.027522 0.838902 0.162271
H23   H     H_    0.662843 0.885912 0.792421 0.201376
C30   C     C_3   0.649272 0.916095 0.001945 -0.728361
H24   H     H_    0.638842 0.818304 0.033763 0.290300
H25   H     H_    0.749602 0.950938 0.002697 0.222412
H26   H     H_    0.598148 0.971106 0.071794 0.259212
O23   O     O_3   0.248941 0.027298 0.677962 -0.535201
C31   C     C_3   0.157663 0.007527 0.780929 0.186522
H27   H     H_    0.172042 0.077795 0.858513 0.134339
H28   H     H_    0.159813 0.915840 0.831588 0.150542
C32   C     C_3   0.029037 0.014581 0.720345 -0.769415
H29   H     H_    0.004750 0.932507 0.659154 0.276797
H30   H     H_    0.958065 0.018188 0.801041 0.179093
H31   H     H_    0.027877 0.098371 0.654938 0.272151

loop_
_geom_bond_atom_site_label_1
_geom_bond_atom_site_label_2
_geom_bond_distance
_ccdc_geom_bond_type
C5    C7    1.458701 S    
N6    O18   1.301417 A    
O14   C25   1.421873 S    
N5    O16   1.297049 A    
C9    C16   1.530189 S    
N3    O10   1.300635 A    
N3    O9    1.301281 A    
C1    C10   1.481132 S    
N2    C20   1.374231 A    
C30   H26   1.107944 S    
C29   H22   1.110594 S    
N7    O20   1.297922 A    
Zn1   O7    1.979691 S    
C2    C8    1.425793 S    
C13   C14   1.387812 A    
C21   C22   1.521970 S    
C15   C16   1.502868 S    
C8    H3    1.086247 S    
C30   H25   1.110400 S    
C7    C8    1.330867 D    
C17   C20   1.414142 A    
O4    C2    1.303797 A    
O7    C4    1.299761 A    
C5    C6    1.348156 D    
C25   H12   1.116343 S    
C19   N2    1.377752 A    
C28   H19   1.111209 S    
O5    C3    1.305343 A    
C16   O23   1.419799 S    
C21   N5    1.449975 S    
C23   C24   1.521255 S    
O13   C23   1.409839 S    
C6    H1    1.083420 S    
C10   C11   1.417115 A    
C27   H17   1.108927 S    
C31   H28   1.110798 S    
C11   N6    1.419948 S    
C23   H8    1.093172 S    
N6    O17   1.300160 A    
C26   H14   1.108610 S    
C28   H20   1.100848 S    
O3    Zn1   1.986047 S    
C29   H23   1.111616 S    
N4    O12   1.300620 A    
N7    O21   1.303255 A    
C26   H15   1.110926 S    
C24   H9    1.106790 S    
Zn2   N1    2.042595 S    
C11   C12   1.407258 A    
C5    N3    1.442512 S    
O3    C2    1.290324 A    
C12   C13   1.406444 A    
C32   H31   1.110411 S    
C24   H10   1.110959 S    
C16   H4    1.095676 S    
C17   N1    1.361388 A    
Zn2   O8    1.986047 S    
C27   C28   1.516299 S    
C32   H30   1.110476 S    
C18   C19   1.460697 A    
C30   H24   1.099953 S    
C31   C32   1.521996 S    
C15   N7    1.481515 S    
C23   H7    1.102238 S    
O8    C4    1.292481 A    
C9    C14   1.399667 A    
C28   H21   1.110494 S    
C4    C6    1.423247 S    
C3    C13   1.448783 S    
C12   O19   1.384688 S    
C29   C30   1.510948 S    
N4    O11   1.300053 A    
Zn1   O5    2.024213 S    
C20   C21   1.487221 S    
C26   H16   1.108979 S    
O1    Zn1   2.044769 S    
C18   N4    1.429771 S    
Zn1   N2    2.041453 S    
O2    Zn2   2.024215 S    
O22   C29   1.426379 S    
O6    C3    1.299218 A    
O4    Zn2   1.979689 S    
C25   C26   1.501958 S    
C17   C22   1.472994 S    
C24   H11   1.106862 S    
N1    C18   1.383688 A    
O2    C1    1.307764 A    
C22   H6    1.093592 S    
C22   H5    1.107502 S    
C32   H29   1.110623 S    
C25   H13   1.106216 S    
C7    H2    1.081013 S    
O19   C27   1.403886 S    
C15   O22   1.437217 S    
N5    O15   1.303157 A    
C21   O14   1.419344 S    
O23   C31   1.415630 S    
Zn2   O6    2.044769 S    
C14   C15   1.504427 S    
C9    C10   1.399727 A    
C27   H18   1.107648 S    
C19   O13   1.391782 S    
O1    C1    1.314624 A    
C31   H27   1.107364 S    
