data_mof_unit_41490.cif
_audit_creation_date              2012-12-10T17:14:43-0500
_audit_creation_method            fapswitch 2.2
_symmetry_space_group_name_H-M    P1
_symmetry_Int_Tables_number       1
_space_group_crystal_system       triclinic
_cell_length_a                    10.65198
_cell_length_b                    13.003125
_cell_length_c                    11.674229
_cell_angle_alpha                 99.702223
_cell_angle_beta                  94.338131
_cell_angle_gamma                 90.310138
_cell_volume                      1589.02053855

loop_
_atom_site_label
_atom_site_type_symbol
_atom_type_description
_atom_site_fract_x
_atom_site_fract_y
_atom_site_fract_z
_atom_type_partial_charge
C1    C     C_R   0.498186 0.299078 0.478729 0.802745
C2    C     C_R   0.501814 0.700922 0.521271 0.802745
C3    C     C_R   0.504611 0.139181 0.566409 -0.268938
C4    C     C_R   0.495389 0.860819 0.433591 -0.268938
C5    C     C_R   0.504081 0.031170 0.555982 0.175826
C6    C     C_R   0.495919 0.968829 0.444018 0.175825
C7    C     C_R   0.379808 0.403312 0.021058 -0.341296
C8    C     C_R   0.620192 0.596688 0.978942 -0.341296
C9    C     C_R   0.391680 0.412212 0.143317 0.098555
C10   C     C_R   0.608320 0.587788 0.856683 0.098555
C11   C     C_R   0.552129 0.541551 0.157440 0.022817
C12   C     C_R   0.447871 0.458449 0.842560 0.022817
C13   C     C_R   0.543746 0.535030 0.034508 0.067256
C14   C     C_R   0.456254 0.464970 0.965492 0.067256
C15   C     C_R   0.259293 0.499376 0.499502 0.808024
C16   C     C_R   0.740707 0.500624 0.500498 0.808025
C17   C     C_3   0.045895 0.418724 0.548477 -0.219999
C18   C     C_3   0.954105 0.581276 0.451523 -0.219999
C19   C     C_3   0.950660 0.408940 0.439078 -0.258442
C20   C     C_3   0.049340 0.591060 0.560922 -0.258441
C21   C     C_3   0.877160 0.500849 0.501621 -0.079032
C22   C     C_3   0.122840 0.499151 0.498379 -0.079032
C23   C     C_3   0.971234 0.510470 0.608604 0.350880
C24   C     C_3   0.028766 0.489530 0.391396 0.350880
C25   C     C_R   0.502819 0.814276 0.533564 -0.051746
C26   C     C_R   0.497181 0.185724 0.466436 -0.051746
C27   C     C_R   0.488370 0.015444 0.344230 -0.218713
C28   C     C_R   0.511630 0.984556 0.655770 -0.218713
C29   C     C_R   0.488973 0.123515 0.355369 -0.201524
C30   C     C_R   0.511027 0.876485 0.644631 -0.201524
Cu1   Cu    Cu3+1 0.509400 0.507730 0.615930 0.937733
Cu2   Cu    Cu3+1 0.490600 0.492270 0.384070 0.937733
H1    H     H_    0.908229 0.335666 0.387805 0.144966
H2    H     H_    0.091771 0.664334 0.612195 0.144966
H3    H     H_    0.085595 0.353287 0.588733 0.137658
H4    H     H_    0.914405 0.646713 0.411267 0.137658
H5    H     H_    0.489148 0.813241 0.347536 0.153283
H6    H     H_    0.510852 0.186759 0.652464 0.153283
H7    H     H_    0.516908 0.841754 0.722885 0.156292
H8    H     H_    0.483092 0.158246 0.277115 0.156292
H9    H     H_    0.482048 0.968471 0.257917 0.134573
H10   H     H_    0.517952 0.031529 0.742083 0.134573
H11   H     H_    0.380874 0.404658 0.788714 0.115523
H12   H     H_    0.619126 0.595342 0.211286 0.115523
H13   H     H_    0.667169 0.636070 0.814972 0.110844
H14   H     H_    0.332831 0.363929 0.185028 0.110844
H15   H     H_    0.311486 0.348513 0.970496 0.132884
H16   H     H_    0.688513 0.651487 0.029504 0.132884
N1    N     N_R   0.523540 0.519360 0.790140 -0.178113
N2    N     N_R   0.476460 0.480640 0.209860 -0.178113
O1    O     O_R   0.506670 0.354460 0.582000 -0.587657
O2    O     O_R   0.493330 0.645540 0.418000 -0.587657
O3    O     O_R   0.490800 0.341410 0.386200 -0.596433
O4    O     O_R   0.509200 0.658590 0.613800 -0.596433
O5    O     O_R   0.324790 0.506500 0.597880 -0.586620
O6    O     O_R   0.675210 0.493500 0.402120 -0.586620
O7    O     O_R   0.308910 0.493440 0.402080 -0.580723
O8    O     O_R   0.691090 0.506560 0.597920 -0.580724
N3    N     N_2   0.936875 0.523334 0.727712 -0.410468
H17   H     H_    0.881272 0.587278 0.749011 0.243986
C31   C     C_3   0.040730 0.518978 0.813859 -0.690887
H18   H     H_    0.004771 0.527891 0.901704 0.221758
H19   H     H_    0.110086 0.582963 0.813044 0.225397
H20   H     H_    0.087897 0.442579 0.796636 0.229589
N4    N     N_2   0.063125 0.476666 0.272288 -0.410469
H21   H     H_    0.118727 0.412721 0.250989 0.243986
C32   C     C_3   0.959270 0.481022 0.186141 -0.690887
H22   H     H_    0.995229 0.472109 0.098296 0.221758
H23   H     H_    0.912104 0.557421 0.203363 0.229589
H24   H     H_    0.889914 0.417037 0.186956 0.225397

loop_
_geom_bond_atom_site_label_1
_geom_bond_atom_site_label_2
_ccdc_geom_bond_type
Cu1   O5    S    
C31   H20   S    
C8    H16   S    
C16   C21   S    
C8    C13   A    
C17   C22   S    
C27   C29   A    
C5    C28   A    
C1    O1    A    
C27   H9    S    
Cu1   Cu2   S    
C20   C23   S    
C3    C5    A    
C32   H24   S    
C20   H2    S    
C7    C9    A    
C31   H18   S    
C10   H13   S    
C28   C30   A    
C19   C24   S    
N3    H17   S    
N4    H21   S    
C11   N2    A    
C16   O8    A    
C13   C14   A    
C18   C21   S    
C23   N3    S    
C15   O7    A    
Cu2   N2    S    
C2    C25   S    
C17   C23   S    
C2    O2    A    
C24   N4    S    
Cu1   N1    S    
C18   C24   S    
C5    C6    A    
Cu2   O7    S    
Cu1   O8    S    
C28   H10   S    
C17   C19   S    
C12   C14   A    
C30   H7    S    
C12   N1    A    
C12   H11   S    
C18   C20   S    
C3    C26   A    
Cu1   O4    S    
C19   H1    S    
C1    C26   S    
C22   C24   S    
C11   H12   S    
N3    C31   S    
C11   C13   A    
C7    H15   S    
C32   H22   S    
C16   O6    A    
C4    C25   A    
Cu2   O3    S    
C9    H14   S    
C4    H5    S    
C29   H8    S    
C26   C29   A    
C8    C10   A    
C4    C6    A    
C2    O4    A    
Cu1   O1    S    
C25   C30   A    
C31   H19   S    
C1    O3    A    
Cu2   O2    S    
C17   H3    S    
C32   H23   S    
C19   C21   S    
C10   N1    A    
C18   H4    S    
C21   C23   S    
Cu2   O6    S    
C15   C22   S    
C7    C14   A    
C9    N2    A    
C6    C27   A    
C3    H6    S    
C20   C22   S    
N4    C32   S    
C15   O5    A    
