data_mof_unit_28397.cif
_audit_creation_date              2012-12-10T17:13:35-0500
_audit_creation_method            fapswitch 2.2
_symmetry_space_group_name_H-M    P1
_symmetry_Int_Tables_number       1
_space_group_crystal_system       triclinic
_cell_length_a                    10.761855
_cell_length_b                    13.142589
_cell_length_c                    11.659151
_cell_angle_alpha                 100.443616
_cell_angle_beta                  94.405381
_cell_angle_gamma                 90.226137
_cell_volume                      1616.67589069

loop_
_atom_site_label
_atom_site_type_symbol
_atom_type_description
_atom_site_fract_x
_atom_site_fract_y
_atom_site_fract_z
_atom_type_partial_charge
C1    C     C_R   0.499499 0.299153 0.477930 0.913117
C2    C     C_3   0.877957 0.503847 0.499898 0.001473
C3    C     C_3   0.934922 0.585590 0.603516 -0.386713
C4    C     C_3   0.916871 0.532959 0.384098 -0.381647
C5    C     C_R   0.494487 0.816121 0.534274 -0.206423
C6    C     C_R   0.496437 0.186040 0.464232 -0.213113
C7    C     C_R   0.451904 0.017039 0.347112 -0.143290
C8    C     C_R   0.451785 0.123344 0.357325 0.371873
C9    C     C_R   0.534478 0.139099 0.560682 0.310115
C10   C     C_R   0.507537 0.033355 0.555785 -0.036611
C11   C     C_R   0.481224 0.970529 0.444913 -0.039999
C12   C     C_R   0.260037 0.504955 0.500159 0.870402
C13   C     C_R   0.485121 0.862603 0.432803 -0.054723
C14   C     C_R   0.495635 0.880784 0.646550 0.355935
C15   C     C_R   0.505465 0.988987 0.657489 -0.091987
C16   C     C_R   0.366737 0.412556 0.021695 -0.127017
C17   C     C_R   0.383789 0.420469 0.144694 0.092868
C18   C     C_R   0.555605 0.535268 0.156882 0.072817
C19   C     C_R   0.543179 0.530737 0.034518 -0.035204
C20   C     C_R   0.449479 0.467717 0.964617 -0.016164
C21   C     C_R   0.444427 0.461504 0.840664 0.057125
C22   C     C_R   0.610510 0.583859 0.860016 0.615548
C23   C     C_R   0.498964 0.701552 0.521815 0.898876
C24   C     C_R   0.622540 0.588992 0.981392 -0.273506
C25   C     C_R   0.740302 0.501323 0.500125 0.805918
C26   C     C_3   0.074349 0.400682 0.521087 0.172680
C27   C     C_3   0.930129 0.396453 0.511902 -0.376644
C28   C     C_3   0.078462 0.592017 0.600903 -0.259187
C29   C     C_3   0.058669 0.524190 0.376449 -0.178738
C30   C     C_3   0.121938 0.507838 0.498548 -0.100403
Cu1   Cu    Cu3+1 0.509350 0.507730 0.615930 1.078149
Cu2   Cu    Cu3+1 0.490650 0.492270 0.384070 1.027407
H1    H     H_    0.108514 0.391406 0.611147 0.154798
H2    H     H_    0.885400 0.612964 0.379688 0.207693
H3    H     H_    0.889896 0.661366 0.601851 0.234920
H4    H     H_    0.423036 0.971301 0.262263 0.202648
H5    H     H_    0.379065 0.409684 0.783434 0.187784
H6    H     H_    0.693384 0.639418 0.034196 0.205136
H7    H     H_    0.320191 0.380087 0.189190 0.193855
H8    H     H_    0.627986 0.583292 0.210250 0.158314
H9    H     H_    0.893366 0.338268 0.435060 0.222886
H10   H     H_    0.897606 0.371810 0.591207 0.187684
H11   H     H_    0.118613 0.572349 0.685078 0.165610
H12   H     H_    0.913557 0.562762 0.687341 0.222705
H13   H     H_    0.074604 0.453052 0.311721 0.188295
H14   H     H_    0.870110 0.480708 0.306778 0.199586
N1    N     N_R   0.523430 0.519360 0.790130 -0.223785
N2    N     N_R   0.476570 0.480640 0.209880 -0.203592
O1    O     O_R   0.506640 0.354460 0.582000 -0.552025
O2    O     O_R   0.490840 0.341410 0.386200 -0.542086
O3    O     O_R   0.325590 0.506510 0.597900 -0.592305
O4    O     O_R   0.309790 0.493450 0.402100 -0.573313
O5    O     O_R   0.509160 0.658590 0.613800 -0.488013
O6    O     O_R   0.493360 0.645540 0.418000 -0.587764
O7    O     O_R   0.690210 0.506550 0.597900 -0.549416
O8    O     O_R   0.674410 0.493490 0.402100 -0.611427
C31   C     C_2   0.124207 0.701106 0.600561 0.941344
O9    O     O_2   0.226740 0.729602 0.648011 -0.543570
O10   O     O_R   0.050263 0.769611 0.547451 -0.730688
H15   H     H_    0.092408 0.839719 0.553481 0.364608
C32   C     C_2   0.486455 0.801324 0.312562 0.891927
O11   O     O_2   0.584422 0.790915 0.265481 -0.589468
O12   O     O_R   0.375363 0.759123 0.252603 -0.702478
H16   H     H_    0.387980 0.720362 0.171009 0.337702
Cl1   Cl    Cl    0.474427 0.830411 0.775426 -0.439240
C33   C     C_2   0.495159 0.055119 0.774197 1.024756
O13   O     O_2   0.415894 0.121871 0.786404 -0.549789
O14   O     O_R   0.576477 0.041547 0.869477 -0.655999
H17   H     H_    0.560103 0.091297 0.943784 0.366077
Cl2   Cl    Cl    0.395908 0.170690 0.230944 -0.503670
Cl3   Cl    Cl    0.640862 0.205214 0.674583 -0.569572
Cl4   Cl    Cl    0.133232 0.291778 0.425100 -0.568524
Cl5   Cl    Cl    0.710605 0.664259 0.803036 -0.548858
C34   C     C_2   0.259229 0.349931 0.958372 0.884616
O15   O     O_2   0.230291 0.268807 0.987658 -0.489918
O16   O     O_R   0.187317 0.385517 0.869135 -0.781766
H18   H     H_    0.116024 0.336272 0.833826 0.353006
C35   C     C_2   0.107441 0.611530 0.321527 0.898415
O17   O     O_2   0.192564 0.669219 0.369802 -0.544782
O18   O     O_R   0.055163 0.623542 0.211336 -0.742749
H19   H     H_    0.094967 0.682906 0.181811 0.367501

loop_
_geom_bond_atom_site_label_1
_geom_bond_atom_site_label_2
_ccdc_geom_bond_type
C33   O14   S    
C26   Cl4   S    
C7    H4    S    
C19   C20   A    
C25   O8    A    
C6    C9    A    
C7    C8    A    
C4    H14   S    
C28   C31   S    
C7    C11   A    
C26   C27   S    
C34   O16   S    
C16   C34   S    
C3    C28   S    
C10   C15   A    
C35   O18   S    
C31   O10   S    
C18   C19   A    
C17   H7    S    
C32   O12   S    
C18   H8    S    
Cu2   O4    S    
C29   C35   S    
C16   C17   A    
C24   H6    S    
C17   N2    A    
C2    C27   S    
C1    O2    A    
C5    C13   A    
C4    C29   S    
C33   O13   D    
O10   H15   S    
Cu1   N1    S    
Cu2   N2    S    
Cu1   O1    S    
Cu2   O6    S    
C12   O4    A    
C23   O5    A    
C4    H2    S    
C3    H12   S    
C34   O15   D    
C1    C6    S    
C9    Cl3   S    
O16   H18   S    
C35   O17   D    
O14   H17   S    
C6    C8    A    
C15   C33   S    
C29   H13   S    
C2    C4    S    
C29   C30   S    
C27   H9    S    
C26   H1    S    
Cu1   Cu2   S    
C5    C23   S    
C3    H3    S    
C16   C20   A    
C21   H5    S    
Cu1   O5    S    
Cu2   O2    S    
C5    C14   A    
C26   C30   S    
C22   C24   A    
C12   O3    A    
C23   O6    A    
C9    C10   A    
C12   C30   S    
C25   O7    A    
Cu1   O3    S    
O18   H19   S    
C18   N2    A    
C28   H11   S    
C8    Cl2   S    
C28   C30   S    
C19   C24   A    
C11   C13   A    
C27   H10   S    
C31   O9    D    
C14   Cl1   S    
C2    C3    S    
C2    C25   S    
C32   O11   D    
C22   N1    A    
C10   C11   A    
O12   H16   S    
C13   C32   S    
C20   C21   A    
C14   C15   A    
C22   Cl5   S    
Cu1   O7    S    
C1    O1    A    
Cu2   O8    S    
C21   N1    A    
