data_mof_unit_49842.cif
_audit_creation_date              2012-12-10T20:45:28-0500
_audit_creation_method            fapswitch 2.2
_symmetry_space_group_name_H-M    P1
_symmetry_Int_Tables_number       1
_space_group_crystal_system       triclinic
_cell_length_a                    10.700804
_cell_length_b                    10.688264
_cell_length_c                    9.854178
_cell_angle_alpha                 89.233366
_cell_angle_beta                  90.095236
_cell_angle_gamma                 90.081528
_cell_volume                      1126.94852915

loop_
_atom_site_label
_atom_site_type_symbol
_atom_type_description
_atom_site_fract_x
_atom_site_fract_y
_atom_site_fract_z
_atom_type_partial_charge
C1    C     C_R   0.503483 0.259774 0.500607 0.870059
C2    C     C_R   0.852850 0.343237 0.967138 -0.109149
C3    C     C_R   0.783831 0.234297 0.945515 -0.114644
C4    C     C_R   0.260283 0.504753 0.499550 0.863720
C5    C     C_R   0.765032 0.191647 0.813607 -0.134136
C6    C     C_R   0.813184 0.258902 0.702622 -0.103973
C7    C     C_R   0.882089 0.368892 0.723583 0.136326
C8    C     C_R   0.521540 0.061061 0.623055 0.117669
C9    C     C_R   0.523013 0.128198 0.501210 -0.099977
C10   C     C_R   0.549267 0.066380 0.379481 -0.238955
C11   C     C_R   0.550049 0.936824 0.378553 -0.248789
C12   C     C_R   0.231535 0.794295 0.080572 -0.131932
C13   C     C_R   0.524060 0.871081 0.499190 -0.101075
C14   C     C_R   0.521808 0.933661 0.621805 0.141493
C15   C     C_3   0.432450 0.922707 0.737543 -0.484488
C16   C     C_R   0.504229 0.739934 0.499243 0.868182
C17   C     C_3   0.432909 0.064258 0.740000 -0.507010
C18   C     C_R   0.394224 0.469414 0.071875 0.239297
C19   C     C_R   0.600541 0.541915 0.071474 -0.161201
C20   C     C_R   0.600503 0.541948 0.927488 -0.108366
C21   C     C_R   0.393509 0.471507 0.929090 0.130528
C22   C     C_3   0.322494 0.351932 0.923568 -0.491582
C23   C     C_R   0.932468 0.559659 0.395434 -0.256612
C24   C     C_3   0.327467 0.346784 0.077363 0.204730
C25   C     C_R   0.739883 0.496427 0.500433 0.867685
C26   C     C_R   0.254537 0.820666 0.216865 -0.115325
C27   C     C_R   0.199296 0.747716 0.319325 -0.110763
C28   C     C_R   0.120409 0.647375 0.285894 0.131459
C29   C     C_R   0.095567 0.623439 0.148483 -0.095120
C30   C     C_R   0.151826 0.695947 0.046401 -0.151737
C31   C     C_R   0.872476 0.495144 0.501076 -0.075379
C32   C     C_R   0.939815 0.437687 0.607834 -0.005604
C33   C     C_R   0.067825 0.444432 0.604124 -0.255163
C34   C     C_R   0.127825 0.508808 0.499091 -0.082474
C35   C     C_R   0.060864 0.569608 0.394164 0.014701
C36   C     C_R   0.902567 0.409947 0.856789 -0.171734
H1    H     H_    0.274825 0.850566 0.001498 0.133812
H2    H     H_    0.478540 0.100378 0.832912 0.194842
H3    H     H_    0.682585 0.573720 0.125211 0.148398
H4    H     H_    0.314839 0.897968 0.243086 0.135724
H5    H     H_    0.682300 0.574065 0.872984 0.155328
H6    H     H_    0.226832 0.365487 0.882403 0.217796
H7    H     H_    0.376920 0.277455 0.875031 0.170938
H8    H     H_    0.384668 0.268099 0.119358 0.093575
H9    H     H_    0.217703 0.769545 0.424516 0.095870
H10   H     H_    0.033933 0.547617 0.120500 0.146003
H11   H     H_    0.133669 0.675799 0.940813 0.131089
H12   H     H_    0.745833 0.182323 0.031016 0.120073
H13   H     H_    0.878760 0.607159 0.316736 0.146695
H14   H     H_    0.121114 0.395891 0.681999 0.155153
H15   H     H_    0.956570 0.493886 0.874880 0.121671
H16   H     H_    0.868003 0.375837 0.069394 0.138355
H17   H     H_    0.215865 0.327105 0.229785 0.346606
H18   H     H_    0.714495 0.105512 0.797826 0.130546
H19   H     H_    0.798536 0.224470 0.600938 0.105774
H20   H     H_    0.560798 0.116929 0.284277 0.164214
H21   H     H_    0.561897 0.889296 0.283017 0.169669
H22   H     H_    0.340741 0.882379 0.707501 0.199897
H23   H     H_    0.476189 0.879009 0.828948 0.202103
H24   H     H_    0.341126 0.106590 0.712994 0.206491
N1    N     N_R   0.499160 0.499140 0.142800 -0.137329
N2    N     N_R   0.499160 0.499180 0.857150 -0.104336
O1    O     O_R   0.500020 0.316790 0.614690 -0.608390
O2    O     O_R   0.500000 0.316760 0.385350 -0.637488
O3    O     O_R   0.316770 0.500030 0.614670 -0.623294
O4    O     O_R   0.316750 0.499990 0.385330 -0.603958
O5    O     O_R   0.500000 0.683240 0.614650 -0.617367
O6    O     O_R   0.499980 0.683210 0.385310 -0.616089
O7    O     O_R   0.683250 0.500010 0.614670 -0.617112
O8    O     O_R   0.683230 0.499970 0.385330 -0.632114
O9    O     O_3   0.208257 0.357354 0.134563 -0.754160
Zn1   Zn    Zn3+2 0.500010 0.500020 0.653130 0.947102
Zn2   Zn    Zn3+2 0.499990 0.499980 0.346870 0.943251

loop_
_geom_bond_atom_site_label_1
_geom_bond_atom_site_label_2
_ccdc_geom_bond_type
C25   C31   S    
O7    Zn1   S    
O2    Zn2   S    
C18   N1    A    
C15   H23   S    
C29   C30   A    
C16   O6    A    
C22   H7    S    
C30   H11   S    
O3    Zn1   S    
C10   H20   S    
C9    C10   A    
C6    H19   S    
C8    C17   S    
C14   C15   S    
C29   H10   S    
C3    C5    A    
N1    Zn2   S    
C32   C33   A    
C27   H9    S    
O8    Zn2   S    
C2    C3    A    
C26   C27   A    
N2    Zn1   S    
C16   O5    A    
C25   O8    A    
C13   C14   A    
C4    O4    A    
C5    H18   S    
C11   C13   A    
C26   H4    S    
C21   N2    A    
C22   H6    S    
C36   H15   S    
C2    H16   S    
C19   N1    A    
C18   C24   S    
C19   H3    S    
C22   C24   S    
C28   C29   A    
C33   C34   A    
C20   H5    S    
C6    C7    A    
C23   C35   A    
C17   H2    S    
C20   N2    A    
C5    C6    A    
C24   H8    S    
C15   H22   S    
C4    C34   S    
C23   H13   S    
C25   O7    A    
C10   C11   A    
C17   H24   S    
C23   C31   A    
C18   C21   A    
C1    O2    A    
C1    O1    A    
C3    H12   S    
O5    Zn1   S    
C1    C9    S    
O1    Zn1   S    
C24   O9    S    
C34   C35   A    
C7    C36   A    
C13   C16   S    
C2    C36   A    
C12   H1    S    
C15   C17   S    
C4    O3    A    
C8    C14   A    
C7    C32   S    
C33   H14   S    
C12   C30   A    
O6    Zn2   S    
C21   C22   S    
O4    Zn2   S    
C11   H21   S    
C31   C32   A    
C19   C20   A    
C28   C35   S    
C12   C26   A    
C8    C9    A    
C27   C28   A    
H17   O9    S    
