data_mof_unit_45137.cif
_audit_creation_date              2012-12-10T18:57:51-0500
_audit_creation_method            fapswitch 2.2
_symmetry_space_group_name_H-M    P1
_symmetry_Int_Tables_number       1
_space_group_crystal_system       triclinic
_cell_length_a                    10.622972
_cell_length_b                    9.997968
_cell_length_c                    8.902536
_cell_angle_alpha                 89.932956
_cell_angle_beta                  92.231925
_cell_angle_gamma                 89.961744
_cell_volume                      944.803550476

loop_
_atom_site_label
_atom_site_type_symbol
_atom_type_description
_atom_site_fract_x
_atom_site_fract_y
_atom_site_fract_z
_atom_type_partial_charge
C1    C     C_R   0.260896 0.500087 0.500674 0.897985
C2    C     C_R   0.068658 0.548296 0.628525 0.022309
C3    C     C_R   0.871645 0.499749 0.500715 -0.059354
C4    C     C_R   0.128268 0.500248 0.501202 -0.072008
C5    C     C_R   0.570465 0.070735 0.605229 0.405269
C6    C     C_R   0.429523 0.929263 0.394784 0.403257
C7    C     C_R   0.429537 0.071002 0.394768 0.404938
C8    C     C_R   0.570455 0.928994 0.605241 0.403194
C9    C     C_R   0.739092 0.499939 0.500514 0.942684
C10   C     C_R   0.499588 0.500047 0.219125 0.940041
C11   C     C_R   0.500465 0.499954 0.780874 0.908608
C12   C     C_1   0.499857 0.500068 0.065498 -0.136342
C13   C     C_1   0.500187 0.499936 0.934497 -0.144642
C14   C     C_R   0.061426 0.451530 0.374092 0.035798
C15   C     C_R   0.938419 0.548064 0.627780 0.059837
C16   C     C_R   0.930571 0.451053 0.373992 0.024462
H1    H     H_    0.099874 0.463386 0.152695 0.189634
H2    H     H_    0.343090 0.774145 0.314858 0.379134
H3    H     H_    0.343243 0.226336 0.314773 0.382014
H4    H     H_    0.656795 0.773668 0.685219 0.382113
H5    H     H_    0.103038 0.305984 0.224984 0.218065
H6    H     H_    0.901857 0.536104 0.849097 0.197029
H7    H     H_    0.898967 0.693198 0.777415 0.236655
H8    H     H_    0.877640 0.461801 0.152543 0.182855
H9    H     H_    0.880187 0.304668 0.225603 0.211348
H10   H     H_    0.192542 0.676843 0.730928 0.225621
H11   H     H_    0.199211 0.517601 0.797702 0.179069
H12   H     H_    0.656901 0.225849 0.685162 0.377361
N1    N     N_R   0.500000 0.857200 0.500000 -0.271116
N2    N     N_R   0.500000 0.142800 0.500000 -0.270232
N3    N     N_3   0.127580 0.405587 0.246153 -0.462488
N4    N     N_3   0.872904 0.593984 0.756117 -0.459176
N5    N     N_3   0.856392 0.404219 0.246264 -0.446300
N6    N     N_3   0.138622 0.594046 0.759934 -0.457015
O1    O     O_R   0.316770 0.614620 0.499990 -0.653481
O2    O     O_3   0.354661 0.867752 0.285882 -0.683415
O3    O     O_3   0.354704 0.132781 0.285822 -0.687873
O4    O     O_3   0.645283 0.867212 0.714193 -0.686956
O5    O     O_R   0.683230 0.385380 0.500010 -0.634289
O6    O     O_R   0.683230 0.614620 0.500010 -0.634069
O7    O     O_R   0.316770 0.385380 0.499990 -0.628153
O8    O     O_R   0.500010 0.614640 0.285340 -0.615546
O9    O     O_R   0.499990 0.385360 0.714660 -0.616980
O10   O     O_R   0.499990 0.614640 0.714660 -0.618423
O11   O     O_R   0.500010 0.385360 0.285340 -0.609716
O12   O     O_3   0.645313 0.132245 0.714145 -0.684103
Zn1   Zn    Zn3+2 0.500000 0.653120 0.500000 0.956492
Zn2   Zn    Zn3+2 0.500000 0.346880 0.500000 0.965907

loop_
_geom_bond_atom_site_label_1
_geom_bond_atom_site_label_2
_ccdc_geom_bond_type
O6    Zn1   S    
C2    C4    A    
C11   O9    A    
C6    C7    A    
C3    C9    S    
C16   N5    S    
C10   O8    A    
H4    O4    S    
C5    O12   S    
H8    N5    S    
O10   Zn1   S    
C9    O5    A    
C14   N3    S    
C1    C4    S    
O1    Zn1   S    
H7    N4    S    
C2    N6    S    
C10   O11   A    
C7    O3    S    
C15   N4    S    
C7    N2    A    
C2    C15   A    
H5    N3    S    
H12   O12   S    
H6    N4    S    
N1    Zn1   S    
C8    N1    A    
C10   C12   S    
C1    O7    A    
O7    Zn2   S    
C6    O2    S    
O8    Zn1   S    
C8    O4    S    
H11   N6    S    
C4    C14   A    
H1    N3    S    
C14   C16   A    
C5    C8    A    
C11   O10   A    
C11   C13   S    
C6    N1    A    
C3    C15   A    
C12   C13   T    
C1    O1    A    
C5    N2    A    
O9    Zn2   S    
O11   Zn2   S    
N2    Zn2   S    
H3    O3    S    
H2    O2    S    
H10   N6    S    
C9    O6    A    
C3    C16   A    
H9    N5    S    
O5    Zn2   S    
