data_mof_unit_23630.cif
_audit_creation_date              2012-10-26T21:12:31-0400
_audit_creation_method            fapswitch 2.2
_symmetry_space_group_name_H-M    P1
_symmetry_Int_Tables_number       1
_space_group_crystal_system       triclinic
_cell_length_a                    23.501413
_cell_length_b                    10.773543
_cell_length_c                    9.614126
_cell_angle_alpha                 90.250171
_cell_angle_beta                  90.340422
_cell_angle_gamma                 92.774073
_cell_volume                      2431.31216431

loop_
_atom_site_label
_atom_site_type_symbol
_atom_type_description
_atom_site_fract_x
_atom_site_fract_y
_atom_site_fract_z
_atom_type_partial_charge
C1    C     C_R   0.497941 0.262617 0.499764 0.555149
C2    C     C_R   0.122427 0.614782 0.495281 0.440256
C3    C     C_R   0.238995 0.503404 0.624002 -0.094216
C4    C     C_R   0.391008 0.499772 0.499680 0.550023
C5    C     C_R   0.298263 0.502326 0.624783 -0.163488
C6    C     C_R   0.328349 0.500559 0.498939 -0.040514
C7    C     C_R   0.298030 0.499930 0.372409 -0.083203
C8    C     C_R   0.238652 0.500955 0.371536 0.293948
C9    C     C_R   0.209024 0.502741 0.497830 0.246437
C10   C     C_R   0.761328 0.504605 0.377065 -0.093447
C11   C     C_R   0.701997 0.502950 0.375809 -0.154222
C12   C     C_R   0.964982 0.279534 0.510192 -0.106598
C13   C     C_R   0.671723 0.503372 0.501427 -0.039747
C14   C     C_R   0.701925 0.506536 0.628197 -0.110665
C15   C     C_R   0.761357 0.508275 0.629532 0.293108
C16   C     C_R   0.498280 0.737060 0.500220 0.519734
C17   C     C_R   0.791168 0.506920 0.503478 0.248598
C18   C     C_R   0.407268 0.120321 0.644659 -0.086701
C19   C     C_R   0.365182 0.051214 0.715901 -0.088092
C20   C     C_R   0.365381 0.922144 0.716605 -0.096213
C21   C     C_R   0.407689 0.861368 0.646152 -0.094090
C22   C     C_R   0.451440 0.929542 0.575160 0.030048
C23   C     C_R   0.024332 0.278923 0.509512 -0.106997
C24   C     C_R   0.451222 0.060824 0.574441 0.032021
C25   C     C_R   0.493929 0.128397 0.499180 0.018816
C26   C     C_R   0.534022 0.067401 0.421212 -0.125144
C27   C     C_R   0.534240 0.939403 0.421865 -0.140679
C28   C     C_R   0.609003 0.501002 0.500366 0.535022
C29   C     C_R   0.494347 0.870478 0.500439 0.009659
C30   C     C_R   0.576019 0.665250 0.145556 -0.087118
C31   C     C_R   0.613267 0.745647 0.074202 -0.155095
C32   C     C_R   0.613249 0.745515 0.930844 -0.146739
C33   C     C_R   0.575949 0.665049 0.857899 -0.075437
C34   C     C_R   0.057332 0.391078 0.504776 0.035624
C35   C     C_R   0.537311 0.581178 0.926176 0.141559
C36   C     C_R   0.537322 0.581194 0.075667 0.123827
C37   C     C_R   0.464369 0.422474 0.071690 0.333523
C38   C     C_R   0.464550 0.422945 0.924290 0.035744
C39   C     C_R   0.883130 0.617230 0.498087 0.439016
C40   C     C_R   0.877809 0.395259 0.506718 0.441248
C41   C     C_R   0.937412 0.392311 0.506166 0.035570
C42   C     C_R   0.970088 0.505360 0.501445 -0.023165
C43   C     C_R   0.942866 0.619010 0.497356 0.036157
C44   C     C_R   0.030123 0.504742 0.500738 -0.023192
C45   C     C_R   0.062812 0.617781 0.495998 0.035849
C46   C     C_R   0.035236 0.730559 0.492033 -0.106350
C47   C     C_R   0.975873 0.731167 0.492688 -0.107424
C48   C     C_R   0.117051 0.392807 0.503841 0.440124
Cl1   Cl    Cl    0.797753 0.511884 0.789965 -0.539114
Cl2   Cl    Cl    0.416145 0.317121 0.153161 -0.573770
Cl3   Cl    Cl    0.202071 0.499706 0.211389 -0.523299
Cu1   Cu    Cu3+1 0.500000 0.499990 0.640660 0.925937
Cu2   Cu    Cu3+1 0.500000 0.500010 0.359340 1.012576
H1    H     H_    0.940819 0.191421 0.513867 0.176078
H2    H     H_    0.044229 0.190359 0.512659 0.172852
H3    H     H_    0.579576 0.673345 0.255264 0.175719
H4    H     H_    0.642357 0.808666 0.130918 0.136021
H5    H     H_    0.642339 0.808385 0.875401 0.144804
H6    H     H_    0.579345 0.672771 0.748268 0.182849
H7    H     H_    0.435565 0.359911 0.867483 0.142125
H8    H     H_    0.059401 0.818667 0.488362 0.176700
H9    H     H_    0.955974 0.819727 0.489528 0.172452
H10   H     H_    0.216223 0.504736 0.721547 0.160241
H11   H     H_    0.320439 0.502950 0.723870 0.154928
H12   H     H_    0.679920 0.501018 0.276561 0.155026
H13   H     H_    0.320282 0.498637 0.274124 0.192447
H14   H     H_    0.784244 0.503645 0.279707 0.158620
H15   H     H_    0.679532 0.507539 0.726325 0.161521
H16   H     H_    0.566221 0.119428 0.362200 0.138695
H17   H     H_    0.404143 0.220069 0.643065 0.133670
H18   H     H_    0.331817 0.097991 0.769180 0.150115
H19   H     H_    0.332161 0.868741 0.770409 0.143140
H20   H     H_    0.404897 0.760992 0.645974 0.145449
H21   H     H_    0.566572 0.893884 0.363174 0.115518
N1    N     N_R   0.852102 0.506523 0.502927 -0.378296
N2    N     N_R   0.148103 0.503477 0.498879 -0.379096
N3    N     N_R   0.500540 0.501210 0.147910 -0.236711
N4    N     N_R   0.500560 0.501290 0.852040 -0.274072
O1    O     O_R   0.500000 0.319640 0.618810 -0.509892
O2    O     O_R   0.582120 0.500020 0.618760 -0.518272
O3    O     O_R   0.582120 0.500050 0.381190 -0.525347
O4    O     O_2   0.856197 0.724979 0.494193 -0.462936
O5    O     O_2   0.845722 0.288048 0.511085 -0.458228
O6    O     O_2   0.143955 0.285011 0.507604 -0.456460
O7    O     O_2   0.154543 0.721949 0.490905 -0.458333
O8    O     O_R   0.500000 0.319660 0.381240 -0.438210
O9    O     O_R   0.417880 0.499950 0.618810 -0.524724
O10   O     O_R   0.417880 0.499980 0.381240 -0.445841
O11   O     O_R   0.500000 0.680340 0.618760 -0.529340
O12   O     O_R   0.500000 0.680360 0.381190 -0.518067

loop_
_geom_bond_atom_site_label_1
_geom_bond_atom_site_label_2
_ccdc_geom_bond_type
C18   H17   S    
C16   O12   A    
C22   C29   A    
C27   C29   A    
C41   C42   A    
C48   N2    A    
C19   H18   S    
C19   C20   A    
C32   H5    S    
C47   H9    S    
C7    C8    A    
C4    O9    A    
C10   H14   S    
C44   C45   A    
C12   C23   A    
C26   C27   A    
C37   C38   A    
C18   C24   A    
C36   N3    A    
C30   C31   A    
C10   C17   A    
C21   H20   S    
C2    O7    S    
Cu2   O3    S    
C18   C19   A    
C13   C14   A    
C35   C36   A    
C8    C9    A    
C13   C28   S    
Cu2   O8    S    
C9    N2    S    
C39   N1    A    
Cu1   O1    S    
C16   O11   A    
C33   H6    S    
C21   C22   A    
C1    C25   S    
C40   O5    S    
Cu1   O11   S    
C42   C44   A    
Cu1   N4    S    
C2    C45   A    
C46   H8    S    
C34   C44   A    
C24   C25   A    
C4    C6    S    
C39   C43   A    
C38   N4    A    
C16   C29   S    
C45   C46   A    
C30   H3    S    
C48   O6    S    
C5    H11   S    
Cu2   N3    S    
C12   C41   A    
C3    C9    A    
C31   C32   A    
C23   C34   A    
C8    Cl3   S    
C38   H7    S    
C40   C41   A    
C1    O1    A    
C22   C24   A    
C34   C48   A    
C42   C43   A    
C27   H21   S    
C2    N2    A    
Cu1   Cu2   S    
C1    O8    A    
C15   C17   A    
C46   C47   A    
C28   O3    A    
Cu1   O9    S    
C39   O4    S    
C3    C5    A    
C23   H2    S    
C6    C7    A    
C4    O10   A    
C3    H10   S    
C35   N4    A    
C40   N1    A    
C30   C36   A    
C32   C33   A    
C31   H4    S    
C25   C26   A    
C7    H13   S    
C37   Cl2   S    
C11   C13   A    
C5    C6    A    
C37   N3    A    
C33   C35   A    
Cu2   O10   S    
C15   Cl1   S    
C28   O2    A    
C10   C11   A    
C20   C21   A    
Cu2   O12   S    
C17   N1    S    
C26   H16   S    
C14   H15   S    
C14   C15   A    
C20   H19   S    
Cu1   O2    S    
C43   C47   A    
C12   H1    S    
C11   H12   S    
