data_mof_unit_35809.cif
_audit_creation_date              2012-12-11T15:08:31-0500
_audit_creation_method            fapswitch 2.2
_symmetry_space_group_name_H-M    P1
_symmetry_Int_Tables_number       1
_space_group_crystal_system       triclinic
_cell_length_a                    26.80374
_cell_length_b                    7.090671
_cell_length_c                    11.927356
_cell_angle_alpha                 90.00242
_cell_angle_beta                  103.118036
_cell_angle_gamma                 90.00249
_cell_volume                      2207.71656962

loop_
_atom_site_label
_atom_site_type_symbol
_atom_type_description
_atom_site_fract_x
_atom_site_fract_y
_atom_site_fract_z
_atom_type_partial_charge
O1    O     O_R   0.437360 0.505910 0.042120 -0.529355
O2    O     O_R   0.562640 0.005910 0.957880 -0.529349
O3    O     O_R   0.542480 0.176660 0.157100 -0.533797
O4    O     O_R   0.457520 0.676660 0.842900 -0.533811
C1    C     C_R   0.557683 0.344549 0.196808 0.715970
C2    C     C_R   0.442318 0.844536 0.803192 0.715971
O5    O     O_R   0.436520 0.176250 0.054800 -0.544544
O6    O     O_R   0.563480 0.676250 0.945200 -0.544548
O7    O     O_R   0.455920 0.005040 0.854840 -0.533684
O8    O     O_R   0.544080 0.505040 0.145160 -0.533693
C3    C     C_R   0.417103 0.344877 0.062536 0.747186
C4    C     C_R   0.582896 0.844884 0.937459 0.747179
O9    O     O_3   0.506490 0.338900 0.934520 -0.371125
O10   O     O_3   0.493510 0.838900 0.065480 -0.371141
V1    V     V_3+5 0.498800 0.064400 0.012150 1.510719
V2    V     V_3+5 0.501200 0.564400 0.987850 1.510710
C5    C     C_R   0.682551 0.952751 0.768716 -0.176600
C6    C     C_R   0.317447 0.452616 0.231286 -0.176610
H1    H     H_    0.775874 0.986209 0.734133 0.144127
H2    H     H_    0.224127 0.486092 0.265863 0.144130
H3    H     H_    0.683979 0.998175 0.682704 0.159902
H4    H     H_    0.316020 0.497977 0.317306 0.159919
C7    C     C_R   0.632382 0.857608 0.903832 -0.083919
C8    C     C_R   0.367615 0.357574 0.096157 -0.083890
C9    C     C_R   0.868803 0.830688 0.213561 -0.142568
C10   C     C_R   0.131191 0.330817 0.786421 -0.142543
C11   C     C_R   0.823586 0.831099 0.251515 -0.053681
C12   C     C_R   0.176407 0.331263 0.748465 -0.053564
C13   C     C_R   0.775985 0.850062 0.174564 0.086613
C14   C     C_R   0.224011 0.350136 0.825420 0.086624
C15   C     C_R   0.773155 0.862176 0.053092 0.011135
C16   C     C_R   0.226842 0.362190 0.946892 0.011204
C17   C     C_R   0.820552 0.878137 0.016914 0.030749
C18   C     C_R   0.179445 0.378130 0.983073 0.030751
C19   C     C_R   0.726238 0.869846 0.966203 0.086335
C20   C     C_R   0.273759 0.369825 0.033783 0.086362
C21   C     C_R   0.727847 0.924465 0.852317 0.101225
C22   C     C_R   0.272151 0.424389 0.147676 0.101243
C23   C     C_R   0.774527 0.948218 0.821481 -0.197736
C24   C     C_R   0.225472 0.448132 0.178512 -0.197767
C25   C     C_R   0.820065 0.918961 0.901217 -0.198194
C26   C     C_R   0.179934 0.418907 0.098773 -0.198173
C27   C     C_R   0.677847 0.819165 0.985665 -0.233128
C28   C     C_R   0.322149 0.319169 0.014315 -0.233129
C29   C     C_R   0.635122 0.927126 0.795338 0.120486
C30   C     C_R   0.364875 0.426996 0.204666 0.120476
C31   C     C_R   0.867979 0.858618 0.097651 -0.085226
C32   C     C_R   0.132017 0.358648 0.902335 -0.085274
H5    H     H_    0.674487 0.745274 0.062158 0.155470
H6    H     H_    0.325509 0.245320 0.937812 0.155468
H7    H     H_    0.904926 0.815997 0.275920 0.103643
H8    H     H_    0.095067 0.316169 0.724061 0.103614
H9    H     H_    0.825873 0.821685 0.343171 0.144843
H10   H     H_    0.174120 0.321921 0.656808 0.144839
H11   H     H_    0.855155 0.934695 0.871660 0.128078
H12   H     H_    0.144844 0.434632 0.128330 0.128069
C33   C     C_R   0.090229 0.861601 0.312931 -0.026058
C34   C     C_R   0.909773 0.361544 0.687068 -0.026060
C35   C     C_R   0.406588 0.855644 0.690206 -0.048559
C36   C     C_R   0.593418 0.355696 0.309790 -0.048579
C37   C     C_R   0.102242 0.866234 0.519459 -0.125092
C38   C     C_R   0.897762 0.365738 0.480534 -0.125032
C39   C     C_R   0.069821 0.860672 0.410328 -0.203544
C40   C     C_R   0.930182 0.360229 0.589668 -0.203575
C41   C     C_R   0.143189 0.868226 0.324553 -0.186107
C42   C     C_R   0.856815 0.368442 0.675446 -0.186078
C43   C     C_R   0.177244 0.879242 0.434408 0.021252
C44   C     C_R   0.822762 0.379308 0.565583 0.021226
C45   C     C_R   0.155923 0.876218 0.533399 0.044015
C46   C     C_R   0.844083 0.375983 0.466589 0.043999
C47   C     C_R   0.231457 0.892209 0.448242 0.050948
C48   C     C_R   0.768551 0.392379 0.551745 0.050936
C49   C     C_R   0.263989 0.891174 0.561036 0.039813
C50   C     C_R   0.736019 0.391207 0.438950 0.039825
C51   C     C_R   0.241205 0.897470 0.656719 -0.237108
C52   C     C_R   0.758804 0.397316 0.343263 -0.237152
C53   C     C_R   0.187668 0.885650 0.644888 0.435612
C54   C     C_R   0.812342 0.385364 0.355092 0.435680
C55   C     C_R   0.254205 0.910122 0.352711 -0.177503
C56   C     C_R   0.745803 0.410472 0.647270 -0.177474
C57   C     C_R   0.306849 0.915295 0.366271 -0.191967
C58   C     C_R   0.693160 0.415683 0.633707 -0.191945
C59   C     C_R   0.339130 0.898971 0.474909 0.122967
C60   C     C_R   0.660879 0.399230 0.525075 0.122958
C61   C     C_R   0.318547 0.886691 0.574375 0.137812
C62   C     C_R   0.681461 0.386770 0.425612 0.137810
C63   C     C_R   0.392126 0.892536 0.484268 -0.105957
C64   C     C_R   0.607883 0.392850 0.515719 -0.105978
C65   C     C_R   0.425406 0.867336 0.590776 -0.116850
C66   C     C_R   0.574602 0.367572 0.409217 -0.116877
C67   C     C_R   0.353649 0.865469 0.682525 -0.162628
C68   C     C_R   0.646357 0.365417 0.317470 -0.162638
H13   H     H_    0.341352 0.851555 0.762114 0.114013
H14   H     H_    0.658653 0.351350 0.237886 0.114036
H15   H     H_    0.465874 0.856902 0.595333 0.162967
H16   H     H_    0.534135 0.357210 0.404665 0.163004
H17   H     H_    0.322464 0.927951 0.290288 0.142734
H18   H     H_    0.677546 0.428474 0.709686 0.142724
H19   H     H_    0.084808 0.864456 0.592942 0.162648
H20   H     H_    0.915197 0.363691 0.407049 0.162658
H21   H     H_    0.028716 0.856717 0.401818 0.104542
H22   H     H_    0.971286 0.356043 0.598177 0.104536
H23   H     H_    0.156211 0.864358 0.245581 0.094444
H24   H     H_    0.843794 0.364868 0.754427 0.094439
H25   H     H_    0.264761 0.918766 0.741288 0.140663
H26   H     H_    0.735246 0.418532 0.258692 0.140601
H27   H     H_    0.232522 0.923530 0.265379 0.130063
H28   H     H_    0.767485 0.423979 0.734602 0.130053
H29   H     H_    0.407871 0.904194 0.408507 0.156890
H30   H     H_    0.592140 0.404624 0.591476 0.156874
O11   O     O_R   0.955980 0.206520 0.854760 -0.540604
O12   O     O_R   0.044020 0.706520 0.145240 -0.540599
O13   O     O_R   0.063490 0.536770 0.945200 -0.541342
O14   O     O_R   0.936510 0.036770 0.054800 -0.541311
C69   C     C_R   0.082637 0.368169 0.936711 0.686021
C70   C     C_R   0.917361 0.868163 0.063282 0.686033
O15   O     O_R   0.957530 0.536190 0.842880 -0.539744
O16   O     O_R   0.042470 0.036190 0.157120 -0.539745
O17   O     O_R   0.937350 0.707210 0.042130 -0.534259
O18   O     O_R   0.062650 0.207210 0.957870 -0.534246
C71   C     C_R   0.943624 0.367821 0.802060 0.686612
C72   C     C_R   0.056379 0.867836 0.197938 0.686621
O19   O     O_3   0.993540 0.373870 0.065440 -0.372031
O20   O     O_3   0.006460 0.873870 0.934560 -0.372043
V3    V     V_3+5 0.001200 0.648440 0.987860 1.431917
V4    V     V_3+5 0.998800 0.148440 0.012140 1.431960
I1    I     I_    0.569424 0.988825 0.665844 -0.478525
I2    I     I_    0.430570 0.488496 0.334202 -0.478613
I3    I     I_    0.716633 0.907627 0.263292 -0.535597
I4    I     I_    0.283368 0.407702 0.736709 -0.535622
O21   O     O_3   0.163689 0.894665 0.737676 -0.560907
C73   C     C_3   0.195529 0.848823 0.845524 -0.217121
H31   H     H_    0.220204 0.969986 0.881020 0.145562
H32   H     H_    0.219137 0.722339 0.841020 0.159219
H33   H     H_    0.170937 0.817113 0.906445 0.167766
O22   O     O_3   0.836332 0.394101 0.262303 -0.560883
C74   C     C_3   0.804443 0.348721 0.154411 -0.216992
H34   H     H_    0.779833 0.470146 0.119076 0.145515
H35   H     H_    0.780757 0.222352 0.158778 0.159205
H36   H     H_    0.829009 0.317000 0.093430 0.167775

loop_
_geom_bond_atom_site_label_1
_geom_bond_atom_site_label_2
_ccdc_geom_bond_type
C42   C44   A    
O4    V2    S    
C7    C29   A    
O11   C71   A    
C49   C51   A    
C59   C63   A    
O1    C3    A    
C39   H21   S    
O2    C4    A    
C2    O7    A    
C47   C55   A    
C61   C67   A    
C23   C25   A    
C40   H22   S    
C74   H35   S    
C4    C7    S    
C50   C52   A    
C16   C20   A    
C30   I2    S    
C19   C21   A    
C52   C54   A    
O20   V4    S    
O16   C72   A    
O14   V4    S    
O18   V4    S    
O19   V3    S    
C46   C54   A    
C37   C45   A    
C3    C8    S    
C7    C27   A    
C11   C13   A    
C38   C46   A    
C35   C65   A    
C37   C39   A    
O15   C71   A    
C25   H11   S    
C38   C40   A    
C26   H12   S    
C33   C72   S    
C45   C53   A    
C34   C42   A    
C13   I3    S    
C73   H31   S    
C41   C43   A    
C18   C26   A    
C15   C17   A    
C19   C27   A    
C9    C31   A    
C10   C32   A    
C64   H30   S    
O5    V1    S    
O6    V2    S    
C22   C24   A    
C13   C15   A    
C58   H18   S    
C37   H19   S    
C6    C30   A    
C57   C59   A    
C54   O22   S    
C33   C39   A    
C36   C68   A    
C34   C40   A    
C31   C70   S    
C74   H36   S    
C42   H24   S    
C48   C50   A    
C33   C41   A    
C55   C57   A    
C12   H10   S    
C27   H5    S    
O19   V4    S    
C35   C67   A    
C14   I4    S    
C73   H32   S    
C5    H3    S    
C44   C48   A    
C43   C45   A    
C16   C18   A    
C65   H15   S    
O5    C3    A    
C9    H7    S    
O12   C72   A    
C10   H8    S    
C67   H13   S    
O6    C4    A    
O11   V4    S    
C68   H14   S    
C55   H27   S    
O1    V2    S    
C5    C21   A    
C50   C62   A    
O2    V1    S    
C51   C53   A    
C49   C61   A    
O12   V3    S    
H1    C23   S    
C32   C69   S    
C38   H20   S    
O17   V3    S    
C56   C58   A    
C59   C61   A    
C8    C28   A    
C64   C66   A    
C51   H25   S    
C58   C60   A    
C63   C65   A    
C17   C31   A    
C15   C19   A    
C20   C28   A    
O4    C2    A    
C18   C32   A    
C41   H23   S    
O21   C73   S    
O3    V1    S    
C47   C49   A    
C28   H6    S    
C34   C71   S    
C52   H26   S    
C1    C36   S    
C6    H4    S    
C2    C35   S    
C53   O21   S    
C60   C64   A    
C5    C29   A    
O22   C74   S    
O3    C1    A    
O14   C70   A    
C11   H9    S    
C66   H16   S    
C63   H29   S    
C36   C66   A    
C9    C11   A    
C74   H34   S    
C56   H28   S    
C10   C12   A    
C70   O17   A    
C8    C30   A    
C12   C14   A    
C6    C22   A    
C17   C25   A    
C1    O8    A    
C21   C23   A    
O8    V2    S    
C20   C22   A    
C14   C16   A    
C57   H17   S    
C29   I1    S    
C73   H33   S    
H2    C24   S    
C24   C26   A    
C43   C47   A    
O7    V1    S    
O13   V3    S    
C48   C56   A    
C69   O18   A    
O9    V2    S    
C44   C46   A    
O10   V1    S    
C60   C62   A    
C62   C68   A    
O16   V4    S    
O15   V3    S    
O20   V3    S    
O13   C69   A    
