data_mof_unit_57933.cif
_audit_creation_date              2012-12-10T18:47:42-0500
_audit_creation_method            fapswitch 2.2
_symmetry_space_group_name_H-M    P1
_symmetry_Int_Tables_number       1
_space_group_crystal_system       triclinic
_cell_length_a                    9.846863
_cell_length_b                    10.717305
_cell_length_c                    15.521191
_cell_angle_alpha                 90.083037
_cell_angle_beta                  67.851299
_cell_angle_gamma                 89.990508
_cell_volume                      1517.10874214

loop_
_atom_site_label
_atom_site_type_symbol
_atom_type_description
_atom_site_fract_x
_atom_site_fract_y
_atom_site_fract_z
_atom_type_partial_charge
C1    C     C_R   0.499983 0.740113 0.500081 0.868935
C2    C     C_R   0.499997 0.259884 0.499951 0.869077
C3    C     C_R   0.356531 0.630749 0.090528 -0.233172
C4    C     C_R   0.684694 0.519176 0.892207 -0.232836
C5    C     C_R   0.255181 0.646094 0.048697 -0.241959
C6    C     C_R   0.786540 0.503956 0.933424 -0.247123
C7    C     C_R   0.609335 0.936109 0.519168 -0.191656
C8    C     C_R   0.390571 0.063870 0.480952 -0.192673
C9    C     C_R   0.609398 0.063949 0.519068 -0.196233
C10   C     C_R   0.390520 0.936032 0.481040 -0.196231
C11   C     C_R   0.500005 0.127430 0.499971 -0.015331
C12   C     C_R   0.499928 0.872555 0.500119 -0.013993
C13   C     C_R   0.963597 0.425145 0.440194 -0.084048
C14   C     C_R   0.036366 0.574784 0.559869 -0.086832
C15   C     C_R   0.107397 0.425102 0.440258 -0.070661
C16   C     C_R   0.892553 0.574809 0.559818 -0.074654
C17   C     C_R   0.408602 0.501405 0.675998 0.873135
C18   C     C_R   0.591517 0.501838 0.324031 0.872860
C19   C     C_R   0.353970 0.521216 0.776236 -0.056843
C20   C     C_R   0.649186 0.511391 0.222919 -0.058353
C21   C     C_R   0.184119 0.617120 0.916426 -0.223639
C22   C     C_R   0.841832 0.483816 0.071905 -0.218131
C23   C     C_R   0.218078 0.577299 0.824998 -0.209352
C24   C     C_R   0.795290 0.483190 0.168490 -0.200462
C25   C     C_R   0.452807 0.502519 0.819621 -0.261786
C26   C     C_R   0.552843 0.547183 0.180800 -0.267274
C27   C     C_R   0.427375 0.552371 0.907269 0.095981
C28   C     C_R   0.597019 0.549818 0.084213 0.095985
C29   C     C_R   0.288020 0.605145 0.957921 0.176643
C30   C     C_R   0.742854 0.513675 0.029467 0.177805
C31   C     C_R   0.536421 0.548586 0.946037 0.070155
C32   C     C_R   0.496266 0.577228 0.041362 0.067491
H1    H     H_    0.149790 0.688195 0.088136 0.152530
H2    H     H_    0.898417 0.479356 0.890320 0.151177
H3    H     H_    0.440629 0.565920 0.224948 0.158399
H4    H     H_    0.551326 0.450215 0.782571 0.154423
H5    H     H_    0.871561 0.456358 0.200413 0.155655
H6    H     H_    0.140923 0.593988 0.791687 0.150923
H7    H     H_    0.078694 0.660452 0.953677 0.147343
H8    H     H_    0.953408 0.456344 0.030602 0.151368
H9    H     H_    0.324260 0.665755 0.160609 0.148463
H10   H     H_    0.725937 0.510275 0.817455 0.147326
H11   H     H_    0.693890 0.887438 0.534675 0.153904
H12   H     H_    0.306005 0.112536 0.465453 0.153588
H13   H     H_    0.694016 0.112680 0.534488 0.157299
H14   H     H_    0.305911 0.887302 0.465609 0.156574
H15   H     H_    0.937518 0.365322 0.392370 0.123441
H16   H     H_    0.062405 0.634528 0.607755 0.122903
N1    N     N_R   0.142780 0.500030 0.500020 -0.076622
N2    N     N_R   0.857220 0.499970 0.499980 -0.076371
O1    O     O_R   0.385370 0.683250 0.500010 -0.625657
O2    O     O_R   0.614630 0.316750 0.499990 -0.624735
O3    O     O_R   0.614700 0.683220 0.500000 -0.622608
O4    O     O_R   0.385300 0.316780 0.500000 -0.622134
O5    O     O_R   0.319830 0.500020 0.632250 -0.615078
O6    O     O_R   0.680170 0.499980 0.367750 -0.615113
O7    O     O_R   0.549160 0.499990 0.632240 -0.618562
O8    O     O_R   0.450840 0.500010 0.367760 -0.620894
Zn1   Zn    Zn3+2 0.346870 0.500020 0.500000 0.940485
Zn2   Zn    Zn3+2 0.653130 0.499980 0.500000 0.941704
H17   H     H_    0.190195 0.365109 0.392507 0.127720
H18   H     H_    0.809703 0.634686 0.607660 0.127724

loop_
_geom_bond_atom_site_label_1
_geom_bond_atom_site_label_2
_ccdc_geom_bond_type
C21   C29   A    
C10   H14   S    
C19   C23   A    
C9    H13   S    
C14   C16   A    
C7    H11   S    
C27   C29   A    
C23   H6    S    
C1    O1    A    
C17   O5    A    
C5    C29   A    
C31   C32   A    
C21   H7    S    
C13   C15   A    
C18   O6    A    
N1    Zn1   S    
C3    C5    A    
N2    Zn2   S    
C7    C9    A    
C4    H10   S    
C28   C30   A    
C24   H5    S    
C15   H17   S    
C22   H8    S    
C16   H18   S    
C9    C11   A    
C8    H12   S    
C7    C12   A    
C1    C12   S    
C2    O2    A    
O2    Zn2   S    
C8    C11   A    
C2    C11   S    
C10   C12   A    
C8    C10   A    
C17   C19   S    
O3    Zn2   S    
C16   N2    A    
O5    Zn1   S    
O4    Zn1   S    
C15   N1    A    
C21   C23   A    
C3    C32   A    
C19   C25   A    
C22   C24   A    
C4    C31   A    
O1    Zn1   S    
C25   H4    S    
C27   C31   A    
C13   N2    A    
C14   N1    A    
C20   C24   A    
C26   H3    S    
C28   C32   A    
O6    Zn2   S    
C18   C20   S    
C4    C6    A    
C2    O4    A    
C13   H15   S    
C1    O3    A    
C3    H9    S    
O7    Zn2   S    
C14   H16   S    
C22   C30   A    
C6    C30   A    
O8    Zn1   S    
C26   C28   A    
C18   O8    A    
C6    H2    S    
C17   O7    A    
C20   C26   A    
C25   C27   A    
C5    H1    S    
