data_mof_unit_35489.cif
_audit_creation_date              2012-12-10T18:33:39-0500
_audit_creation_method            fapswitch 2.2
_symmetry_space_group_name_H-M    P1
_symmetry_Int_Tables_number       1
_space_group_crystal_system       triclinic
_cell_length_a                    10.505986
_cell_length_b                    14.988749
_cell_length_c                    15.578501
_cell_angle_alpha                 81.936586
_cell_angle_beta                  89.196342
_cell_angle_gamma                 103.766392
_cell_volume                      2356.27677643

loop_
_atom_site_label
_atom_site_type_symbol
_atom_type_description
_atom_site_fract_x
_atom_site_fract_y
_atom_site_fract_z
_atom_type_partial_charge
C1    C     C_R   0.479630 0.441498 0.661549 0.891443
C2    C     C_R   0.520363 0.558502 0.338450 0.891313
C3    C     C_R   0.443192 0.462073 0.812161 0.385516
C4    C     C_R   0.556710 0.537915 0.187830 0.385497
C5    C     C_R   0.476490 0.445018 0.898938 -0.033705
C6    C     C_R   0.523361 0.554968 0.101064 -0.033571
C7    C     C_R   0.493318 0.355221 0.930315 0.124756
C8    C     C_R   0.506541 0.644768 0.069693 0.124732
C9    C     C_R   0.492504 0.513319 0.955214 0.074960
C10   C     C_R   0.507311 0.486665 0.044790 0.075059
C11   C     C_R   0.499359 0.391921 0.075590 -0.183642
C12   C     C_R   0.500431 0.608061 0.924417 -0.183740
C13   C     C_R   0.499996 0.328699 0.018831 -0.261615
C14   C     C_R   0.499820 0.671285 0.981179 -0.261615
C15   C     C_R   0.687222 0.838462 0.641900 0.367839
C16   C     C_R   0.312772 0.161534 0.358102 0.367891
C17   C     C_R   0.660383 0.751209 0.615180 -0.106856
C18   C     C_R   0.339603 0.248786 0.384828 -0.106917
C19   C     C_R   0.515005 0.794419 0.511137 -0.050775
C20   C     C_R   0.485017 0.205588 0.488851 -0.050800
C21   C     C_R   0.542423 0.885452 0.531076 -0.072614
C22   C     C_R   0.457609 0.114557 0.468908 -0.072688
C23   C     C_R   0.742010 0.500012 0.499915 0.884466
C24   C     C_R   0.257990 0.499988 0.500085 0.884523
C25   C     C_R   0.628481 0.906331 0.599059 0.065211
C26   C     C_R   0.371540 0.093674 0.400931 0.065254
C27   C     C_R   0.486606 0.955327 0.486603 0.123449
C28   C     C_R   0.513439 0.044685 0.513375 0.123506
C29   C     C_R   0.594322 0.061100 0.584097 -0.276263
C30   C     C_R   0.405728 0.938913 0.415879 -0.276369
C31   C     C_R   0.652374 0.993882 0.624767 -0.179520
C32   C     C_R   0.347663 0.006127 0.375216 -0.179392
C33   C     C_3   0.935250 0.420320 0.478327 0.601384
C34   C     C_3   0.064749 0.579681 0.521672 0.601314
C35   C     C_3   0.017520 0.428565 0.558717 -0.311735
C36   C     C_3   0.982481 0.571435 0.441281 -0.311791
C37   C     C_3   0.123166 0.500868 0.500105 -0.089690
C38   C     C_3   0.876834 0.499132 0.499895 -0.089666
C39   C     C_3   0.041766 0.491439 0.419308 -0.358169
C40   C     C_3   0.958235 0.508561 0.580691 -0.358173
C41   C     C_R   0.469445 0.405383 0.753624 -0.163350
C42   C     C_R   0.530515 0.594616 0.246375 -0.163483
C43   C     C_R   0.500072 0.292310 0.872735 -0.208093
C44   C     C_R   0.499840 0.707686 0.127275 -0.208122
C45   C     C_R   0.495008 0.319289 0.783947 -0.278799
C46   C     C_R   0.504957 0.680714 0.216060 -0.278739
H1    H     H_    0.292834 0.301779 0.355621 0.136912
H2    H     H_    0.707132 0.698211 0.644404 0.136975
H3    H     H_    0.615664 0.125550 0.610123 0.147076
H4    H     H_    0.384397 0.874466 0.389847 0.147075
H5    H     H_    0.080916 0.484687 0.354616 0.145137
H6    H     H_    0.919089 0.515308 0.645386 0.145178
H7    H     H_    0.502534 0.258117 0.044560 0.144123
H8    H     H_    0.497276 0.741867 0.955453 0.144087
H9    H     H_    0.488469 0.726553 0.260720 0.176872
H10   H     H_    0.511535 0.273456 0.739291 0.176869
H11   H     H_    0.490566 0.363946 0.143473 0.197965
H12   H     H_    0.509189 0.636037 0.856536 0.198011
H13   H     H_    0.715153 0.010724 0.677749 0.190305
H14   H     H_    0.284884 0.989283 0.322234 0.190326
N1    N     N_R   0.574200 0.731700 0.552740 -0.119481
N2    N     N_R   0.425800 0.268300 0.447260 -0.119468
O1    O     O_R   0.462600 0.383110 0.605620 -0.634979
O2    O     O_R   0.537400 0.616890 0.394380 -0.634974
O3    O     O_R   0.510210 0.531900 0.639510 -0.568235
O4    O     O_R   0.489790 0.468100 0.360490 -0.568227
O5    O     O_R   0.662240 0.425610 0.483080 -0.570469
O6    O     O_R   0.337760 0.574390 0.516920 -0.570428
O7    O     O_R   0.709860 0.574400 0.516970 -0.645460
O8    O     O_R   0.290140 0.425600 0.483030 -0.645467
Zn1   Zn    Zn3+2 0.468210 0.400660 0.477370 0.961722
Zn2   Zn    Zn3+2 0.531790 0.599340 0.522630 0.961749
H15   H     H_    0.036125 0.370266 0.605140 0.151435
H16   H     H_    0.963875 0.629733 0.394857 0.151390
H17   H     H_    0.553293 0.229853 0.536123 0.157079
H18   H     H_    0.446738 0.770157 0.463859 0.157053
O9    O     O_3   0.777021 0.860102 0.704706 -0.622682
C47   C     C_3   0.727132 0.806734 0.785433 0.086489
H19   H     H_    0.729794 0.732901 0.786101 0.139734
H20   H     H_    0.624713 0.810883 0.800372 0.134321
C48   C     C_3   0.812149 0.843982 0.856835 -0.824728
H21   H     H_    0.810408 0.917459 0.858869 0.250782
H22   H     H_    0.774299 0.802125 0.920589 0.211374
H23   H     H_    0.914868 0.839874 0.844623 0.258316
O10   O     O_3   0.222953 0.139876 0.295310 -0.622703
C49   C     C_3   0.272675 0.193359 0.214601 0.086550
H24   H     H_    0.375202 0.189460 0.199634 0.134291
H25   H     H_    0.269670 0.267122 0.213984 0.139711
C50   C     C_3   0.187795 0.155990 0.143187 -0.824761
H26   H     H_    0.084956 0.159810 0.155440 0.258341
H27   H     H_    0.225477 0.197960 0.079451 0.211379
H28   H     H_    0.189921 0.082594 0.141085 0.250739
O11   O     O_3   0.858044 0.335968 0.457724 -0.611449
C51   C     C_3   0.940640 0.284256 0.427204 0.074594
H29   H     H_    0.015773 0.273312 0.474716 0.154678
H30   H     H_    0.990401 0.319875 0.363839 0.144031
C52   C     C_3   0.858516 0.189670 0.413333 -0.793151
H31   H     H_    0.779466 0.197980 0.368491 0.256827
H32   H     H_    0.921624 0.150341 0.384950 0.229829
H33   H     H_    0.814001 0.149850 0.476348 0.261014
O12   O     O_3   0.141960 0.664027 0.542287 -0.611459
C53   C     C_3   0.059363 0.715773 0.572743 0.074729
H34   H     H_    0.009383 0.680120 0.636036 0.144014
H35   H     H_    0.984411 0.726831 0.525129 0.154661
C54   C     C_3   0.141539 0.810285 0.586779 -0.793137
H36   H     H_    0.186319 0.850138 0.523841 0.261037
H37   H     H_    0.078405 0.849648 0.615083 0.229823
H38   H     H_    0.220390 0.801853 0.631752 0.256788
O13   O     O_3   0.617724 0.467651 0.216232 -0.620295
C55   C     C_3   0.754745 0.503691 0.205771 0.105429
H39   H     H_    0.787936 0.558127 0.248015 0.130330
H40   H     H_    0.785157 0.533336 0.136791 0.140140
C56   C     C_3   0.821929 0.425488 0.232190 -0.806697
H41   H     H_    0.930069 0.452952 0.226527 0.193793
H42   H     H_    0.791825 0.393898 0.300351 0.297345
H43   H     H_    0.793718 0.371287 0.189458 0.247879
O14   O     O_3   0.382150 0.532316 0.783735 -0.620267
C57   C     C_3   0.245138 0.496297 0.794366 0.105196
H44   H     H_    0.214888 0.466830 0.863403 0.140235
H45   H     H_    0.211812 0.441728 0.752277 0.130376
C58   C     C_3   0.177922 0.574462 0.767842 -0.806743
H46   H     H_    0.207863 0.605873 0.699618 0.297374
H47   H     H_    0.069783 0.547008 0.773642 0.193822
H48   H     H_    0.206272 0.628799 0.810420 0.247907
H49   H     H_    0.515334 0.224219 0.896027 0.147912
H50   H     H_    0.484583 0.775779 0.103988 0.147911

loop_
_geom_bond_atom_site_label_1
_geom_bond_atom_site_label_2
_ccdc_geom_bond_type
C25   C31   A    
C39   H5    S    
C4    O13   S    
C26   C32   A    
O11   C51   S    
C34   C37   S    
C23   O7    A    
C17   H2    S    
C18   H1    S    
C43   H49   S    
C48   H21   S    
C24   O8    A    
C29   H3    S    
O9    C47   S    
C54   H37   S    
C44   H50   S    
C33   C39   S    
C34   C40   S    
C19   H18   S    
C35   C37   S    
C19   N1    A    
C20   C22   A    
C47   H20   S    
C15   C25   A    
C31   H13   S    
C53   C54   S    
C42   C46   A    
C23   O5    A    
C57   H44   S    
C58   H48   S    
C3    O14   S    
C55   H40   S    
C48   H22   S    
C55   H39   S    
C35   H15   S    
C45   H10   S    
C44   C46   A    
C46   H9    S    
C1    O3    A    
O8    Zn1   S    
C7    C43   A    
C50   H27   S    
C9    C10   A    
C34   C36   S    
C56   H43   S    
C12   H12   S    
C30   H4    S    
C38   C40   S    
C22   C28   A    
C27   C30   A    
C20   N2    A    
C51   H29   S    
C29   C31   A    
C1    O1    A    
C52   H32   S    
C2    O2    A    
C52   H31   S    
C13   H7    S    
C16   C26   A    
C54   H38   S    
C34   O12   S    
C49   H25   S    
O12   C53   S    
C4    C6    A    
C5    C7    A    
C47   H19   S    
C18   N2    A    
C6    C8    A    
C51   C52   S    
C3    C5    A    
O10   C49   S    
C20   H17   S    
C57   C58   S    
O7    Zn2   S    
C53   H35   S    
C5    C9    A    
O4    Zn1   S    
O6    Zn2   S    
C24   C37   S    
C50   H28   S    
C51   H30   S    
C43   C45   A    
C55   C56   S    
C58   H46   S    
C36   H16   S    
N1    Zn2   S    
C1    C41   S    
C14   H8    S    
O1    Zn1   S    
C16   O10   S    
C32   H14   S    
C17   N1    A    
O3    Zn2   S    
C48   H23   S    
C56   H41   S    
C15   C17   A    
C21   C25   A    
C28   C29   A    
C8    C14   A    
C52   H33   S    
C19   C21   A    
C49   H24   S    
C36   C39   S    
C8    C44   A    
C12   C14   A    
C2    O4    A    
C49   C50   S    
C33   O11   S    
C6    C10   A    
C23   C38   S    
C54   H36   S    
O14   C57   S    
C33   C38   S    
C36   C38   S    
C35   C40   S    
C37   C39   S    
C40   H6    S    
O13   C55   S    
C30   C32   A    
C11   C13   A    
C47   C48   S    
C15   O9    S    
C4    C42   A    
C2    C42   S    
C33   C35   S    
N2    Zn1   S    
O5    Zn1   S    
O2    Zn2   S    
C21   C27   A    
C53   H34   S    
C9    C12   A    
C57   H45   S    
C58   H47   S    
C3    C41   A    
C10   C11   A    
C24   O6    A    
C7    C13   A    
C16   C18   A    
C22   C26   A    
C27   C28   A    
C41   C45   A    
C50   H26   S    
C11   H11   S    
C56   H42   S    
