data_mof_unit_16654.cif
_audit_creation_date              2012-12-10T16:46:07-0500
_audit_creation_method            fapswitch 2.2
_symmetry_space_group_name_H-M    P1
_symmetry_Int_Tables_number       1
_space_group_crystal_system       triclinic
_cell_length_a                    18.471708
_cell_length_b                    18.471027
_cell_length_c                    34.388046
_cell_angle_alpha                 90.000436
_cell_angle_beta                  90.001252
_cell_angle_gamma                 90.048322
_cell_volume                      11732.9019737

loop_
_atom_site_label
_atom_site_type_symbol
_atom_type_description
_atom_site_fract_x
_atom_site_fract_y
_atom_site_fract_z
_atom_type_partial_charge
C1    C     C_R   0.499996 0.000001 0.605732 0.597352
C2    C     C_R   0.133111 0.504355 0.229582 -0.026388
C3    C     C_R   0.564854 0.988807 0.668064 0.206630
C4    C     C_R   0.462107 0.053774 0.167766 0.214586
C5    C     C_R   0.935184 0.511430 0.168065 0.206599
C6    C     C_R   0.537880 0.946219 0.167766 0.214582
C7    C     C_R   0.064824 0.488571 0.168066 0.206597
C8    C     C_R   0.000004 0.499998 0.647900 0.027876
C9    C     C_R   0.499994 0.000005 0.648084 0.035006
C10   C     C_R   0.499998 1.000000 0.147902 0.027813
C11   C     C_R   0.000004 0.500001 0.148085 0.034963
C12   C     C_R   0.043927 0.449584 0.708716 -0.012287
C13   C     C_R   0.407172 0.095568 0.229297 -0.027467
C14   C     C_R   0.566778 0.997491 0.708981 -0.011985
C15   C     C_R   0.956106 0.550443 0.708713 -0.012288
C16   C     C_R   0.433212 0.002549 0.708979 -0.011975
C17   C     C_R   0.544028 0.949675 0.208717 -0.012295
C18   C     C_R   0.066778 0.497267 0.208982 -0.012008
C19   C     C_R   0.455958 0.050315 0.208716 -0.012295
C20   C     C_R   0.933233 0.502737 0.208980 -0.012007
C21   C     C_R   0.000017 0.500016 0.729357 -0.056217
C22   C     C_R   0.499996 0.000020 0.729567 -0.055445
C23   C     C_R   0.499994 0.999996 0.229359 -0.056228
C24   C     C_R   0.866900 0.495645 0.229578 -0.026384
C25   C     C_R   0.000005 0.500004 0.229568 -0.055445
C26   C     C_3   0.161043 0.712124 0.407814 -0.052926
C27   C     C_3   0.162345 0.089440 0.507236 -0.085426
C28   C     C_3   0.838996 0.287790 0.407819 -0.052933
C29   C     C_3   0.837665 0.910548 0.507274 -0.085445
C30   C     C_3   0.840470 0.774625 0.417620 -0.077593
C31   C     C_3   0.661931 0.214399 0.412475 -0.124852
C32   C     C_3   0.159567 0.225427 0.417602 -0.077603
C33   C     C_3   0.338102 0.785584 0.412481 -0.124827
C34   C     C_3   0.660884 0.212343 0.907837 -0.052799
C35   C     C_R   0.592762 0.904188 0.270259 -0.027425
C36   C     C_3   0.662002 0.589562 0.006888 -0.085381
C37   C     C_3   0.339105 0.787645 0.907837 -0.052802
C38   C     C_3   0.337717 0.410536 0.007120 -0.085405
C39   C     C_3   0.340258 0.274394 0.917543 -0.077705
C40   C     C_3   0.162029 0.714400 0.912464 -0.124944
C41   C     C_3   0.660076 0.725760 0.917449 -0.077978
C42   C     C_3   0.837961 0.285596 0.912462 -0.124938
C43   C     C_3   0.983121 0.664576 0.641404 -0.119823
C44   C     C_3   0.364947 0.103639 0.646654 -0.116363
C45   C     C_3   0.016912 0.335413 0.641427 -0.119847
C46   C     C_R   0.132952 0.506092 0.270612 -0.025573
C47   C     C_3   0.635056 0.896388 0.646671 -0.116361
C48   C     C_3   0.482706 0.164534 0.141417 -0.119774
C49   C     C_3   0.865274 0.604101 0.146710 -0.116194
C50   C     C_3   0.517275 0.835463 0.141412 -0.119781
C51   C     C_3   0.134720 0.395883 0.146719 -0.116206
C52   C     C_R   0.150383 0.363190 0.708630 0.098754
C53   C     C_R   0.211989 0.399717 0.694946 -0.052784
C54   C     C_R   0.266770 0.361591 0.675793 -0.095732
C55   C     C_R   0.260390 0.286901 0.670198 -0.099059
C56   C     C_R   0.199232 0.250175 0.683772 -0.112954
C57   C     C_R   0.407240 0.095819 0.270258 -0.027424
C58   C     C_R   0.144381 0.288064 0.703001 -0.063259
C59   C     C_R   0.701763 0.021100 0.708735 0.097122
C60   C     C_R   0.713381 0.090529 0.693336 -0.053359
C61   C     C_R   0.778013 0.106533 0.673983 -0.101750
C62   C     C_R   0.831346 0.053415 0.669923 -0.099680
C63   C     C_R   0.820116 0.984177 0.685182 -0.111019
C64   C     C_R   0.755575 0.967973 0.704542 -0.070120
C65   C     C_R   0.849704 0.636908 0.708626 0.098755
C66   C     C_R   0.788068 0.600425 0.694945 -0.052775
C67   C     C_R   0.733312 0.638592 0.675793 -0.095739
C68   C     C_R   0.867059 0.493913 0.270608 -0.025576
C69   C     C_R   0.739745 0.713277 0.670198 -0.099061
C70   C     C_R   0.800932 0.749959 0.683771 -0.112956
C71   C     C_R   0.855758 0.712030 0.702997 -0.063265
C72   C     C_R   0.298212 0.978995 0.708737 0.097147
C73   C     C_R   0.286535 0.909566 0.693351 -0.053355
C74   C     C_R   0.221878 0.893597 0.674011 -0.101761
C75   C     C_R   0.168582 0.946752 0.669949 -0.099686
C76   C     C_R   0.179871 0.015990 0.685195 -0.111040
C77   C     C_R   0.244435 0.032159 0.704545 -0.070150
C78   C     C_R   0.650666 0.863506 0.208631 0.098748
C79   C     C_R   0.092558 0.403986 0.770259 -0.027418
C80   C     C_R   0.712200 0.900151 0.194948 -0.052779
C81   C     C_R   0.767044 0.862133 0.175785 -0.095712
C82   C     C_R   0.760795 0.787437 0.170177 -0.099045
C83   C     C_R   0.699705 0.750596 0.183751 -0.112976
C84   C     C_R   0.644798 0.788373 0.202993 -0.063275
C85   C     C_R   0.201826 0.520494 0.208733 0.097094
C86   C     C_R   0.213631 0.589878 0.193318 -0.053410
C87   C     C_R   0.278305 0.605691 0.173960 -0.101769
C88   C     C_R   0.331492 0.552423 0.169910 -0.099669
C89   C     C_R   0.320075 0.483229 0.185186 -0.111015
C90   C     C_R   0.632932 0.006485 0.770610 -0.025575
C91   C     C_R   0.255492 0.467216 0.204551 -0.070129
C92   C     C_R   0.349310 0.136472 0.208630 0.098751
C93   C     C_R   0.287776 0.099813 0.194952 -0.052811
C94   C     C_R   0.232917 0.137819 0.175792 -0.095722
C95   C     C_R   0.239151 0.212517 0.170183 -0.099050
C96   C     C_R   0.300239 0.249372 0.183750 -0.112978
C97   C     C_R   0.355162 0.211606 0.202989 -0.063242
C98   C     C_R   0.798187 0.479492 0.208728 0.097093
C99   C     C_R   0.786392 0.410101 0.193317 -0.053415
C100  C     C_R   0.721721 0.394274 0.173958 -0.101760
C101  C     C_R   0.907526 0.596099 0.770254 -0.027409
C102  C     C_R   0.668526 0.447532 0.169903 -0.099640
C103  C     C_R   0.679934 0.516733 0.185173 -0.110995
C104  C     C_R   0.744514 0.532761 0.204539 -0.070125
C105  C     C_R   0.649589 0.861285 0.290441 0.100401
C106  C     C_R   0.641509 0.786208 0.295386 -0.068120
C107  C     C_R   0.697024 0.745606 0.312267 -0.113678
C108  C     C_R   0.760921 0.779588 0.324096 -0.109332
C109  C     C_R   0.769020 0.854371 0.319649 -0.099965
C110  C     C_R   0.713557 0.895228 0.302838 -0.045794
C111  C     C_R   0.200651 0.526731 0.291370 0.098833
C112  C     C_R   0.000001 0.499994 0.605654 0.559647
C113  C     C_R   0.367064 0.993569 0.770610 -0.025582
C114  C     C_R   0.256964 0.476586 0.296533 -0.064643
C115  C     C_R   0.320022 0.496700 0.316253 -0.107371
C116  C     C_R   0.327266 0.566895 0.330949 -0.100970
C117  C     C_R   0.271421 0.617058 0.325973 -0.114502
C118  C     C_R   0.208260 0.597133 0.306267 -0.061696
C119  C     C_R   0.350441 0.138757 0.290439 0.100408
C120  C     C_R   0.358569 0.213830 0.295383 -0.068144
C121  C     C_R   0.303083 0.254468 0.312266 -0.113678
C122  C     C_R   0.239165 0.220526 0.324095 -0.109327
C123  C     C_R   0.231016 0.145749 0.319646 -0.099974
C124  C     C_R   0.544340 0.949764 0.291058 -0.011820
C125  C     C_R   0.286452 0.104856 0.302835 -0.045774
C126  C     C_R   0.799363 0.473266 0.291365 0.098823
C127  C     C_R   0.743039 0.523400 0.296521 -0.064649
C128  C     C_R   0.679986 0.503278 0.316242 -0.107371
C129  C     C_R   0.672760 0.433087 0.330947 -0.100967
C130  C     C_R   0.728619 0.382936 0.325978 -0.114482
C131  C     C_R   0.791773 0.402869 0.306270 -0.061672
C132  C     C_R   0.149291 0.360954 0.790440 0.100413
C133  C     C_R   0.141059 0.285887 0.795370 -0.068155
C134  C     C_R   0.196499 0.245157 0.812237 -0.113638
C135  C     C_R   0.066765 0.498648 0.291196 -0.012388
C136  C     C_R   0.260464 0.279004 0.824074 -0.109352
C137  C     C_R   0.268713 0.353776 0.819643 -0.100053
C138  C     C_R   0.213331 0.394758 0.802842 -0.045753
C139  C     C_R   0.700593 0.027271 0.791363 0.098886
C140  C     C_R   0.757008 0.977239 0.796531 -0.064689
C141  C     C_R   0.820036 0.997495 0.816236 -0.107384
C142  C     C_R   0.827153 0.067720 0.830910 -0.101013
C143  C     C_R   0.771209 0.117771 0.825925 -0.114566
C144  C     C_R   0.708075 0.097703 0.806237 -0.061659
C145  C     C_R   0.850882 0.639251 0.790429 0.100468
C146  C     C_R   0.455659 0.050239 0.291058 -0.011813
C147  C     C_R   0.859291 0.714296 0.795367 -0.068247
C148  C     C_R   0.803938 0.755156 0.812222 -0.113676
C149  C     C_R   0.739879 0.721462 0.824035 -0.109376
C150  C     C_R   0.731447 0.646714 0.819592 -0.100145
C151  C     C_R   0.786745 0.605600 0.802804 -0.045708
C152  C     C_R   0.299405 0.972787 0.791364 0.098878
C153  C     C_R   0.242992 0.022819 0.796531 -0.064631
C154  C     C_R   0.179966 0.002565 0.816238 -0.107367
C155  C     C_R   0.172853 0.932342 0.830913 -0.101017
C156  C     C_R   0.228795 0.882290 0.825929 -0.114565
C157  C     C_R   0.933244 0.501362 0.291193 -0.012395
C158  C     C_R   0.291926 0.902356 0.806239 -0.061686
C159  C     C_3   0.521324 0.836757 0.360006 -0.124771
C160  C     C_3   0.137859 0.400299 0.353698 -0.122190
C161  C     C_3   0.478698 0.163238 0.360016 -0.124766
C162  C     C_3   0.862150 0.599716 0.353690 -0.122169
C163  C     C_3   0.020980 0.336714 0.859999 -0.124864
C164  C     C_3   0.638163 0.900802 0.853751 -0.122339
C165  C     C_3   0.979066 0.663267 0.860063 -0.124826
C166  C     C_3   0.361882 0.099286 0.853739 -0.122326
C167  C     C_R   0.044242 0.449678 0.791057 -0.011808
C168  C     C_R   0.566767 0.998866 0.791196 -0.012354
C169  C     C_R   0.955808 0.550376 0.791057 -0.011773
C170  C     C_R   0.433231 0.001179 0.791196 -0.012365
C171  C     C_R   0.499997 0.999999 0.270464 -0.056811
C172  C     C_R   0.000002 0.500000 0.105733 0.597376
C173  C     C_R   0.000005 0.500005 0.270597 -0.055390
C174  C     C_R   0.000020 0.500022 0.770463 -0.056799
C175  C     C_R   0.499998 0.000021 0.770598 -0.055387
C176  C     C_R   0.538878 0.946784 0.332066 0.218331
C177  C     C_R   0.065105 0.490579 0.332132 0.203654
C178  C     C_R   0.461123 0.053221 0.332067 0.218335
C179  C     C_R   0.934902 0.509430 0.332130 0.203658
C180  C     C_R   0.038773 0.446708 0.832066 0.218327
C181  C     C_R   0.565133 0.990814 0.832134 0.203675
C182  C     C_R   0.961259 0.553324 0.832068 0.218326
C183  C     C_R   0.500000 0.000001 0.105655 0.559474
C184  C     C_R   0.434867 0.009227 0.832133 0.203687
C185  C     C_R   0.499999 0.000001 0.351957 0.030807
C186  C     C_R   0.000002 0.500001 0.352049 0.033857
C187  C     C_R   0.000005 0.500006 0.851957 0.030876
C188  C     C_R   0.499998 0.000007 0.852050 0.033902
C189  C     C_R   0.499999 0.999999 0.394290 0.546381
C190  C     C_R   0.000001 0.500000 0.394307 0.584034
C191  C     C_R   1.000000 0.499995 0.894290 0.546485
C192  C     C_R   0.499998 0.000001 0.894308 0.584028
C193  C     C_R   0.361036 0.138240 0.500190 0.534278
C194  C     C_R   0.092612 0.404222 0.729298 -0.027469
C195  C     C_R   0.860389 0.362172 0.499302 0.520733
C196  C     C_R   0.638964 0.861760 0.500190 0.534288
C197  C     C_R   0.139612 0.637826 0.499302 0.520720
C198  C     C_R   0.638300 0.138987 0.499652 0.521037
C199  C     C_R   0.138038 0.360639 0.500457 0.530775
C200  C     C_R   0.361700 0.861013 0.499652 0.521029
C201  C     C_R   0.861963 0.639361 0.500458 0.530773
C202  C     C_R   0.861034 0.638239 0.000191 0.534375
C203  C     C_R   0.360391 0.862170 0.999303 0.520728
C204  C     C_R   0.138964 0.361760 0.000190 0.534325
C205  C     C_R   0.633091 0.004763 0.729581 -0.026388
C206  C     C_R   0.639609 0.137829 0.999303 0.520754
C207  C     C_R   0.138300 0.638987 0.999652 0.521015
C208  C     C_R   0.638042 0.860643 0.000453 0.530714
C209  C     C_R   0.861700 0.361013 0.999652 0.521041
C210  C     C_R   0.361960 0.139359 0.000455 0.530704
C211  C     C_2   0.205345 0.739269 0.468168 0.253821
C212  C     C_2   0.237731 0.180921 0.488717 0.234356
C213  C     C_2   0.794669 0.260710 0.468176 0.253819
C214  C     C_2   0.762274 0.819085 0.488731 0.234365
C215  C     C_2   0.813594 0.758755 0.481780 0.229726
C216  C     C_R   0.907450 0.595837 0.729294 -0.027475
C217  C     C_2   0.731658 0.211109 0.466755 0.264345
C218  C     C_2   0.186414 0.241255 0.481769 0.229737
C219  C     C_2   0.268351 0.788877 0.466750 0.264349
C220  C     C_2   0.705293 0.239322 0.968191 0.253767
C221  C     C_2   0.737761 0.680964 0.988646 0.234384
C222  C     C_2   0.294706 0.760673 0.968193 0.253753
C223  C     C_2   0.262252 0.319056 0.988684 0.234375
C224  C     C_2   0.313548 0.258707 0.981735 0.229719
C225  C     C_2   0.231691 0.711080 0.966765 0.264345
C226  C     C_2   0.686504 0.741344 0.981685 0.229630
C227  C     C_R   0.366898 0.995295 0.729580 -0.026384
C228  C     C_2   0.768306 0.288917 0.966764 0.264342
C229  C     C_2   0.200996 0.687100 0.495617 -0.120498
C230  C     C_2   0.306795 0.194976 0.498773 -0.098839
C231  C     C_2   0.799007 0.312896 0.495616 -0.120483
C232  C     C_2   0.693205 0.805024 0.498773 -0.098818
C233  C     C_2   0.810364 0.698629 0.503922 -0.105612
C234  C     C_2   0.693967 0.194662 0.499315 -0.100683
C235  C     C_2   0.189636 0.301371 0.503920 -0.105622
C236  C     C_2   0.306032 0.805337 0.499313 -0.100686
C237  C     C_2   0.700988 0.187107 0.995616 -0.120473
C238  C     C_R   0.592815 0.904424 0.229299 -0.027472
C239  C     C_2   0.806800 0.694983 0.998767 -0.098732
C240  C     C_2   0.299014 0.812890 0.995617 -0.120479
C241  C     C_2   0.193200 0.305019 0.998770 -0.098824
C242  C     C_2   0.310363 0.198627 0.003914 -0.105662
C243  C     C_2   0.193975 0.694654 0.999320 -0.100686
C244  C     C_2   0.689626 0.801362 0.003916 -0.105591
C245  C     C_2   0.806023 0.305346 0.999319 -0.100669
C246  C     C_R   0.962254 0.553873 0.667762 0.214561
C247  C     C_R   0.435136 0.011219 0.668061 0.206629
C248  C     C_R   0.037766 0.446135 0.667766 0.214561
H1    H     H_    0.246374 0.676189 0.514736 0.047833
H2    H     H_    0.825251 0.749556 0.004924 0.036997
H3    H     H_    0.685889 0.610266 0.665271 0.102321
H4    H     H_    0.697370 0.742647 0.655286 0.089728
H5    H     H_    0.805983 0.807705 0.679269 0.088307
H6    H     H_    0.903129 0.740912 0.713172 0.077518
H7    H     H_    0.327435 0.867976 0.696432 0.094650
H8    H     H_    0.213059 0.840001 0.662196 0.098544
H9    H     H_    0.118562 0.934296 0.654974 0.097200
H10   H     H_    0.138629 0.057145 0.681986 0.089160
H11   H     H_    0.252811 0.086099 0.715992 0.078520
H12   H     H_    0.717584 0.958005 0.199197 0.094369
H13   H     H_    0.253608 0.823830 0.014712 0.047836
H14   H     H_    0.814389 0.890586 0.165261 0.102308
H15   H     H_    0.803234 0.758180 0.155253 0.089796
H16   H     H_    0.694790 0.692845 0.179231 0.088331
H17   H     H_    0.597505 0.759367 0.213169 0.077485
H18   H     H_    0.172814 0.631553 0.196387 0.094630
H19   H     H_    0.287221 0.659252 0.162121 0.098542
H20   H     H_    0.381525 0.564757 0.154920 0.097210
H21   H     H_    0.361233 0.441988 0.181986 0.089153
H22   H     H_    0.247012 0.413308 0.216018 0.078499
H23   H     H_    0.282405 0.041958 0.199205 0.094369
H24   H     H_    0.174739 0.250441 0.004903 0.037010
H25   H     H_    0.185573 0.109357 0.165274 0.102309
H26   H     H_    0.196698 0.241764 0.155263 0.089800
H27   H     H_    0.305140 0.307125 0.179229 0.088323
H28   H     H_    0.402454 0.240621 0.213160 0.077497
H29   H     H_    0.827214 0.368433 0.196391 0.094628
H30   H     H_    0.712813 0.340709 0.162123 0.098549
H31   H     H_    0.618495 0.435187 0.154912 0.097224
H32   H     H_    0.638771 0.557968 0.181967 0.089156
H33   H     H_    0.752988 0.586674 0.216001 0.078497
H34   H     H_    0.592457 0.759278 0.285983 0.077022
H35   H     H_    0.270185 0.193402 0.026770 0.054255
H36   H     H_    0.690671 0.687792 0.315981 0.087973
H37   H     H_    0.804250 0.747959 0.336585 0.072591
H38   H     H_    0.818517 0.880559 0.328944 0.106307
H39   H     H_    0.720699 0.952985 0.298973 0.100613
H40   H     H_    0.251580 0.421841 0.285732 0.077284
H41   H     H_    0.363165 0.457790 0.320249 0.089273
H42   H     H_    0.376089 0.582393 0.346244 0.092643
H43   H     H_    0.277096 0.671372 0.337382 0.081267
H44   H     H_    0.165268 0.636389 0.302612 0.088158
H45   H     H_    0.407635 0.240727 0.285977 0.077021
H46   H     H_    0.204896 0.720681 0.026940 0.045838
H47   H     H_    0.309475 0.312278 0.315980 0.087975
H48   H     H_    0.195860 0.252183 0.336586 0.072567
H49   H     H_    0.181504 0.119594 0.328942 0.106284
H50   H     H_    0.279271 0.047103 0.298970 0.100622
H51   H     H_    0.748408 0.578141 0.285714 0.077272
H52   H     H_    0.636833 0.542178 0.320232 0.089284
H53   H     H_    0.623942 0.417584 0.346243 0.092642
H54   H     H_    0.722960 0.328626 0.337395 0.081252
H55   H     H_    0.834775 0.363622 0.302620 0.088152
H56   H     H_    0.091953 0.259063 0.785959 0.077025
H57   H     H_    0.729734 0.806518 0.026812 0.054244
H58   H     H_    0.190039 0.187347 0.815929 0.087976
H59   H     H_    0.303730 0.247280 0.836556 0.072585
H60   H     H_    0.318265 0.379855 0.828943 0.106219
H61   H     H_    0.220593 0.452504 0.798986 0.100640
H62   H     H_    0.751729 0.922473 0.785744 0.077350
H63   H     H_    0.863258 0.958675 0.820236 0.089256
H64   H     H_    0.875955 0.083329 0.846191 0.092586
H65   H     H_    0.776791 0.172110 0.837314 0.081297
H66   H     H_    0.665008 0.136875 0.802574 0.088193
H67   H     H_    0.908469 0.741004 0.785969 0.077033
H68   H     H_    0.795103 0.279321 0.026939 0.045850
H69   H     H_    0.810538 0.812949 0.815922 0.088006
H70   H     H_    0.696682 0.753285 0.836509 0.072535
H71   H     H_    0.681819 0.620757 0.828871 0.106120
H72   H     H_    0.779341 0.547875 0.798937 0.100650
H73   H     H_    0.248268 0.077582 0.785741 0.077293
H74   H     H_    0.136746 0.041386 0.820237 0.089286
H75   H     H_    0.124053 0.916734 0.846196 0.092588
H76   H     H_    0.223217 0.827952 0.837319 0.081291
H77   H     H_    0.334993 0.863184 0.802576 0.088191
H78   H     H_    0.497342 0.816401 0.332368 0.096764
H79   H     H_    0.183474 0.656898 0.412940 0.102386
H80   H     H_    0.477772 0.854956 0.380004 0.100771
H81   H     H_    0.549512 0.790740 0.374135 0.134391
H82   H     H_    0.142300 0.377868 0.323749 0.100641
H83   H     H_    0.093850 0.372046 0.369692 0.141231
H84   H     H_    0.189489 0.388685 0.368928 0.132307
H85   H     H_    0.502692 0.183595 0.332383 0.096755
H86   H     H_    0.522242 0.145022 0.380016 0.100780
H87   H     H_    0.450520 0.209256 0.374148 0.134397
H88   H     H_    0.857688 0.622138 0.323740 0.100652
H89   H     H_    0.906171 0.627973 0.369674 0.141207
H90   H     H_    0.197035 0.743236 0.388132 0.134462
H91   H     H_    0.810531 0.611336 0.368929 0.132314
H92   H     H_    0.996962 0.316411 0.832359 0.096812
H93   H     H_    0.977461 0.355005 0.879994 0.100902
H94   H     H_    0.049065 0.290637 0.874130 0.134362
H95   H     H_    0.642617 0.878317 0.823815 0.100637
H96   H     H_    0.594266 0.872455 0.869786 0.141339
H97   H     H_    0.689852 0.889378 0.868965 0.132347
H98   H     H_    0.003200 0.683560 0.832450 0.096731
H99   H     H_    0.022499 0.644938 0.880101 0.100955
H100  H     H_    0.950967 0.709362 0.874169 0.134372
H101  H     H_    0.108570 0.705093 0.392571 0.145217
H102  H     H_    0.357394 0.121755 0.823800 0.100661
H103  H     H_    0.405815 0.127623 0.869752 0.141212
H104  H     H_    0.310219 0.110746 0.868970 0.132326
H105  H     H_    0.325261 0.249562 0.504882 0.037000
H106  H     H_    0.110904 0.119008 0.501925 0.159009
H107  H     H_    0.180447 0.097110 0.537870 0.090744
H108  H     H_    0.151155 0.030918 0.503153 0.151585
H109  H     H_    0.816530 0.343010 0.412921 0.102346
H110  H     H_    0.803039 0.256636 0.388136 0.134510
H111  H     H_    0.891479 0.294831 0.392589 0.145211
H112  H     H_    0.889109 0.880994 0.501951 0.159029
H113  H     H_    0.819571 0.902838 0.537907 0.090736
H114  H     H_    0.848846 0.969076 0.503213 0.151566
H115  H     H_    0.812755 0.827486 0.413666 0.173629
H116  H     H_    0.753621 0.323818 0.514727 0.047826
H117  H     H_    0.802865 0.729198 0.410758 0.083723
H118  H     H_    0.885589 0.772340 0.396370 0.125244
H119  H     H_    0.676111 0.272532 0.408397 0.076296
H120  H     H_    0.609497 0.209725 0.428168 0.099801
H121  H     H_    0.654646 0.190340 0.383180 0.130043
H122  H     H_    0.187299 0.172577 0.413643 0.173629
H123  H     H_    0.197162 0.270868 0.410754 0.083712
H124  H     H_    0.114456 0.227710 0.396346 0.125218
H125  H     H_    0.323947 0.727442 0.408413 0.076287
H126  H     H_    0.390532 0.790290 0.428176 0.099814
H127  H     H_    0.674736 0.750435 0.504870 0.036986
H128  H     H_    0.345384 0.809625 0.383181 0.130037
H129  H     H_    0.683400 0.157130 0.912899 0.102489
H130  H     H_    0.696776 0.243555 0.888148 0.134570
H131  H     H_    0.608373 0.205287 0.892635 0.145303
H132  H     H_    0.610611 0.619035 0.001300 0.159509
H133  H     H_    0.679606 0.597403 0.037594 0.090682
H134  H     H_    0.650949 0.531006 0.002839 0.151542
H135  H     H_    0.316580 0.842854 0.912896 0.102451
H136  H     H_    0.303217 0.756424 0.888148 0.134578
H137  H     H_    0.391614 0.794706 0.892635 0.145331
H138  H     H_    0.770143 0.693362 0.526752 0.054246
H139  H     H_    0.389144 0.380975 0.001763 0.159072
H140  H     H_    0.319717 0.402867 0.037771 0.090770
H141  H     H_    0.348885 0.469059 0.003026 0.151560
H142  H     H_    0.312462 0.327209 0.913572 0.173566
H143  H     H_    0.302698 0.228901 0.910740 0.083716
H144  H     H_    0.385327 0.272122 0.896263 0.125217
H145  H     H_    0.176264 0.772518 0.908380 0.076378
H146  H     H_    0.109577 0.709782 0.928145 0.099771
H147  H     H_    0.154753 0.690330 0.883171 0.130004
H148  H     H_    0.687790 0.672898 0.913496 0.173654
H149  H     H_    0.704899 0.220679 0.526936 0.045866
H150  H     H_    0.697755 0.771191 0.910716 0.083842
H151  H     H_    0.615112 0.728147 0.896108 0.125080
H152  H     H_    0.823735 0.227473 0.908385 0.076370
H153  H     H_    0.890419 0.290230 0.928137 0.099809
H154  H     H_    0.845222 0.309654 0.883166 0.130013
H155  H     H_    0.028608 0.646016 0.622723 0.111842
H156  H     H_    0.004305 0.684560 0.669766 0.099615
H157  H     H_    0.956900 0.710942 0.626527 0.137980
H158  H     H_    0.410065 0.130772 0.631001 0.140518
H159  H     H_    0.360566 0.125998 0.676621 0.100536
H160  H     H_    0.229849 0.306629 0.526756 0.054241
H161  H     H_    0.314003 0.116864 0.631127 0.135911
H162  H     H_    0.971390 0.353963 0.622767 0.111810
H163  H     H_    0.995780 0.315414 0.669797 0.099645
H164  H     H_    0.043127 0.289062 0.626535 0.137980
H165  H     H_    0.589926 0.869235 0.631034 0.140484
H166  H     H_    0.639470 0.874054 0.676642 0.100561
H167  H     H_    0.685987 0.883162 0.631133 0.135908
H168  H     H_    0.528225 0.146095 0.122723 0.111753
H169  H     H_    0.503862 0.184544 0.169780 0.099579
H170  H     H_    0.456369 0.210852 0.126556 0.137966
H171  H     H_    0.295094 0.779329 0.526935 0.045865
H172  H     H_    0.910511 0.631143 0.131107 0.140484
H173  H     H_    0.860888 0.626396 0.176691 0.100517
H174  H     H_    0.814407 0.617514 0.131158 0.135980
H175  H     H_    0.471731 0.853920 0.122740 0.111728
H176  H     H_    0.496160 0.815418 0.169776 0.099608
H177  H     H_    0.543598 0.789167 0.126525 0.137966
H178  H     H_    0.089472 0.368843 0.131123 0.140469
H179  H     H_    0.139116 0.373599 0.176701 0.100536
H180  H     H_    0.185580 0.382458 0.131163 0.135935
H181  H     H_    0.217477 0.457563 0.699190 0.094389
H182  H     H_    0.746395 0.176168 0.014711 0.047829
H183  H     H_    0.314169 0.389953 0.665269 0.102324
H184  H     H_    0.302784 0.257562 0.655284 0.089764
H185  H     H_    0.194222 0.192426 0.679268 0.088292
H186  H     H_    0.097035 0.259147 0.713177 0.077494
H187  H     H_    0.672451 0.132090 0.696414 0.094652
H188  H     H_    0.786784 0.160128 0.662157 0.098559
H189  H     H_    0.881347 0.065897 0.654937 0.097203
H190  H     H_    0.861386 0.943050 0.681973 0.089155
H191  H     H_    0.747243 0.914031 0.715996 0.078549
H192  H     H_    0.782537 0.542583 0.699189 0.094401
O1    O     O_3   0.500000 0.000000 0.500000 -0.470934
O2    O     O_R   0.560130 0.000000 0.087440 -0.520119
O3    O     O_R   1.000000 0.560130 0.087440 -0.540579
O4    O     O_R   0.439870 0.000000 0.087440 -0.520111
O5    O     O_R   0.439940 0.000000 0.412560 -0.517013
O6    O     O_R   0.000000 0.439940 0.412560 -0.550290
O7    O     O_R   0.560060 0.000000 0.412560 -0.517012
O8    O     O_R   1.000000 0.560060 0.412560 -0.550276
O9    O     O_R   0.939940 0.500000 0.912560 -0.517094
O10   O     O_R   0.500000 0.939940 0.912560 -0.550292
O11   O     O_R   0.060060 0.500000 0.912560 -0.517098
O12   O     O_3   1.000000 0.500000 0.500000 -0.466539
O13   O     O_R   0.500000 0.060060 0.912560 -0.550284
O14   O     O_R   0.415450 0.144560 0.522930 -0.563699
O15   O     O_R   0.855440 0.415450 0.522930 -0.556528
O16   O     O_R   0.584550 0.855440 0.522930 -0.563689
O17   O     O_R   0.144560 0.584550 0.522930 -0.556534
O18   O     O_R   0.584550 0.144560 0.522930 -0.556871
O19   O     O_R   0.144560 0.415450 0.522930 -0.544746
O20   O     O_R   0.415450 0.855440 0.522930 -0.556868
O21   O     O_R   0.855440 0.584550 0.522930 -0.544746
O22   O     O_R   0.915450 0.644560 0.022930 -0.563658
O23   O     O_3   1.000000 0.500000 0.000000 -0.470932
O24   O     O_R   0.355440 0.915450 0.022930 -0.556503
O25   O     O_R   0.084550 0.355440 0.022930 -0.563651
O26   O     O_R   0.644560 0.084550 0.022930 -0.556505
O27   O     O_R   0.084550 0.644560 0.022930 -0.556927
O28   O     O_R   0.644560 0.915450 0.022930 -0.544747
O29   O     O_R   0.915450 0.355440 0.022930 -0.556917
O30   O     O_R   0.355440 0.084550 0.022930 -0.544725
O31   O     O_R   0.644640 0.915430 0.477080 -0.471476
O32   O     O_R   0.084570 0.644640 0.477080 -0.487610
O33   O     O_R   0.355360 0.084570 0.477080 -0.471468
O34   O     O_3   0.500000 0.000000 0.000000 -0.466554
O35   O     O_R   0.915430 0.355360 0.477080 -0.487616
O36   O     O_R   0.355360 0.915430 0.477080 -0.479191
O37   O     O_R   0.915430 0.644640 0.477080 -0.481461
O38   O     O_R   0.644640 0.084570 0.477080 -0.479168
O39   O     O_R   0.084570 0.355360 0.477080 -0.481458
O40   O     O_R   0.144640 0.415430 0.977080 -0.471448
O41   O     O_R   0.584570 0.144640 0.977080 -0.487627
O42   O     O_R   0.855360 0.584570 0.977080 -0.471408
O43   O     O_R   0.415430 0.855360 0.977080 -0.487662
O44   O     O_R   0.855360 0.415430 0.977080 -0.479168
O45   O     O_R   0.500000 0.939870 0.587440 -0.540585
O46   O     O_R   0.415430 0.144640 0.977080 -0.481481
O47   O     O_R   0.144640 0.584570 0.977080 -0.479180
O48   O     O_R   0.584570 0.855360 0.977080 -0.481412
O49   O     O_3   0.148585 0.751133 0.442506 -0.500467
O50   O     O_3   0.216452 0.110397 0.480588 -0.520363
O51   O     O_3   0.851443 0.248825 0.442526 -0.500472
O52   O     O_3   0.783557 0.889616 0.480620 -0.520377
O53   O     O_3   0.869612 0.768104 0.455335 -0.518741
O54   O     O_3   0.717177 0.176085 0.431961 -0.505818
O55   O     O_3   0.130408 0.231918 0.455315 -0.518721
O56   O     O_R   0.060130 0.500000 0.587440 -0.520224
O57   O     O_3   0.282838 0.823891 0.431955 -0.505801
O58   O     O_3   0.648482 0.251245 0.942569 -0.500555
O59   O     O_3   0.716495 0.610457 0.980452 -0.520436
O60   O     O_3   0.351514 0.748749 0.942570 -0.500577
O61   O     O_3   0.283527 0.389568 0.980521 -0.520326
O62   O     O_3   0.369498 0.267998 0.955242 -0.518732
O63   O     O_3   0.217223 0.676050 0.931972 -0.505856
O64   O     O_3   0.630669 0.732159 0.955110 -0.518964
O65   O     O_3   0.782770 0.323946 0.931971 -0.505855
O66   O     O_3   0.931054 0.609403 0.646533 -0.544453
O67   O     O_R   0.500000 0.060130 0.587440 -0.540602
O68   O     O_3   0.373568 0.027691 0.646896 -0.560073
O69   O     O_3   0.068968 0.390602 0.646541 -0.544454
O70   O     O_3   0.626422 0.972334 0.646901 -0.560062
O71   O     O_3   0.430773 0.109234 0.146542 -0.544353
O72   O     O_3   0.873672 0.528128 0.146904 -0.560026
O73   O     O_3   0.569212 0.890760 0.146540 -0.544361
O74   O     O_3   0.126334 0.471859 0.146908 -0.560046
O75   O     O_3   0.572166 0.892497 0.353317 -0.539735
O76   O     O_3   0.127077 0.475949 0.353355 -0.565747
O77   O     O_3   0.427844 0.107513 0.353317 -0.539736
O78   O     O_R   0.939870 0.500000 0.587440 -0.520206
O79   O     O_3   0.872931 0.524066 0.353350 -0.565733
O80   O     O_3   0.071941 0.392348 0.853316 -0.539831
O81   O     O_3   0.627154 0.976417 0.853362 -0.565811
O82   O     O_3   0.928084 0.607674 0.853323 -0.539838
O83   O     O_3   0.372854 0.023664 0.853359 -0.565787
O84   O     O_R   0.000000 0.439870 0.087440 -0.540561
Zn1   Zn    Zn3+2 0.414160 1.000000 0.467250 0.998575
Zn2   Zn    Zn3+2 0.914220 0.500000 0.532750 0.944486
Zn3   Zn    Zn3+2 0.500000 0.914220 0.532750 0.932099
Zn4   Zn    Zn3+2 0.085780 0.500000 0.532750 0.944478
Zn5   Zn    Zn3+2 1.000000 0.585780 0.032750 0.932104
Zn6   Zn    Zn3+2 0.414220 0.000000 0.032750 0.944474
Zn7   Zn    Zn3+2 1.000000 0.414220 0.032750 0.932119
Zn8   Zn    Zn3+2 0.585780 0.000000 0.032750 0.944470
Zn9   Zn    Zn3+2 1.000000 0.414160 0.467250 0.973453
Zn10  Zn    Zn3+2 0.585840 1.000000 0.467250 0.998581
Zn11  Zn    Zn3+2 1.000000 0.585840 0.467250 0.973457
Zn12  Zn    Zn3+2 0.914160 0.500000 0.967250 0.998630
Zn13  Zn    Zn3+2 0.500000 0.914160 0.967250 0.973423
Zn14  Zn    Zn3+2 0.085840 0.500000 0.967250 0.998583
Zn15  Zn    Zn3+2 0.500000 0.085840 0.967250 0.973413
Zn16  Zn    Zn3+2 0.500000 0.085780 0.532750 0.932089

loop_
_geom_bond_atom_site_label_1
_geom_bond_atom_site_label_2
_ccdc_geom_bond_type
C168  C175  A    
C163  H92   S    
C191  O9    A    
C126  C127  A    
O6    Zn9   S    
C39   O62   S    
C223  C224  S    
C215  C233  D    
C105  C110  A    
C206  O41   A    
C114  C115  A    
C157  C179  A    
C48   O71   S    
C79   C194  A    
O11   Zn14  S    
C181  O81   S    
C135  C173  A    
C35   C124  A    
C31   O54   S    
C41   O64   S    
C42   H152  S    
C199  O39   A    
C106  C107  A    
C143  C144  A    
C42   H154  S    
C40   O63   S    
C108  C109  A    
C221  O59   S    
C237  H182  S    
C190  O8    A    
C51   H178  S    
O10   Zn13  S    
C16   C22   A    
C169  C174  A    
C226  O64   S    
C32   O55   S    
O48   Zn13  S    
O38   Zn10  S    
C203  O24   A    
C61   C62   A    
C147  H67   S    
C248  O69   S    
C160  H83   S    
C167  C180  A    
C3    O70   S    
C41   H150  S    
C78   C238  S    
C164  H96   S    
C28   H111  S    
C18   C25   A    
C165  H98   S    
O43   Zn13  S    
C156  H76   S    
C204  C241  S    
O7    Zn10  S    
C161  H86   S    
C140  C141  A    
C210  C242  S    
C61   H188  S    
C148  H69   S    
C201  O21   A    
C88   H20   S    
C31   H121  S    
C159  H78   S    
C177  C186  A    
C112  O78   A    
O34   Zn13  S    
O17   Zn4   S    
C166  H103  S    
C186  C190  S    
C19   C23   A    
C75   C76   A    
C71   H6    S    
C33   H125  S    
C34   H131  S    
C180  C187  A    
C199  C235  S    
C104  H33   S    
C34   O58   S    
C90   C205  A    
C226  C244  D    
C36   H133  S    
C31   H120  S    
C232  H127  S    
C129  H53   S    
C162  H91   S    
C202  O42   A    
C39   H143  S    
C148  C149  A    
O36   Zn1   S    
C154  C155  A    
C137  H60   S    
C52   C58   A    
C33   H128  S    
C167  C174  A    
C45   H163  S    
C44   H161  S    
C198  O38   A    
C111  C118  A    
C133  H56   S    
C24   C98   S    
C86   H18   S    
C193  O14   A    
C119  C125  A    
C233  H138  S    
O21   Zn2   S    
O34   Zn8   S    
C170  C184  A    
C179  O79   S    
C44   O68   S    
C72   C73   A    
C204  O25   A    
C139  C140  A    
C197  O17   A    
C113  C170  A    
O39   Zn9   S    
C43   H157  S    
C241  H24   S    
C37   H136  S    
O56   Zn4   S    
C156  C158  A    
C130  C131  A    
O34   Zn15  S    
C190  O6    A    
C144  H66   S    
C125  H50   S    
C114  H40   S    
C218  O55   S    
C223  C241  D    
O33   Zn1   S    
O46   Zn15  S    
O84   Zn7   S    
C116  H42   S    
C151  H72   S    
C69   C70   A    
O1    Zn16  S    
C169  C182  A    
C44   H159  S    
C25   C173  A    
C23   C171  A    
C88   C89   A    
C168  C181  A    
C155  C156  A    
C49   O72   S    
C222  O60   S    
C12   C248  A    
C48   H169  S    
C165  H100  S    
C79   C167  A    
C109  C110  A    
C220  O58   S    
C229  H1    S    
O23   Zn12  S    
C54   H183  S    
C49   H173  S    
O47   Zn14  S    
C107  H36   S    
C102  H31   S    
C128  C129  A    
C94   H25   S    
C22   C175  A    
C210  O46   A    
C5    C20   A    
C53   C54   A    
C163  H93   S    
C101  C145  S    
C17   C23   A    
C95   H26   S    
C221  C239  D    
C3    C9    A    
C26   O49   S    
C131  H55   S    
C51   O74   S    
C218  C235  D    
C34   H129  S    
C47   H165  S    
C236  H171  S    
C78   C80   A    
C113  C227  A    
C155  H75   S    
C115  C116  A    
C146  C178  A    
C159  O75   S    
O12   Zn9   S    
O40   Zn14  S    
O29   Zn7   S    
C72   C227  S    
O26   Zn8   S    
C107  C108  A    
C50   O73   S    
C89   C91   A    
C213  C231  D    
O9    Zn12  S    
O24   Zn6   S    
C66   C67   A    
O34   Zn6   S    
C146  C171  A    
C43   O66   S    
C207  O47   A    
C123  H49   S    
C103  H32   S    
C195  O35   A    
C92   C97   A    
C32   H123  S    
C160  H82   S    
C36   H134  S    
C43   H155  S    
C28   O51   S    
C28   H110  S    
C50   H175  S    
C138  H61   S    
C75   H9    S    
O23   Zn7   S    
C222  C225  S    
C150  H71   S    
C217  O54   S    
C45   O69   S    
C106  H34   S    
C225  O63   S    
C35   C105  S    
O78   Zn2   S    
C48   H168  S    
C83   C84   A    
C93   H23   S    
C15   C246  A    
C196  O16   A    
C247  O68   S    
O12   Zn2   S    
C27   H107  S    
C109  H38   S    
C36   H132  S    
C98   C99   A    
C121  H47   S    
C14   C205  A    
C122  H48   S    
C154  H74   S    
C40   H147  S    
C160  O76   S    
C52   C53   A    
C129  C130  A    
C38   H141  S    
C6    C17   A    
C54   C55   A    
C90   C168  A    
O27   Zn5   S    
C211  O49   S    
C136  C137  A    
C166  O83   S    
C185  C189  S    
C124  C176  A    
C197  C229  S    
C161  O77   S    
C211  C219  S    
C188  C192  S    
C14   C22   A    
C26   H101  S    
O12   Zn11  S    
C117  C118  A    
C134  H58   S    
C26   H79   S    
C99   H29   S    
O1    Zn3   S    
C56   C58   A    
C56   H185  S    
O41   Zn15  S    
C102  C103  A    
O8    Zn11  S    
C127  H51   S    
C63   C64   A    
O20   Zn3   S    
C59   C60   A    
C152  C153  A    
C77   H11   S    
C150  C151  A    
C57   C146  A    
C44   H158  S    
C87   H19   S    
C160  H84   S    
O16   Zn3   S    
C55   C56   A    
C29   O52   S    
C73   C74   A    
C208  O28   A    
C91   H22   S    
C214  C232  D    
O18   Zn16  S    
C176  C185  A    
O23   Zn5   S    
O44   Zn12  S    
C243  H46   S    
C189  O5    A    
C161  H85   S    
C208  O48   A    
C193  C230  S    
C5    C11   A    
C8    C112  S    
C200  O36   A    
O2    Zn8   S    
C29   H114  S    
C123  C125  A    
C20   C25   A    
C30   O53   S    
C132  C138  A    
C220  C228  S    
C2    C85   S    
C246  O66   S    
C166  H104  S    
C66   H192  S    
C46   C135  A    
C36   O59   S    
C140  H62   S    
C110  H39   S    
C147  C148  A    
C182  C187  A    
C141  H63   S    
C178  O77   S    
C101  C169  A    
C70   C71   A    
O1    Zn1   S    
C38   H139  S    
C59   C205  S    
C8    C246  A    
C11   C172  S    
C172  O84   A    
C46   C111  S    
C117  H43   S    
C239  H2    S    
C10   C183  S    
C113  C152  S    
C118  H44   S    
C162  O79   S    
C235  H160  S    
C219  C236  D    
C145  C147  A    
C181  C188  A    
C90   C139  S    
C50   H177  S    
C170  C175  A    
C55   H184  S    
C177  O76   S    
C152  C158  A    
C13   C19   A    
C1    C9    S    
C58   H186  S    
C202  O22   A    
C179  C186  A    
C184  O83   S    
C86   C87   A    
C45   H162  S    
C4    O71   S    
C32   H122  S    
C206  C237  S    
C85   C86   A    
C42   H153  S    
C221  C226  S    
C82   C83   A    
C2    C46   A    
C60   C61   A    
C37   H135  S    
C47   H166  S    
C163  O80   S    
C62   C63   A    
C33   O57   S    
C203  O43   A    
C53   H181  S    
C60   H187  S    
C135  C177  A    
C121  C122  A    
O13   Zn15  S    
C3    C14   A    
O3    Zn5   S    
C5    O72   S    
C41   H151  S    
C164  H95   S    
C133  C134  A    
C220  C237  D    
C48   H170  S    
C165  H99   S    
C127  C128  A    
C209  C245  S    
C242  H35   S    
C16   C247  A    
O5    Zn1   S    
C189  O7    A    
C38   H140  S    
C161  H87   S    
C49   H172  S    
C31   H119  S    
C211  C229  D    
O22   Zn5   S    
C100  H30   S    
C64   H191  S    
C208  C244  S    
C42   O65   S    
C15   C216  A    
C245  H68   S    
C40   H146  S    
C217  C234  D    
C6    C10   A    
C119  C120  A    
C215  O53   S    
C209  O44   A    
C225  C243  D    
C105  C106  A    
C183  O4    A    
C166  H102  S    
C33   H126  S    
C34   H130  S    
C37   O60   S    
C213  O51   S    
C149  C150  A    
O23   Zn14  S    
C207  O27   A    
O45   Zn3   S    
C224  C242  D    
C124  C171  A    
C130  H54   S    
C222  C240  D    
C92   C93   A    
O12   Zn4   S    
C111  C114  A    
C39   H144  S    
C94   C95   A    
C9    C247  A    
C97   H28   S    
C24   C68   A    
C30   H117  S    
C13   C57   A    
C8    C248  A    
C87   C88   A    
C26   H90   S    
C21   C174  A    
C183  O2    A    
C103  C104  A    
C63   H190  S    
C196  O31   A    
C142  C143  A    
C244  H57   S    
C38   O61   S    
C230  H105  S    
C204  O40   A    
C219  O57   S    
C157  C173  A    
C16   C227  A    
C93   C94   A    
C2    C18   A    
C206  O26   A    
C95   C96   A    
C240  H13   S    
C200  O20   A    
O1    Zn10  S    
C40   H145  S    
C81   C82   A    
C85   C91   A    
C27   H106  S    
C45   H164  S    
C32   H124  S    
C7    C11   A    
C59   C64   A    
C231  H116  S    
C197  O32   A    
C212  C218  S    
C89   H21   S    
C224  O62   S    
C162  H89   S    
C120  H45   S    
C165  O82   S    
C50   H176  S    
C198  O18   A    
C101  C216  A    
C116  C117  A    
C228  O65   S    
C108  H37   S    
C69   H4    S    
C73   H7    S    
C4    C19   A    
C201  C233  S    
C214  O52   S    
C20   C24   A    
C132  C133  A    
O25   Zn7   S    
O31   Zn10  S    
C164  H97   S    
C115  H41   S    
C212  O50   S    
C1    O67   A    
C176  O75   S    
C80   H12   S    
C164  O81   S    
C187  C191  S    
C57   C119  S    
C81   H14   S    
C62   H189  S    
C178  C185  A    
C83   H16   S    
C182  O82   S    
C35   C238  A    
C49   H174  S    
C70   H5    S    
C37   H137  S    
O28   Zn8   S    
C163  H94   S    
C191  O11   A    
C159  H81   S    
C74   C75   A    
O42   Zn12  S    
C196  C232  S    
C52   C194  S    
C76   C77   A    
C65   C216  S    
C198  C234  S    
C202  C239  S    
C213  C217  S    
C214  C215  S    
C7    O74   S    
C134  C136  A    
C228  C245  D    
C162  H88   S    
C65   C71   A    
C76   H10   S    
C12   C21   A    
C184  C188  A    
C67   C69   A    
C39   H142  S    
C72   C77   A    
C207  C243  S    
C30   H115  S    
C212  C230  D    
C139  C144  A    
C142  H64   S    
C99   C100  A    
C201  O37   A    
C7    C18   A    
C96   C97   A    
C100  C102  A    
C195  C231  S    
C47   H167  S    
C223  O61   S    
C193  O33   A    
C143  H65   S    
C203  C240  S    
C145  C151  A    
C6    O73   S    
C51   H180  S    
C30   H118  S    
O15   Zn2   S    
C192  O13   A    
C180  O80   S    
O14   Zn16  S    
O37   Zn11  S    
C172  O3    A    
C4    C10   A    
C68   C126  S    
C153  H73   S    
C41   H148  S    
C43   H156  S    
C27   O50   S    
C12   C194  A    
C28   H109  S    
C200  C236  S    
C80   C81   A    
C112  O56   A    
C234  H149  S    
C137  C138  A    
C122  C123  A    
C13   C92   S    
C210  O30   A    
C141  C142  A    
C128  H52   S    
C199  O19   A    
C136  H59   S    
C29   H113  S    
C149  H70   S    
C17   C238  A    
O4    Zn6   S    
C126  C131  A    
C98   C104  A    
C79   C132  S    
O30   Zn6   S    
C51   H179  S    
C159  H80   S    
O32   Zn11  S    
C84   H17   S    
C195  O15   A    
O67   Zn16  S    
C209  O29   A    
C27   H108  S    
C1    O45   A    
O19   Zn4   S    
C78   C84   A    
C15   C21   A    
C158  H77   S    
C47   O70   S    
C65   C66   A    
C82   H15   S    
O35   Zn9   S    
C96   H27   S    
C120  C121  A    
C153  C154  A    
C74   H8    S    
C68   C157  A    
C29   H112  S    
C67   H3    S    
C192  O10   A    
