data_mof_unit_52145.cif
_audit_creation_date              2012-12-10T18:47:03-0500
_audit_creation_method            fapswitch 2.2
_symmetry_space_group_name_H-M    P1
_symmetry_Int_Tables_number       1
_space_group_crystal_system       triclinic
_cell_length_a                    10.725144
_cell_length_b                    9.92787
_cell_length_c                    14.90573
_cell_angle_alpha                 90.714269
_cell_angle_beta                  90.695152
_cell_angle_gamma                 89.98991
_cell_volume                      1586.88973428

loop_
_atom_site_label
_atom_site_type_symbol
_atom_type_description
_atom_site_fract_x
_atom_site_fract_y
_atom_site_fract_z
_atom_type_partial_charge
C1    C     C_R   0.260139 0.500130 0.500522 0.851108
C2    C     C_R   0.739866 0.500113 0.499469 0.849831
C3    C     C_R   0.348494 0.317742 0.043485 -0.222315
C4    C     C_R   0.668784 0.668135 0.956426 -0.224613
C5    C     C_R   0.063716 0.378106 0.498529 -0.209750
C6    C     C_R   0.936123 0.623572 0.502667 -0.198979
C7    C     C_R   0.936234 0.378195 0.495418 -0.207685
C8    C     C_R   0.063947 0.623580 0.503124 -0.200227
C9    C     C_R   0.872476 0.500672 0.498881 -0.008133
C10   C     C_R   0.127533 0.500641 0.501038 -0.007482
C11   C     C_R   0.558306 0.074045 0.567131 0.165813
C12   C     C_R   0.443640 0.926561 0.431341 0.162558
C13   C     C_R   0.440058 0.071341 0.433225 0.173791
C14   C     C_R   0.548881 0.930608 0.571086 0.164636
C15   C     C_R   0.500792 0.499140 0.327058 0.890877
C16   C     C_R   0.501122 0.500348 0.672937 0.888582
C17   C     C_R   0.586536 0.582831 0.815218 -0.279271
C18   C     C_R   0.426176 0.407613 0.184504 -0.277514
C19   C     C_R   0.503443 0.499218 0.768481 -0.051769
C20   C     C_R   0.504139 0.496566 0.231526 -0.063758
C21   C     C_R   0.425716 0.409554 0.812409 -0.274371
C22   C     C_R   0.585584 0.582493 0.187781 -0.281930
C23   C     C_R   0.427246 0.406166 0.905127 0.123403
C24   C     C_R   0.588194 0.581711 0.094937 0.124913
C25   C     C_R   0.508308 0.493522 0.953323 0.059184
C26   C     C_R   0.508315 0.493167 0.046643 0.057087
C27   C     C_R   0.588679 0.581879 0.908122 0.118649
C28   C     C_R   0.427465 0.405227 0.091733 0.123870
C29   C     C_R   0.348383 0.318213 0.950267 -0.221850
C30   C     C_R   0.668370 0.668235 0.049723 -0.217708
H1    H     H_    0.649247 0.647936 0.779110 0.154597
H2    H     H_    0.362725 0.342961 0.220182 0.151810
H3    H     H_    0.363174 0.344035 0.774227 0.145046
H4    H     H_    0.646514 0.649410 0.226187 0.148335
H5    H     H_    0.286262 0.250727 0.913526 0.145799
H6    H     H_    0.730005 0.736223 0.086470 0.145705
H7    H     H_    0.286503 0.249862 0.077816 0.145832
H8    H     H_    0.730686 0.736079 0.922084 0.145617
H9    H     H_    0.111663 0.282353 0.498690 0.161696
H10   H     H_    0.887722 0.719341 0.505194 0.155819
H11   H     H_    0.888223 0.282619 0.490482 0.160191
H12   H     H_    0.112399 0.719364 0.505417 0.151362
N1    N     N_R   0.500000 0.857200 0.500000 -0.132954
N2    N     N_R   0.500000 0.142800 0.500000 -0.131290
O1    O     O_R   0.316770 0.614620 0.499990 -0.624200
O2    O     O_R   0.683230 0.385380 0.500010 -0.605366
O3    O     O_R   0.683230 0.614620 0.500010 -0.625216
O4    O     O_R   0.316770 0.385380 0.499990 -0.607687
O5    O     O_R   0.499980 0.614680 0.367850 -0.589781
O6    O     O_R   0.500020 0.385320 0.632150 -0.608020
O7    O     O_R   0.500020 0.614680 0.632150 -0.589077
O8    O     O_R   0.499980 0.385320 0.367850 -0.609636
Zn1   Zn    Zn3+2 0.500000 0.653120 0.500000 0.966304
Zn2   Zn    Zn3+2 0.500000 0.346880 0.500000 0.972156
N3    N     N_2   0.624063 0.147904 0.634900 -0.245166
H13   H     H_    0.588934 0.141968 0.698699 0.223506
C31   C     C_3   0.758776 0.141468 0.631631 -0.778609
H14   H     H_    0.795448 0.075952 0.685726 0.206037
H15   H     H_    0.797301 0.244102 0.642687 0.254368
H16   H     H_    0.791523 0.101655 0.565933 0.222728
N4    N     N_2   0.377990 0.852440 0.363616 -0.242056
H17   H     H_    0.282308 0.858428 0.367570 0.215850
C32   C     C_3   0.425276 0.859771 0.273176 -0.741607
H18   H     H_    0.385352 0.946983 0.237315 0.208343
H19   H     H_    0.395825 0.768324 0.235114 0.248958
H20   H     H_    0.528788 0.865525 0.273556 0.234583
N5    N     N_2   0.378265 0.143995 0.364495 -0.244005
H21   H     H_    0.422900 0.145559 0.303764 0.221261
C33   C     C_3   0.243583 0.136662 0.360214 -0.801535
H22   H     H_    0.213255 0.072769 0.302355 0.217551
H23   H     H_    0.205572 0.239360 0.350192 0.248411
H24   H     H_    0.204576 0.094822 0.422773 0.224188
N6    N     N_2   0.574173 0.865943 0.653602 -0.255943
H25   H     H_    0.658602 0.891541 0.682627 0.210216
C34   C     C_3   0.471695 0.877134 0.716138 -0.757200
H26   H     H_    0.448520 0.983896 0.730991 0.200033
H27   H     H_    0.497083 0.829131 0.780442 0.237225
H28   H     H_    0.386996 0.827050 0.687968 0.258878

loop_
_geom_bond_atom_site_label_1
_geom_bond_atom_site_label_2
_ccdc_geom_bond_type
N3    H13   S    
C32   H19   S    
N6    H25   S    
C16   O7    A    
C8    H12   S    
C6    C9    A    
C2    O2    A    
O4    Zn2   S    
O6    Zn2   S    
C23   C29   A    
C3    C28   A    
C19   C21   A    
C16   O6    A    
C12   N1    A    
C11   C14   A    
C31   H15   S    
C21   H3    S    
N4    C32   S    
C3    C29   A    
N1    Zn1   S    
C18   C20   A    
O3    Zn1   S    
C7    H11   S    
C32   H20   S    
O1    Zn1   S    
N6    C34   S    
N4    H17   S    
O8    Zn2   S    
C15   C20   S    
C22   H4    S    
C33   H23   S    
N5    H21   S    
C17   C27   A    
C14   N6    S    
C18   C28   A    
C5    C7    A    
C31   H16   S    
C6    C8    A    
C25   C26   A    
N5    C33   S    
C33   H24   S    
C34   H26   S    
O2    Zn2   S    
C11   N2    A    
C15   O8    A    
C34   H27   S    
C20   C22   A    
N3    C31   S    
C17   H1    S    
C22   C24   A    
C18   H2    S    
C4    C27   A    
C11   N3    S    
C13   N5    S    
C7    C9    A    
C5    H9    S    
C1    C10   S    
C24   C26   A    
C4    H8    S    
C1    O4    A    
C2    O3    A    
C25   C27   A    
C29   H5    S    
C26   C28   A    
C30   H6    S    
C21   C23   A    
C5    C10   A    
C12   N4    S    
C1    O1    A    
C31   H14   S    
C16   C19   S    
O5    Zn1   S    
C17   C19   A    
C6    H10   S    
C15   O5    A    
C33   H22   S    
C34   H28   S    
C24   C30   A    
C32   H18   S    
N2    Zn2   S    
C23   C25   A    
C12   C13   A    
C3    H7    S    
C8    C10   A    
O7    Zn1   S    
C2    C9    S    
C13   N2    A    
C4    C30   A    
C14   N1    A    
