data_mof_unit_47930.cif
_audit_creation_date              2012-12-10T16:56:30-0500
_audit_creation_method            fapswitch 2.2
_symmetry_space_group_name_H-M    P1
_symmetry_Int_Tables_number       1
_space_group_crystal_system       triclinic
_cell_length_a                    7.810503
_cell_length_b                    8.763446
_cell_length_c                    15.719861
_cell_angle_alpha                 89.970462
_cell_angle_beta                  89.277599
_cell_angle_gamma                 93.351094
_cell_volume                      1074.05004084

loop_
_atom_site_label
_atom_site_type_symbol
_atom_type_description
_atom_site_fract_x
_atom_site_fract_y
_atom_site_fract_z
_atom_type_partial_charge
C1    C     C_R   0.545324 0.794367 0.497771 0.950005
C2    C     C_3   0.377590 0.372344 0.025496 0.092126
C3    C     C_1   0.523587 0.489284 0.749577 -0.211003
C4    C     C_1   0.474431 0.498737 0.250275 -0.195423
C5    C     C_3   0.340710 0.505053 0.965580 0.473266
C6    C     C_3   0.646937 0.453482 0.034006 0.507326
C7    C     C_3   0.508871 0.478341 0.915176 -0.190756
C8    C     C_3   0.480389 0.483132 0.084664 -0.182091
C9    C     C_1   0.526741 0.482085 0.824650 -0.042810
C10   C     C_1   0.467969 0.493447 0.175202 -0.030620
C11   C     C_3   0.851908 0.766031 0.010759 -0.701575
C12   C     C_R   0.454676 0.205634 0.502216 0.948868
C13   C     C_3   0.132077 0.195651 0.995865 -0.787548
C14   C     C_3   0.328523 0.854568 0.985040 -0.788198
C15   C     C_3   0.649580 0.100580 0.011071 -0.824187
C16   C     C_3   0.829316 0.370349 0.141060 0.091178
C17   C     C_3   0.905439 0.493656 0.200014 -0.796444
C18   C     C_3   0.150959 0.492078 0.851940 0.090358
C19   C     C_3   0.962489 0.486431 0.829201 -0.753935
C20   C     C_R   0.507141 0.498351 0.661475 0.898464
C21   C     C_R   0.492805 0.500990 0.338489 0.899446
C22   C     C_2   0.568638 0.957555 0.496553 -0.378507
C23   C     C_2   0.431361 0.042448 0.503415 -0.377634
C24   C     C_3   0.444303 0.615206 0.024575 0.102910
C25   C     C_3   0.543438 0.344800 0.974552 0.094219
C26   C     C_3   0.610458 0.587398 0.974918 0.103350
H1    H     H_    0.698735 0.007720 0.490004 0.181958
H2    H     H_    0.064527 0.091937 0.022729 0.218419
H3    H     H_    0.195269 0.165318 0.935057 0.231343
H4    H     H_    0.036660 0.280640 0.983537 0.318241
H5    H     H_    0.475911 0.817498 0.092309 0.225791
H6    H     H_    0.320455 0.971076 0.009130 0.270503
H7    H     H_    0.199830 0.811822 0.965077 0.285690
H8    H     H_    0.415381 0.856442 0.928638 0.225586
H9    H     H_    0.505753 0.146494 0.904267 0.228754
H10   H     H_    0.780737 0.136386 0.029903 0.259056
H11   H     H_    0.651879 0.984374 0.986224 0.255701
H12   H     H_    0.301264 0.992284 0.509961 0.182325
H13   H     H_    0.562823 0.100879 0.067612 0.246341
H14   H     H_    0.918825 0.277178 0.139212 0.151324
H15   H     H_    0.708568 0.314801 0.166988 0.135131
H16   H     H_    0.822284 0.591980 0.202820 0.251775
H17   H     H_    0.918576 0.446100 0.264908 0.223776
H18   H     H_    0.034507 0.534717 0.176104 0.261054
H19   H     H_    0.197756 0.376748 0.838827 0.142935
H20   H     H_    0.217379 0.579708 0.810231 0.165039
H21   H     H_    0.918329 0.604061 0.825653 0.257220
H22   H     H_    0.944307 0.432692 0.765733 0.206603
H23   H     H_    0.011932 0.385502 0.437253 0.189385
H24   H     H_    0.885018 0.418270 0.876822 0.291092
H25   H     H_    0.988060 0.614469 0.562761 0.193222
H26   H     H_    0.694912 0.778849 0.903145 0.214221
H27   H     H_    0.920888 0.870301 0.985312 0.206591
H28   H     H_    0.948532 0.684075 0.027520 0.329215
H29   H     H_    0.779393 0.795914 0.069020 0.214236
H30   H     H_    0.205245 0.277080 0.115360 0.237754
N1    N     N_2   0.950320 0.457950 0.477300 -0.180518
N2    N     N_2   0.049680 0.542050 0.522700 -0.177812
N3    N     N_2   0.738424 0.702169 0.946329 -0.288591
N4    N     N_2   0.256631 0.253853 0.056506 -0.298921
N5    N     N_2   0.389881 0.761212 0.052371 -0.278685
N6    N     N_2   0.593733 0.198715 0.944795 -0.278675
O1    O     O_R   0.389250 0.738570 0.505570 -0.611212
O2    O     O_3   0.173317 0.534143 0.937911 -0.595152
O3    O     O_R   0.610750 0.261430 0.494430 -0.612539
O4    O     O_R   0.678390 0.711630 0.491020 -0.630441
O5    O     O_R   0.321610 0.288370 0.508980 -0.631355
O6    O     O_R   0.355460 0.513480 0.630490 -0.623371
O7    O     O_R   0.644540 0.486520 0.369510 -0.620271
O8    O     O_R   0.644600 0.486540 0.615950 -0.619249
O9    O     O_R   0.355400 0.513460 0.384050 -0.620650
O10   O     O_3   0.817480 0.429974 0.058052 -0.605661
Zn1   Zn    Zn3+2 0.306940 0.517990 0.509710 0.942259
Zn2   Zn    Zn3+2 0.693060 0.482010 0.490290 0.939775

loop_
_geom_bond_atom_site_label_1
_geom_bond_atom_site_label_2
_ccdc_geom_bond_type
N1    Zn2   S    
O8    Zn2   S    
C19   H24   S    
C17   H17   S    
C13   H2    S    
C14   H8    S    
C24   N5    S    
C3    C9    T    
H26   N3    S    
C2    C25   S    
C23   H12   S    
C5    C7    S    
C26   N3    S    
C15   H13   S    
C7    C25   S    
C25   N6    S    
C20   O8    A    
C16   O10   S    
C14   H7    S    
C1    O4    A    
O6    Zn1   S    
C17   H18   S    
C11   H29   S    
C1    C22   S    
C13   N4    S    
C3    C20   S    
C6    O10   S    
C4    C21   S    
C5    C24   S    
C12   C23   S    
C18   O2    S    
N1    N2    D    
C6    C26   S    
C11   H28   S    
C7    C26   S    
C16   H14   S    
C11   N3    S    
O5    Zn1   S    
C1    O1    A    
C13   H3    S    
C8    C24   S    
C15   N6    S    
C21   O9    A    
H9    N6    S    
C2    N4    S    
C22   H1    S    
C21   O7    A    
C19   H22   S    
C12   O5    A    
C19   H21   S    
C6    C25   S    
C4    C10   T    
C2    C5    S    
C18   H19   S    
C18   H20   S    
C13   H4    S    
O7    Zn2   S    
H23   N1    S    
N2    Zn1   S    
C7    C9    S    
C18   C19   S    
C12   O3    A    
H25   N2    S    
O9    Zn1   S    
H5    N5    S    
C22   C23   D    
C15   H11   S    
C6    C8    S    
O1    Zn1   S    
O4    Zn2   S    
C15   H10   S    
C17   H16   S    
C14   N5    S    
C14   H6    S    
C16   H15   S    
C20   O6    A    
C8    C10   S    
C2    C8    S    
O3    Zn2   S    
H30   N4    S    
C5    O2    S    
C24   C26   S    
C16   C17   S    
C11   H27   S    
