data_mof_unit_25647.cif
_audit_creation_date              2012-12-10T17:05:20-0500
_audit_creation_method            fapswitch 2.2
_symmetry_space_group_name_H-M    P1
_symmetry_Int_Tables_number       1
_space_group_crystal_system       triclinic
_cell_length_a                    10.033507
_cell_length_b                    10.727998
_cell_length_c                    15.401573
_cell_angle_alpha                 90.297906
_cell_angle_beta                  68.148608
_cell_angle_gamma                 90.318792
_cell_volume                      1538.67394647

loop_
_atom_site_label
_atom_site_type_symbol
_atom_type_description
_atom_site_fract_x
_atom_site_fract_y
_atom_site_fract_z
_atom_type_partial_charge
C1    C     C_R   0.500848 0.737384 0.499407 0.933353
C2    C     C_R   0.400961 0.429445 0.916358 0.091653
C3    C     C_R   0.256441 0.459182 0.971592 0.180429
C4    C     C_R   0.497573 0.394769 0.959719 -0.081435
C5    C     C_R   0.458185 0.422924 0.055660 0.018152
C6    C     C_R   0.312318 0.447884 0.110186 -0.199333
C7    C     C_R   0.212029 0.461600 0.068599 -0.243877
C8    C     C_R   0.632085 0.334592 0.911687 0.458131
C9    C     C_R   0.732821 0.325945 0.954143 -0.316647
C10   C     C_R   0.702566 0.373310 0.043888 0.093758
C11   C     C_R   0.565828 0.424657 0.094114 0.090773
C12   C     C_R   0.410243 0.498336 0.676163 0.867100
C13   C     C_R   0.806116 0.368484 0.085098 -0.192796
C14   C     C_R   0.774605 0.415253 0.175416 -0.202000
C15   C     C_R   0.541874 0.480880 0.180360 -0.235614
C16   C     C_2   0.601623 0.067421 0.517935 -0.164290
C17   C     C_2   0.488181 0.131689 0.517819 -0.342304
C18   C     C_2   0.596350 0.933166 0.522882 -0.165297
C19   C     C_2   0.504520 0.869343 0.495161 -0.328360
C20   C     C_2   0.110040 0.441466 0.437858 -0.124994
C21   C     C_2   0.961870 0.447674 0.434821 -0.137498
C22   C     C_R   0.497482 0.262739 0.503865 0.935494
C23   C     C_R   0.589488 0.497179 0.323772 0.863827
C24   C     C_R   0.353719 0.483993 0.777623 -0.084501
C25   C     C_R   0.641168 0.470811 0.223475 -0.060283
C26   C     C_R   0.160209 0.491839 0.928824 -0.223710
C27   C     C_R   0.208225 0.502132 0.831876 -0.188811
C28   C     C_R   0.448443 0.448786 0.820127 -0.241823
H1    H     H_    0.101585 0.482077 0.112095 0.142801
H2    H     H_    0.909534 0.325498 0.048587 0.139712
H3    H     H_    0.701238 0.112995 0.512854 0.179516
H4    H     H_    0.384448 0.089036 0.530388 0.154740
H5    H     H_    0.672406 0.886539 0.546701 0.170590
H6    H     H_    0.432090 0.912618 0.466897 0.149254
H7    H     H_    0.189896 0.387010 0.384000 0.157815
H8    H     H_    0.075560 0.555626 0.547079 0.160737
H9    H     H_    0.946024 0.404644 0.375472 0.151100
H10   H     H_    0.865045 0.533569 0.557685 0.169054
H11   H     H_    0.444213 0.532036 0.216175 0.152578
H12   H     H_    0.851804 0.404187 0.208630 0.144149
H13   H     H_    0.835644 0.282657 0.916127 0.169116
H14   H     H_    0.049382 0.513659 0.970353 0.150000
H15   H     H_    0.133145 0.528739 0.799838 0.162027
H16   H     H_    0.561289 0.443638 0.777776 0.216322
H17   H     H_    0.272677 0.454312 0.185576 0.139453
N1    N     N_2   0.148330 0.498670 0.499030 -0.186807
N2    N     N_2   0.852680 0.498640 0.499000 -0.186591
O1    O     O_R   0.386950 0.680940 0.500010 -0.614123
O2    O     O_R   0.613110 0.680900 0.499990 -0.606057
O3    O     O_R   0.322330 0.500030 0.632270 -0.611595
O4    O     O_R   0.548480 0.499990 0.632240 -0.616061
O5    O     O_R   0.386890 0.319100 0.500010 -0.609451
O6    O     O_R   0.613050 0.319060 0.499990 -0.606490
O7    O     O_R   0.451520 0.500010 0.367760 -0.613550
O8    O     O_R   0.677670 0.499970 0.367730 -0.611574
Zn1   Zn    Zn3+2 0.349000 0.500030 0.500020 0.941058
Zn2   Zn    Zn3+2 0.651000 0.499970 0.499980 0.942747
O9    O     O_3   0.668438 0.281983 0.823586 -0.663018
C29   C     C_3   0.587999 0.171582 0.828210 0.088015
H18   H     H_    0.568227 0.164351 0.761986 0.172234
H19   H     H_    0.480195 0.171224 0.886037 0.128303
C30   C     C_3   0.674032 0.057700 0.836094 -0.356511
H20   H     H_    0.781177 0.059016 0.778299 0.233594
H21   H     H_    0.689998 0.061222 0.903703 0.217858
C31   C     C_3   0.596764 0.936566 0.830890 -0.948358
H22   H     H_    0.489884 0.932528 0.888733 0.267316
H23   H     H_    0.661317 0.855905 0.837336 0.267110
H24   H     H_    0.582668 0.929554 0.762798 0.263892

loop_
_geom_bond_atom_site_label_1
_geom_bond_atom_site_label_2
_ccdc_geom_bond_type
C8    C9    A    
C12   O3    A    
C10   C13   A    
C1    O1    A    
C23   O8    A    
C30   H20   S    
O4    Zn2   S    
C6    H17   S    
N2    Zn2   S    
O3    Zn1   S    
C9    C10   A    
C12   C24   S    
C9    H13   S    
C17   C22   S    
C24   C27   A    
C30   H21   S    
C4    C8    A    
C31   H24   S    
O8    Zn2   S    
C2    C3    A    
C26   C27   A    
C21   H9    S    
C29   H18   S    
C13   C14   A    
C16   H3    S    
H8    N1    S    
C15   H11   S    
H10   N2    S    
C6    C7    A    
C1    O2    A    
C23   O7    A    
C7    H1    S    
C2    C4    A    
C16   C18   S    
C21   N2    D    
C5    C11   A    
C22   O6    A    
C3    C7    A    
C23   C25   S    
C14   C25   A    
C5    C6    A    
C18   H5    S    
O7    Zn1   S    
C1    C19   S    
C29   H19   S    
C10   C11   A    
C14   H12   S    
C27   H15   S    
C13   H2    S    
C12   O4    A    
O2    Zn2   S    
C20   C21   S    
C26   H14   S    
C15   C25   A    
C22   O5    A    
C31   H22   S    
N1    Zn1   S    
O1    Zn1   S    
C17   H4    S    
O6    Zn2   S    
C18   C19   D    
C29   C30   S    
C2    C28   A    
C30   C31   S    
C8    O9    S    
O9    C29   S    
C20   H7    S    
C11   C15   A    
C28   H16   S    
C3    C26   A    
C20   N1    D    
O5    Zn1   S    
C16   C17   D    
C24   C28   A    
C4    C5    A    
C31   H23   S    
C19   H6    S    
