data_mof_unit_21923.cif
_audit_creation_date              2012-12-10T16:57:07-0500
_audit_creation_method            fapswitch 2.2
_symmetry_space_group_name_H-M    P1
_symmetry_Int_Tables_number       1
_space_group_crystal_system       triclinic
_cell_length_a                    7.759996
_cell_length_b                    8.672624
_cell_length_c                    16.733562
_cell_angle_alpha                 92.71407
_cell_angle_beta                  79.80311
_cell_angle_gamma                 93.913661
_cell_volume                      1105.0751206

loop_
_atom_site_label
_atom_site_type_symbol
_atom_type_description
_atom_site_fract_x
_atom_site_fract_y
_atom_site_fract_z
_atom_type_partial_charge
C1    C     C_R   0.545645 0.794365 0.499327 0.981632
C2    C     C_R   0.454533 0.205364 0.500806 0.833766
C3    C     C_2   0.570348 0.954872 0.488796 -0.250987
C4    C     C_2   0.431681 0.045182 0.513942 -0.293548
C5    C     C_R   0.475042 0.493334 0.653941 0.866502
C6    C     C_R   0.523702 0.496971 0.345674 0.938133
C7    C     C_R   0.451369 0.452122 0.738822 -0.134941
C8    C     C_R   0.538310 0.485176 0.257735 -0.147833
C9    C     C_R   0.504927 0.306905 0.757883 -0.057639
C10   C     C_R   0.451003 0.588554 0.218038 -0.088224
C11   C     C_R   0.465394 0.259592 0.837395 -0.118265
C12   C     C_R   0.455537 0.567426 0.135057 -0.183256
C13   C     C_R   0.381482 0.356424 0.898258 0.108993
C14   C     C_R   0.555179 0.454738 0.090710 0.103493
C15   C     C_R   0.311723 0.493637 0.879834 0.195557
C16   C     C_R   0.655317 0.359727 0.127552 0.235049
C17   C     C_R   0.353779 0.545821 0.799895 0.137400
C18   C     C_R   0.635606 0.366200 0.212927 0.161860
C19   C     C_2   0.417326 0.338717 0.979923 -0.156945
C20   C     C_2   0.545674 0.435197 0.004834 -0.137966
H1    H     H_    0.384062 0.641552 0.103821 0.181530
H2    H     H_    0.518298 0.155004 0.853642 0.165283
H3    H     H_    0.023533 0.380255 0.439246 0.218839
H4    H     H_    0.976602 0.619994 0.560656 0.206258
N1    N     N_2   0.953500 0.457650 0.478520 -0.132745
N2    N     N_2   0.046500 0.542350 0.521480 -0.145891
O1    O     O_R   0.388470 0.738640 0.505270 -0.601410
O2    O     O_R   0.611530 0.261360 0.494730 -0.595508
O3    O     O_R   0.679650 0.711510 0.491500 -0.614171
O4    O     O_R   0.320350 0.288490 0.508500 -0.592413
O5    O     O_R   0.337210 0.515200 0.623500 -0.598740
O6    O     O_R   0.662790 0.484800 0.376500 -0.602683
O7    O     O_R   0.628380 0.488060 0.609730 -0.583236
O8    O     O_R   0.371620 0.511940 0.390270 -0.621786
Zn1   Zn    Zn3+2 0.305580 0.518120 0.509190 1.022059
Zn2   Zn    Zn3+2 0.694420 0.481880 0.490810 1.030503
C21   C     C_2   0.612763 0.204579 0.698622 0.922836
O9    O     O_2   0.563849 0.068753 0.690262 -0.622497
O10   O     O_R   0.777169 0.259026 0.658099 -0.742637
H5    H     H_    0.840100 0.176647 0.621386 0.385966
C22   C     C_2   0.355607 0.720507 0.260552 0.958948
O11   O     O_2   0.223595 0.759729 0.238374 -0.614204
O12   O     O_R   0.419457 0.803583 0.323861 -0.775579
H6    H     H_    0.344023 0.891648 0.346951 0.347310
C23   C     C_3   0.703818 0.238352 0.255337 -0.789938
H7    H     H_    0.630241 0.222131 0.317702 0.230460
H8    H     H_    0.684407 0.124911 0.223449 0.267930
H9    H     H_    0.845314 0.263267 0.257302 0.247821
C24   C     C_3   0.304520 0.704838 0.781863 -0.767236
H10   H     H_    0.382597 0.747676 0.724553 0.278525
H11   H     H_    0.162717 0.701845 0.778642 0.238438
H12   H     H_    0.333740 0.791089 0.829497 0.254065
C25   C     C_2   0.670169 0.538598 0.949517 0.912360
O13   O     O_2   0.718018 0.666255 0.974719 -0.628659
O14   O     O_R   0.738735 0.488188 0.870439 -0.796346
H13   H     H_    0.822280 0.568772 0.839682 0.345288
C26   C     C_2   0.301756 0.222625 0.031210 0.915054
O15   O     O_2   0.309439 0.210552 0.102970 -0.619923
O16   O     O_R   0.183695 0.124390 0.995653 -0.797605
H14   H     H_    0.115489 0.047379 0.034918 0.355741
C27   C     C_3   0.204145 0.588856 0.946374 -0.856808
H15   H     H_    0.282700 0.694283 0.961842 0.248442
H16   H     H_    0.083967 0.622611 0.926013 0.274559
H17   H     H_    0.160080 0.523261 0.002458 0.238361
C28   C     C_3   0.775007 0.249655 0.075052 -0.828902
H18   H     H_    0.856544 0.312476 0.023974 0.249120
H19   H     H_    0.868396 0.200137 0.108273 0.253545
H20   H     H_    0.695407 0.154085 0.050046 0.259871
C29   C     C_2   0.737339 0.001693 0.433874 0.958655
O17   O     O_2   0.856822 0.072457 0.461237 -0.571161
O18   O     O_R   0.762513 0.950529 0.352445 -0.778050
H21   H     H_    0.883448 0.982845 0.321927 0.357492
C30   C     C_2   0.261583 0.994209 0.565535 0.996957
O19   O     O_2   0.123270 0.018528 0.544518 -0.589688
O20   O     O_R   0.260025 0.920838 0.638045 -0.782169
H22   H     H_    0.136651 0.893122 0.667323 0.334989

loop_
_geom_bond_atom_site_label_1
_geom_bond_atom_site_label_2
_ccdc_geom_bond_type
C5    O5    A    
C27   H17   S    
C2    C4    S    
O20   H22   S    
O7    Zn2   S    
C21   O9    D    
C14   C16   A    
C22   O12   S    
C30   O19   D    
C11   H2    S    
C6    O6    A    
C19   C20   D    
C13   C15   A    
C2    O4    A    
C24   H12   S    
C1    O1    A    
C7    C9    A    
C28   H20   S    
O14   H13   S    
C25   O14   S    
C4    C30   S    
O16   H14   S    
C21   O10   S    
C16   C18   A    
C27   H16   S    
C23   H7    S    
C19   C26   S    
C10   C22   S    
C11   C13   A    
O3    Zn2   S    
C9    C11   A    
C26   O15   D    
C27   H15   S    
C10   C12   A    
O4    Zn1   S    
O6    Zn2   S    
C9    C21   S    
C3    C29   S    
C12   C14   A    
C24   H10   S    
C1    C3    S    
C23   H8    S    
O12   H6    S    
C15   C27   S    
C29   O17   D    
O5    Zn1   S    
C26   O16   S    
C29   O18   S    
C28   H18   S    
C30   O20   S    
N1    Zn2   S    
C3    C4    D    
C18   C23   S    
C14   C20   S    
N2    Zn1   S    
O18   H21   S    
H3    N1    S    
O2    Zn2   S    
C15   C17   A    
O8    Zn1   S    
C22   O11   D    
C23   H9    S    
C17   C24   S    
O10   H5    S    
C5    C7    S    
C13   C19   S    
C2    O2    A    
C6    C8    S    
C16   C28   S    
C1    O3    A    
C28   H19   S    
N1    N2    D    
C25   O13   D    
C12   H1    S    
C8    C10   A    
C8    C18   A    
C6    O8    A    
O1    Zn1   S    
H4    N2    S    
C20   C25   S    
C24   H11   S    
C7    C17   A    
C5    O7    A    
