data_mof_unit_59842.cif
_audit_creation_date              2012-10-26T19:52:23-0400
_audit_creation_method            fapswitch 2.2
_symmetry_space_group_name_H-M    P1
_symmetry_Int_Tables_number       1
_space_group_crystal_system       triclinic
_cell_length_a                    9.557632
_cell_length_b                    10.840832
_cell_length_c                    13.473078
_cell_angle_alpha                 90.555253
_cell_angle_beta                  73.31726
_cell_angle_gamma                 90.631962
_cell_volume                      1337.11115149

loop_
_atom_site_label
_atom_site_type_symbol
_atom_type_description
_atom_site_fract_x
_atom_site_fract_y
_atom_site_fract_z
_atom_type_partial_charge
C1    C     C_R   0.499666 0.737535 0.502734 0.554929
C2    C     C_R   0.383603 0.452518 0.810100 -0.000720
C3    C     C_R   0.367418 0.934287 0.525267 0.022488
C4    C     C_R   0.423709 0.485119 0.698695 0.542718
C5    C     C_R   0.496734 0.870420 0.514452 0.007653
C6    C     C_R   0.621917 0.936986 0.518684 -0.160511
C7    C     C_R   0.621189 0.065688 0.518006 -0.161137
C8    C     C_R   0.495384 0.128862 0.512899 0.007871
C9    C     C_R   0.366454 0.061303 0.524544 0.023605
C10   C     C_3   0.258604 0.062771 0.463382 -0.278245
C11   C     C_3   0.259504 0.923052 0.464767 -0.261611
C12   C     C_R   0.444897 0.442260 0.974696 0.035790
C13   C     C_R   0.960793 0.466066 0.413269 0.160545
C14   C     C_R   0.893641 0.547833 0.580964 -0.029470
C15   C     C_R   0.042194 0.547176 0.581254 -0.021672
C16   C     C_R   0.498827 0.262161 0.501958 0.544435
C17   C     C_R   0.108097 0.466178 0.413212 0.160879
C18   C     C_3   0.132580 0.344189 0.359696 -0.281930
C19   C     C_3   0.974366 0.344966 0.358586 -0.275727
C20   C     C_R   0.577578 0.501032 0.300343 0.547515
C21   C     C_R   0.806911 0.497947 0.022150 -0.137551
C22   C     C_R   0.621367 0.496894 0.187030 -0.001407
C23   C     C_R   0.490456 0.440203 0.864881 0.029863
C24   C     C_R   0.235772 0.434621 0.863959 -0.136652
C25   C     C_R   0.194081 0.412581 0.969971 -0.145069
C26   C     C_R   0.295368 0.422289 0.025711 -0.119372
C27   C     C_R   0.551517 0.461663 0.028513 0.030250
C28   C     C_R   0.701347 0.468869 0.972058 0.054450
C29   C     C_R   0.744754 0.443293 0.866542 -0.152508
C30   C     C_R   0.640795 0.423384 0.814708 -0.129673
C31   C     C_R   0.513990 0.478432 0.136174 -0.136400
C32   C     C_R   0.767993 0.509284 0.129423 -0.140738
Cu1   Cu    Cu3+1 0.359330 0.500020 0.500010 0.934729
Cu2   Cu    Cu3+1 0.640670 0.499980 0.499990 0.926699
H1    H     H_    0.852185 0.527802 0.167042 0.125365
H2    H     H_    0.155068 0.272477 0.410289 0.144524
H3    H     H_    0.961830 0.353460 0.279423 0.122758
H4    H     H_    0.859551 0.437205 0.824033 0.096011
H5    H     H_    0.907024 0.271157 0.406765 0.146197
H6    H     H_    0.919208 0.512321 0.977614 0.103845
H7    H     H_    0.401603 0.478467 0.182051 0.117210
H8    H     H_    0.152434 0.435446 0.823888 0.120123
H9    H     H_    0.253884 0.409110 0.108016 0.091040
H10   H     H_    0.082129 0.390056 0.010486 0.113119
H11   H     H_    0.681533 0.390066 0.736232 0.154842
H12   H     H_    0.721183 0.114796 0.516094 0.128309
H13   H     H_    0.722306 0.890369 0.516809 0.135583
H14   H     H_    0.151995 0.101256 0.509045 0.131618
H15   H     H_    0.305654 0.101100 0.384404 0.134072
H16   H     H_    0.154202 0.881985 0.511164 0.139816
H17   H     H_    0.306571 0.880908 0.386848 0.144918
H18   H     H_    0.812412 0.585888 0.646952 0.125096
H19   H     H_    0.071040 0.583701 0.647778 0.117543
H20   H     H_    0.211570 0.348861 0.281477 0.112930
N1    N     N_R   0.852320 0.499070 0.499340 -0.235237
N2    N     N_R   0.148230 0.499110 0.499340 -0.231578
O1    O     O_R   0.381190 0.680360 0.500000 -0.496830
O2    O     O_R   0.618780 0.680320 0.499990 -0.501809
O3    O     O_R   0.323230 0.500000 0.650990 -0.510510
O4    O     O_R   0.560820 0.499960 0.650980 -0.521305
O5    O     O_R   0.381220 0.319680 0.500010 -0.499426
O6    O     O_R   0.618810 0.319640 0.500000 -0.515108
O7    O     O_R   0.439180 0.500040 0.349020 -0.506718
O8    O     O_R   0.676770 0.500000 0.349010 -0.500425

loop_
_geom_bond_atom_site_label_1
_geom_bond_atom_site_label_2
_ccdc_geom_bond_type
C29   H4    S    
C20   O8    A    
C2    C4    S    
C23   C30   A    
C6    C7    A    
C3    C9    A    
C1    O1    A    
C24   H8    S    
C9    C10   S    
C30   H11   S    
C12   C23   A    
C13   C17   A    
Cu1   O7    S    
C14   N1    A    
C15   N2    A    
C4    O4    A    
C20   O7    A    
Cu2   O8    S    
C17   C18   S    
Cu2   N1    S    
C8    C16   S    
C11   H16   S    
C1    O2    A    
Cu2   O4    S    
C17   N2    A    
C29   C30   A    
C21   H6    S    
C22   C32   A    
Cu1   N2    S    
C1    C5    S    
C15   H19   S    
C4    O3    A    
Cu1   O5    S    
C28   C29   A    
C21   C28   A    
C20   C22   S    
C26   H9    S    
Cu1   Cu2   S    
C10   C11   S    
C10   H14   S    
C5    C6    A    
C21   C32   A    
C19   H3    S    
C3    C11   S    
C16   O5    A    
C13   C19   S    
C12   C27   A    
C27   C31   A    
C7    H12   S    
C6    H13   S    
C7    C8    A    
C11   H17   S    
C24   C25   A    
C25   H10   S    
C2    C23   A    
Cu1   O3    S    
C18   C19   S    
C22   C31   A    
C27   C28   A    
Cu2   O2    S    
C18   H20   S    
C19   H5    S    
Cu1   O1    S    
C2    C24   A    
C31   H7    S    
C3    C5    A    
C25   C26   A    
C14   C15   A    
C10   H15   S    
C18   H2    S    
C16   O6    A    
Cu2   O6    S    
C14   H18   S    
C32   H1    S    
C12   C26   A    
C8    C9    A    
C13   N1    A    
