data_mof_unit_64269.cif
_audit_creation_date              2013-03-05T16:13:37-0500
_audit_creation_method            fapswitch 2.2
_symmetry_space_group_name_H-M    P1
_symmetry_Int_Tables_number       1
_space_group_crystal_system       triclinic
_cell_length_a                    19.39513
_cell_length_b                    19.389726
_cell_length_c                    19.410199
_cell_angle_alpha                 84.825145
_cell_angle_beta                  95.367614
_cell_angle_gamma                 90.055152
_cell_volume                      7237.68499698

loop_
_atom_site_label
_atom_site_type_symbol
_atom_site_description
_atom_site_fract_x
_atom_site_fract_y
_atom_site_fract_z
_atom_type_partial_charge
Zn1   Zn    Zn3+2 0.558310 0.558310 0.558290 0.994752
Zn2   Zn    Zn3+2 0.446830 0.436990 0.558720 0.974085
Zn3   Zn    Zn3+2 0.558290 0.446420 0.446420 1.014319
Zn4   Zn    Zn3+2 0.436570 0.558290 0.436570 1.021688
O1    O     O_3   0.500000 0.500000 0.500000 -0.510495
O2    O     O_R   0.340780 0.536140 0.450970 -0.572667
O3    O     O_R   0.655640 0.545460 0.545430 -0.647262
O4    O     O_R   0.467850 0.451260 0.656340 -0.634762
O5    O     O_R   0.535740 0.467130 0.347260 -0.577383
O6    O     O_R   0.467830 0.341070 0.546160 -0.644469
O7    O     O_R   0.450560 0.655630 0.450550 -0.639848
O8    O     O_R   0.545840 0.347670 0.467560 -0.645616
O9    O     O_R   0.535760 0.655640 0.535740 -0.635875
O10   O     O_R   0.545870 0.536170 0.656040 -0.622970
O11   O     O_R   0.450550 0.545430 0.340370 -0.651138
O12   O     O_R   0.347960 0.451240 0.536460 -0.660153
O13   O     O_R   0.655630 0.467150 0.467130 -0.627365
C1    C     C_R   0.311312 0.492171 0.491588 0.827021
C2    C     C_R   0.688276 0.506814 0.508559 0.847965
C3    C     C_R   0.508623 0.492138 0.688933 0.785957
C4    C     C_R   0.491402 0.507716 0.310812 0.888176
C5    C     C_R   0.508219 0.311621 0.508637 0.815629
C6    C     C_R   0.492285 0.688449 0.490839 0.817975
C7    C     C_R   0.494763 0.764013 0.481698 -0.044577
C8    C     C_R   0.556249 0.797756 0.502283 -0.282711
C9    C     C_R   0.560407 0.870034 0.492852 0.520150
C10   C     C_R   0.501420 0.908375 0.464199 0.050141
C11   C     C_R   0.440741 0.874523 0.441672 -0.244702
C12   C     C_R   0.437499 0.802585 0.450014 -0.163599
C13   C     C_R   0.466488 0.124430 0.557510 0.449908
C14   C     C_R   0.465708 0.196956 0.553734 -0.280637
C15   C     C_R   0.557528 0.201712 0.476692 -0.178960
C16   C     C_R   0.558831 0.129804 0.480437 -0.168248
C17   C     C_R   0.513129 0.091110 0.520145 0.023491
C18   C     C_2   0.501179 0.984605 0.461904 0.364287
C19   C     C_2   0.513505 0.014993 0.521619 0.472533
C20   C     C_R   0.510728 0.235790 0.513022 -0.046766
H1    H     H_    0.601270 0.767870 0.524888 0.162841
H2    H     H_    0.429338 0.222893 0.581959 0.169154
H3    H     H_    0.593019 0.230531 0.445331 0.181665
H4    H     H_    0.395327 0.903970 0.419414 0.183232
H5    H     H_    0.389905 0.777220 0.433101 0.180416
H6    H     H_    0.595301 0.104118 0.452093 0.185946
C21   C     C_R   0.763864 0.502978 0.518203 -0.137382
C22   C     C_R   0.797302 0.442243 0.505271 -0.317535
C23   C     C_R   0.869461 0.436639 0.515072 0.525714
C24   C     C_R   0.908523 0.493724 0.535942 0.030347
C25   C     C_R   0.874714 0.554532 0.551675 0.404908
C26   C     C_R   0.802542 0.558006 0.543015 -0.171267
C27   C     C_R   0.121838 0.521881 0.428749 -0.284341
C28   C     C_R   0.194188 0.525747 0.430895 0.475231
C29   C     C_R   0.202952 0.447458 0.537033 -0.248622
C30   C     C_R   0.131188 0.444053 0.534096 -0.164254
C31   C     C_R   0.090367 0.481682 0.480252 -0.021128
C32   C     C_2   0.984261 0.490352 0.536597 -0.212629
C33   C     C_2   0.014207 0.481176 0.478372 0.507912
C34   C     C_R   0.235191 0.488590 0.486216 -0.057658
H7    H     H_    0.767182 0.398718 0.488353 0.174583
H8    H     H_    0.233220 0.418273 0.579612 0.187428
H9    H     H_    0.089965 0.551399 0.387553 0.157346
H10   H     H_    0.776705 0.604730 0.554119 0.196981
H11   H     H_    0.015675 0.499224 0.584318 0.103177
H12   H     H_    0.107455 0.412123 0.573966 0.163909
C35   C     C_R   0.483371 0.506369 0.234904 -0.154567
C36   C     C_R   0.537181 0.481682 0.199506 0.389906
C37   C     C_R   0.525629 0.475866 0.127426 0.170343
C38   C     C_R   0.460397 0.494448 0.091827 -0.276296
C39   C     C_R   0.406900 0.519630 0.127474 0.287431
C40   C     C_R   0.419279 0.525275 0.198743 -0.312808
C41   C     C_R   0.433222 0.503557 0.857453 -0.047089
C42   C     C_R   0.440467 0.491374 0.789112 -0.256919
C43   C     C_R   0.565074 0.509789 0.808152 0.448532
C44   C     C_R   0.556795 0.522663 0.876409 -0.119494
C45   C     C_R   0.491492 0.518613 0.901542 0.077125
C46   C     C_2   0.449651 0.487951 0.016524 0.581343
C47   C     C_2   0.486432 0.529324 0.974663 -0.145569
C48   C     C_R   0.505779 0.495182 0.763518 -0.124068
H13   H     H_    0.394433 0.481704 0.755335 0.180476
H14   H     H_    0.521238 0.566966 0.997410 0.129980
H15   H     H_    0.381943 0.502701 0.875241 0.207219
H16   H     H_    0.378098 0.543922 0.226444 0.231916
H17   H     H_    0.602017 0.533857 0.910687 0.194473
O14   O     O_3   0.225283 0.565197 0.379669 -0.727926
H18   H     H_    0.189088 0.587271 0.345236 0.343484
O15   O     O_3   0.973305 0.476548 0.416563 -0.712377
H19   H     H_    0.003313 0.463667 0.381055 0.344835
O16   O     O_3   0.909246 0.612384 0.573167 -0.732343
H20   H     H_    0.959838 0.604818 0.576307 0.340986
O17   O     O_3   0.903102 0.376244 0.504244 -0.721925
H21   H     H_    0.868334 0.341595 0.489690 0.338728
O18   O     O_3   0.599888 0.463529 0.236732 -0.707650
H22   H     H_    0.627187 0.434344 0.209881 0.380169
O19   O     O_3   0.631475 0.511220 0.787924 -0.725195
H23   H     H_    0.632826 0.485071 0.746579 0.337399
N1    N     N_R   0.340197 0.540043 0.092476 0.229419
O20   O     O_R   0.334561 0.568246 0.028761 -0.365332
O21   O     O_R   0.285419 0.536934 0.126556 -0.350197
O22   O     O_3   0.408552 0.436055 0.990892 -0.726018
H24   H     H_    0.388470 0.410159 0.030594 0.355693
N2    N     N_R   0.580119 0.451727 0.090125 0.188125
O23   O     O_R   0.637894 0.485724 0.088331 -0.365350
O24   O     O_R   0.570998 0.397538 0.055457 -0.345636
O25   O     O_3   0.522934 0.974553 0.584364 -0.723442
H25   H     H_    0.535422 0.005331 0.621646 0.360330
O26   O     O_3   0.421281 0.085329 0.595614 -0.742313
H26   H     H_    0.392054 0.116729 0.618384 0.342912
O27   O     O_3   0.484343 0.024706 0.399969 -0.781423
H27   H     H_    0.478981 0.993535 0.362059 0.346644
O28   O     O_3   0.620949 0.904272 0.511272 -0.750922
H28   H     H_    0.657013 0.869811 0.530640 0.343543

loop_
_geom_bond_atom_site_label_1
_geom_bond_atom_site_label_2
_geom_bond_distance
_ccdc_geom_bond_type
C21   C26   1.398817 A    
O16   H20   0.987700 S    
O19   H23   0.989515 S    
C12   H5    1.083189 S    
C44   C45   1.398850 A    
N1    O20   1.301263 A    
C47   H14   1.088468 S    
C32   C33   1.343706 D    
C23   O17   1.383016 S    
C22   C23   1.397658 A    
C21   C22   1.398463 A    
C9    C10   1.406721 A    
C27   C31   1.397211 A    
C45   C47   1.465084 S    
C3    C48   1.460392 S    
C19   O25   1.384879 S    
Zn1   O1    1.956092 S    
C11   C12   1.391675 A    
C13   C14   1.401567 A    
C32   H11   1.087087 S    
O8    C5    1.289971 A    
C11   H4    1.083398 S    
O9    C6    1.280145 A    
C37   N2    1.437164 S    
C7    C12   1.400700 A    
C4    C35   1.469620 S    
Zn3   O8    1.941341 S    
O14   H18   0.991910 S    
C39   C40   1.395850 A    
C41   C45   1.399408 A    
O27   H27   0.991648 S    
C41   C42   1.388033 A    
C28   C34   1.416439 A    
Zn2   O12   1.940276 S    
C37   C38   1.414346 A    
C27   C28   1.402083 A    
O2    C1    1.279535 A    
C31   C33   1.474210 S    
C22   H7    1.083737 S    
C39   N1    1.442189 S    
C26   H10   1.083806 S    
C13   C17   1.403602 A    
C41   H15   1.082509 S    
C38   C39   1.410659 A    
C16   H6    1.083495 S    
O10   C3    1.282658 A    
C40   H16   1.083386 S    
C7    C8    1.402266 A    
Zn4   O2    1.946327 S    
O18   H22   0.988732 S    
C43   C44   1.393902 A    
C10   C18   1.474733 S    
C8    C9    1.400132 A    
O15   H19   0.991216 S    
C5    C20   1.465714 S    
C46   O22   1.382039 S    
O6    C5    1.285599 A    
C14   C20   1.405120 A    
C18   C19   1.348639 D    
C46   C47   1.342530 D    
C43   C48   1.417946 A    
Zn3   O5    1.939196 S    
C29   H8    1.083249 S    
C8    H1    1.083603 S    
C1    C34   1.472308 S    
C24   C25   1.420309 A    
C6    C7    1.461188 S    
N2    O24   1.301157 A    
C16   C17   1.401744 A    
C25   O16   1.382606 S    
O4    C3    1.284315 A    
C15   C20   1.400986 A    
Zn4   O7    1.946058 S    
C9    O28   1.382064 S    
C43   O19   1.380601 S    
C25   C26   1.395096 A    
C36   C37   1.410713 A    
O3    C2    1.287152 A    
C13   O26   1.381833 S    
Zn2   O1    1.954859 S    
Zn1   O9    1.939371 S    
Zn2   O6    1.945828 S    
C28   O14   1.382603 S    
C44   H17   1.084243 S    
C42   C48   1.402784 A    
C2    C21   1.461567 S    
C24   C32   1.469275 S    
C36   O18   1.384086 S    
C23   C24   1.408935 A    
Zn1   O3    1.946328 S    
Zn2   O4    1.944980 S    
Zn4   O1    1.942935 S    
Zn3   O1    1.963718 S    
N1    O21   1.301585 A    
C30   C31   1.400065 A    
C35   C40   1.401256 A    
O26   H26   0.991684 S    
C27   H9    1.083860 S    
C35   C36   1.408846 A    
Zn4   O11   1.949667 S    
O28   H28   0.991691 S    
C15   C16   1.389738 A    
C30   H12   1.083390 S    
O5    C4    1.283102 A    
C33   O15   1.384904 S    
O7    C6    1.281318 A    
N2    O23   1.301193 A    
O13   C2    1.286233 A    
C14   H2    1.083202 S    
Zn3   O13   1.942447 S    
C17   C19   1.473603 S    
C15   H3    1.083009 S    
C18   O27   1.383792 S    
C29   C34   1.404457 A    
O11   C4    1.285907 A    
C38   C46   1.473733 S    
O12   C1    1.286166 A    
O22   H24   0.991815 S    
O25   H25   0.991637 S    
Zn1   O10   1.944467 S    
O17   H21   0.991761 S    
C42   H13   1.083736 S    
C29   C30   1.389457 A    
C10   C11   1.400386 A    
