data_mof_unit_36880.cif
_audit_creation_date              2012-12-11T14:54:41-0500
_audit_creation_method            fapswitch 2.2
_symmetry_space_group_name_H-M    P1
_symmetry_Int_Tables_number       1
_space_group_crystal_system       triclinic
_cell_length_a                    18.921234
_cell_length_b                    10.937898
_cell_length_c                    18.865861
_cell_angle_alpha                 90.112976
_cell_angle_beta                  89.999832
_cell_angle_gamma                 89.452788
_cell_volume                      3904.26515147

loop_
_atom_site_label
_atom_site_type_symbol
_atom_type_description
_atom_site_fract_x
_atom_site_fract_y
_atom_site_fract_z
_atom_type_partial_charge
C1    C     C_R   0.731891 0.380219 0.647254 0.516621
C2    C     C_R   0.299602 0.864659 0.463224 0.286946
C3    C     C_R   0.939871 0.561678 0.480789 -0.135175
C4    C     C_2   0.848366 0.078018 0.075032 0.275465
C5    C     C_2   0.091006 0.921360 0.957108 0.269868
C6    C     C_2   0.348383 0.578007 0.075030 0.275495
C7    C     C_2   0.591010 0.421372 0.957109 0.269922
C8    C     C_2   0.658964 0.763383 0.918462 0.325732
C9    C     C_2   0.379438 0.867913 0.057447 0.361872
C10   C     C_2   0.158912 0.263456 0.918484 0.325640
C11   C     C_2   0.879443 0.367937 0.057443 0.361884
C12   C     C_2   0.625012 0.887505 0.415365 0.382698
C13   C     C_R   0.185601 0.409539 0.532800 0.355586
C14   C     C_2   0.365955 0.794617 0.570922 0.320826
C15   C     C_2   0.125014 0.387507 0.415365 0.382705
C16   C     C_2   0.865976 0.294619 0.570899 0.320618
C17   C     C_2   0.878080 0.021758 0.440106 0.408600
C18   C     C_2   0.175488 0.112752 0.590270 0.325215
C19   C     C_2   0.378090 0.521717 0.440106 0.408715
C20   C     C_2   0.675502 0.612750 0.590271 0.325230
C21   C     C_R   0.799594 0.364640 0.463215 0.286971
C22   C     C_R   0.690042 0.902595 0.458868 0.014688
C23   C     C_R   0.305115 0.860122 0.537367 -0.050006
C24   C     C_R   0.190044 0.402591 0.458869 0.014675
C25   C     C_R   0.805115 0.360097 0.537358 -0.050018
C26   C     C_R   0.756194 0.921397 0.426732 -0.167006
C27   C     C_R   0.256042 0.928512 0.578769 -0.174794
C28   C     C_R   0.256197 0.421386 0.426734 -0.167027
C29   C     C_R   0.270359 0.378711 0.354208 0.515464
C30   C     C_R   0.756043 0.428492 0.578764 -0.174783
C31   C     C_R   0.815430 0.956453 0.469142 -0.024491
C32   C     C_R   0.215399 0.021867 0.546865 -0.040953
C33   C     C_R   0.315435 0.456427 0.469144 -0.024461
C34   C     C_R   0.715406 0.521859 0.546864 -0.040956
C35   C     C_R   0.812424 0.939927 0.541668 0.330260
C36   C     C_R   0.212849 0.028873 0.473458 0.315475
C37   C     C_R   0.312427 0.439908 0.541671 0.330332
C38   C     C_R   0.712854 0.528873 0.473458 0.315470
C39   C     C_R   0.747108 0.926742 0.574182 -0.030015
C40   C     C_R   0.231892 0.880226 0.647257 0.516617
C41   C     C_R   0.253669 0.948542 0.431056 -0.014786
C42   C     C_R   0.247109 0.426735 0.574184 -0.030031
C43   C     C_R   0.753666 0.448536 0.431052 -0.014774
C44   C     C_R   0.565531 0.119283 0.976876 0.413755
C45   C     C_R   0.551089 0.119201 0.048908 0.431358
C46   C     C_R   0.065576 0.619429 0.976882 0.413633
C47   C     C_R   0.051131 0.619340 0.048916 0.431316
C48   C     C_R   0.487411 0.168808 0.072756 0.019039
C49   C     C_R   0.515415 0.164771 0.928303 0.002744
C50   C     C_R   0.987404 0.668803 0.072753 0.019151
C51   C     C_R   0.770358 0.878713 0.354207 0.515466
C52   C     C_R   0.015416 0.664777 0.928302 0.002821
C53   C     C_R   0.438480 0.219575 0.024601 -0.135187
C54   C     C_R   0.452358 0.217252 0.952153 -0.167994
C55   C     C_R   0.938428 0.719442 0.024589 -0.135102
C56   C     C_R   0.952311 0.717124 0.952143 -0.167863
C57   C     C_R   0.532079 0.155604 0.646443 0.554080
C58   C     C_R   0.437889 0.151297 0.361036 0.542811
C59   C     C_R   0.032079 0.655605 0.646443 0.554081
C60   C     C_R   0.937885 0.651297 0.361036 0.542817
C61   C     C_R   0.803275 0.989172 0.965310 -0.110894
C62   C     C_3   0.554899 0.322147 0.441895 -0.239030
C63   C     C_R   0.178673 0.909916 0.052642 -0.070621
C64   C     C_R   0.303277 0.489163 0.965311 -0.110848
C65   C     C_R   0.678676 0.409915 0.052643 -0.070712
C66   C     C_R   0.800862 0.991527 0.038086 -0.049390
C67   C     C_R   0.164617 0.892376 0.981154 -0.050430
C68   C     C_R   0.300865 0.491532 0.038088 -0.049348
C69   C     C_R   0.664620 0.392379 0.981154 -0.050536
C70   C     C_R   0.754166 0.912591 0.073702 0.017370
C71   C     C_R   0.221378 0.854834 0.935979 -0.009820
C72   C     C_R   0.254157 0.412622 0.073710 0.017409
C73   C     C_3   0.574168 0.329270 0.519650 -0.227408
C74   C     C_R   0.721381 0.354840 0.935979 -0.009968
C75   C     C_R   0.706262 0.840899 0.034141 0.445450
C76   C     C_R   0.289795 0.838603 0.964500 0.383532
C77   C     C_R   0.206229 0.340966 0.034154 0.445384
C78   C     C_R   0.789798 0.338621 0.964498 0.383498
C79   C     C_R   0.706382 0.844487 0.959791 0.044497
C80   C     C_R   0.304225 0.870435 0.034279 -0.030723
C81   C     C_R   0.206347 0.344544 0.959804 0.044410
C82   C     C_R   0.804230 0.370452 0.034276 -0.030710
C83   C     C_R   0.753905 0.923539 0.925540 -0.072897
C84   C     C_3   0.054872 0.822182 0.441899 -0.239003
C85   C     C_R   0.247548 0.907957 0.078519 -0.096621
C86   C     C_R   0.253894 0.423551 0.925546 -0.072884
C87   C     C_R   0.747551 0.407962 0.078519 -0.096652
C88   C     C_R   0.740825 0.969534 0.646970 0.569771
C89   C     C_R   0.259746 0.975023 0.355230 0.581949
C90   C     C_R   0.240825 0.469533 0.646971 0.569773
C91   C     C_R   0.759745 0.475020 0.355228 0.581950
C92   C     C_R   0.710754 0.332029 0.860102 0.579283
C93   C     C_R   0.270294 0.378010 0.146961 0.548724
C94   C     C_R   0.210753 0.832028 0.860101 0.579402
C95   C     C_3   0.074145 0.829301 0.519653 -0.227385
C96   C     C_R   0.770296 0.878003 0.146958 0.548721
C97   C     C_R   0.532578 0.157305 0.853663 0.564309
C98   C     C_R   0.466515 0.157199 0.146048 0.599464
C99   C     C_R   0.032576 0.657306 0.853662 0.564331
C100  C     C_R   0.966520 0.657199 0.146050 0.599499
C101  C     C_R   0.742406 0.968387 0.853463 0.546991
C102  C     C_R   0.259005 0.969110 0.146070 0.531778
C103  C     C_R   0.242405 0.468389 0.853465 0.547022
C104  C     C_R   0.759005 0.469112 0.146069 0.531781
C105  C     C_R   0.456748 0.158350 0.435563 -0.009517
C106  C     C_R   0.685600 0.909542 0.532799 0.355597
C107  C     C_R   0.494438 0.166647 0.579585 0.029265
C108  C     C_R   0.956737 0.658354 0.435565 -0.009535
C109  C     C_R   0.994432 0.666648 0.579587 0.029236
C110  C     C_R   0.487656 0.262575 0.464213 0.067007
C111  C     C_R   0.506088 0.266880 0.535278 0.101543
C112  C     C_R   0.987636 0.762586 0.464218 0.066956
C113  C     C_R   0.006071 0.766889 0.535282 0.101509
C114  C     C_R   0.457716 0.066250 0.552468 -0.107278
C115  C     C_R   0.439877 0.061678 0.480788 -0.135218
C116  C     C_R   0.957713 0.566248 0.552469 -0.107247
Cr1   Cr    Cr6+3 0.771950 0.169480 0.750100 1.117200
Cr2   Cr    Cr6+3 0.383410 0.010620 0.249390 1.083983
Cr3   Cr    Cr6+3 0.116590 0.510620 0.750610 1.122584
Cr4   Cr    Cr6+3 0.883410 0.510620 0.249390 1.083967
Cr5   Cr    Cr6+3 0.228050 0.169480 0.249900 1.140736
Cr6   Cr    Cr6+3 0.271950 0.669480 0.750100 1.117283
Cr7   Cr    Cr6+3 0.728050 0.669480 0.249900 1.140745
Cr8   Cr    Cr6+3 0.614930 0.323340 0.749170 1.051055
Cr9   Cr    Cr6+3 0.385070 0.323340 0.250830 1.053402
Cr10  Cr    Cr6+3 0.114930 0.823340 0.749170 1.051053
Cr11  Cr    Cr6+3 0.885070 0.823340 0.250830 1.053426
Cr12  Cr    Cr6+3 0.616590 0.010620 0.750610 1.122612
F1    F     F_    0.661738 0.763061 0.067604 -0.537991
F2    F     F_    0.172498 0.118625 0.443814 -0.567746
F3    F     F_    0.371798 0.453183 0.581660 -0.565797
F4    F     F_    0.672510 0.618638 0.443817 -0.567752
F5    F     F_    0.629204 0.077783 0.954215 -0.632957
F6    F     F_    0.598836 0.071383 0.095156 -0.597124
F7    F     F_    0.129294 0.578093 0.954228 -0.633066
F8    F     F_    0.098930 0.571676 0.095176 -0.597214
F9    F     F_    0.344346 0.796300 0.924008 -0.563272
F10   F     F_    0.161684 0.263168 0.067624 -0.538022
F11   F     F_    0.844351 0.296337 0.924002 -0.563270
F12   F     F_    0.620767 0.907691 0.563755 -0.545269
F13   F     F_    0.342624 0.794433 0.422027 -0.617165
F14   F     F_    0.120768 0.407696 0.563755 -0.545253
F15   F     F_    0.842601 0.294403 0.422010 -0.617173
F16   F     F_    0.871796 0.953207 0.581657 -0.565868
H1    H     H_    0.448625 0.987265 0.585288 0.159518
H2    H     H_    0.121425 0.773102 0.533624 0.120353
H3    H     H_    0.546271 0.413113 0.417170 0.221072
H4    H     H_    0.621443 0.273060 0.533626 0.120341
H5    H     H_    0.590082 0.259551 0.411162 0.128396
H6    H     H_    0.574104 0.424150 0.540561 0.232580
H7    H     H_    0.090060 0.759600 0.411162 0.128416
H8    H     H_    0.074073 0.924178 0.540568 0.232595
H9    H     H_    0.388435 0.256596 0.043011 0.133445
H10   H     H_    0.413983 0.254136 0.915125 0.130274
H11   H     H_    0.888348 0.756357 0.042994 0.133301
H12   H     H_    0.417195 0.979721 0.459496 0.209160
H13   H     H_    0.913901 0.753903 0.915108 0.130205
H14   H     H_    0.831587 0.121554 0.124061 0.104473
H15   H     H_    0.075717 0.922054 0.902411 0.174381
H16   H     H_    0.331612 0.621548 0.124060 0.104504
H17   H     H_    0.575719 0.422052 0.902412 0.174382
H18   H     H_    0.671192 0.741350 0.863699 0.076582
H19   H     H_    0.394212 0.832665 0.109029 0.144159
H20   H     H_    0.171138 0.241391 0.863725 0.076612
H21   H     H_    0.894219 0.332685 0.109024 0.144173
H22   H     H_    0.625115 0.911908 0.359666 0.091363
H23   H     H_    0.948626 0.487260 0.585289 0.159610
H24   H     H_    0.378025 0.807331 0.626535 0.120852
H25   H     H_    0.125117 0.411910 0.359667 0.091364
H26   H     H_    0.877987 0.307182 0.626538 0.120989
H27   H     H_    0.873006 0.077338 0.392855 0.182229
H28   H     H_    0.194990 0.138418 0.642277 0.089686
H29   H     H_    0.373013 0.577326 0.392867 0.182204
H30   H     H_    0.695012 0.638418 0.642275 0.089679
H31   H     H_    0.917191 0.479718 0.459496 0.209195
H32   H     H_    0.840626 0.049302 0.939789 0.244540
H33   H     H_    0.135974 0.936738 0.087887 0.219754
H34   H     H_    0.340642 0.549266 0.939785 0.244533
H35   H     H_    0.635977 0.436732 0.087889 0.219755
H36   H     H_    0.046233 0.913148 0.417178 0.221083
O1    O     O_R   0.787510 0.042610 0.670410 -0.451357
O2    O     O_R   0.454250 0.051070 0.169440 -0.474938
O3    O     O_R   0.045750 0.551070 0.830560 -0.444557
O4    O     O_R   0.954250 0.551070 0.169440 -0.475020
O5    O     O_R   0.681210 0.959150 0.825320 -0.481530
O6    O     O_R   0.318790 0.959150 0.174680 -0.548065
O7    O     O_R   0.181210 0.459150 0.825320 -0.481616
O8    O     O_R   0.818790 0.459150 0.174680 -0.548077
O9    O     O_3   0.667820 0.167810 0.749960 -0.298139
O10   O     O_3   0.332180 0.167810 0.250040 -0.310093
O11   O     O_3   0.167820 0.667810 0.749960 -0.298118
O12   O     O_R   0.212490 0.042610 0.329590 -0.451141
O13   O     O_3   0.832180 0.667810 0.250040 -0.310099
O14   O     O_R   0.765670 0.292090 0.675090 -0.516278
O15   O     O_R   0.234330 0.292090 0.324910 -0.471771
O16   O     O_R   0.265670 0.792090 0.675090 -0.516229
O17   O     O_R   0.734330 0.792090 0.324910 -0.471768
O18   O     O_R   0.670220 0.409020 0.668560 -0.510355
O19   O     O_R   0.329780 0.409020 0.331440 -0.550001
O20   O     O_R   0.170220 0.909020 0.668560 -0.510381
O21   O     O_R   0.829780 0.909020 0.331440 -0.550005
O22   O     O_R   0.556580 0.251590 0.674980 -0.493468
O23   O     O_R   0.287510 0.542610 0.670410 -0.451308
O24   O     O_R   0.443420 0.251590 0.325020 -0.495916
O25   O     O_R   0.056580 0.751590 0.674980 -0.493479
O26   O     O_R   0.943420 0.751590 0.325020 -0.495917
O27   O     O_R   0.545890 0.049670 0.670030 -0.463172
O28   O     O_R   0.454110 0.049670 0.329970 -0.478958
O29   O     O_R   0.045890 0.549670 0.670030 -0.463160
O30   O     O_R   0.954110 0.549670 0.329970 -0.478950
O31   O     O_R   0.681340 0.957860 0.676500 -0.459075
O32   O     O_R   0.318660 0.957860 0.323500 -0.470219
O33   O     O_R   0.181340 0.457860 0.676500 -0.459081
O34   O     O_R   0.712490 0.542610 0.329590 -0.451159
O35   O     O_R   0.818660 0.457860 0.323500 -0.470215
O36   O     O_R   0.787380 0.044010 0.830940 -0.502558
O37   O     O_R   0.212620 0.044010 0.169060 -0.463169
O38   O     O_R   0.287380 0.544010 0.830940 -0.502516
O39   O     O_R   0.712620 0.544010 0.169060 -0.463130
O40   O     O_R   0.765540 0.293390 0.823910 -0.409828
O41   O     O_R   0.234460 0.293390 0.176090 -0.420513
O42   O     O_R   0.265540 0.793390 0.823910 -0.409844
O43   O     O_R   0.734460 0.793390 0.176090 -0.420493
O44   O     O_R   0.670090 0.410410 0.829090 -0.559006
O45   O     O_R   0.556450 0.252890 0.823790 -0.548274
O46   O     O_R   0.329910 0.410410 0.170910 -0.538637
O47   O     O_R   0.170090 0.910410 0.829090 -0.559065
O48   O     O_R   0.829910 0.910410 0.170910 -0.538612
O49   O     O_2   0.907165 0.099394 0.051654 -0.410375
O50   O     O_2   0.044797 0.948509 0.999727 -0.442036
O51   O     O_2   0.407180 0.599368 0.051645 -0.410374
O52   O     O_2   0.544804 0.448544 0.999730 -0.441956
O53   O     O_2   0.605822 0.720224 0.944790 -0.355362
O54   O     O_2   0.426289 0.902785 0.018037 -0.396140
O55   O     O_2   0.105758 0.220343 0.944815 -0.355356
O56   O     O_R   0.443550 0.252890 0.176210 -0.494134
O57   O     O_2   0.926293 0.402813 0.018034 -0.396167
O58   O     O_2   0.570507 0.848220 0.440994 -0.332305
O59   O     O_2   0.407087 0.732640 0.536184 -0.328352
O60   O     O_2   0.070507 0.348228 0.440995 -0.332235
O61   O     O_2   0.907239 0.232935 0.536104 -0.328279
O62   O     O_2   0.935538 0.017600 0.469306 -0.387828
O63   O     O_2   0.119489 0.156128 0.569664 -0.331993
O64   O     O_2   0.435553 0.517514 0.469293 -0.387878
O65   O     O_2   0.619502 0.656126 0.569671 -0.332013
O66   O     O_R   0.056450 0.752890 0.823790 -0.548231
O67   O     O_R   0.943550 0.752890 0.176210 -0.494092
O68   O     O_R   0.545750 0.051070 0.830560 -0.444469

loop_
_geom_bond_atom_site_label_1
_geom_bond_atom_site_label_2
_ccdc_geom_bond_type
C18   O63   D    
C80   C85   A    
C39   C106  A    
C41   C89   S    
C55   C56   A    
Cr9   O24   S    
C53   H9    S    
C62   H5    S    
Cr8   O18   S    
C47   F8    S    
Cr10  O66   S    
Cr4   O8    S    
C97   O45   A    
Cr10  O47   S    
C5    C67   S    
C78   F11   S    
Cr5   O12   S    
C114  C115  A    
Cr2   O6    S    
Cr6   O11   S    
C107  C114  A    
C71   C94   S    
C53   C54   A    
Cr4   O35   S    
C55   H11   S    
C7    H17   S    
C45   F6    S    
C84   C112  S    
C108  C112  A    
Cr10  O25   S    
C14   O59   D    
C64   C68   A    
C28   C29   S    
C105  C110  A    
Cr3   O11   S    
C91   O34   A    
C36   F2    S    
C3    C116  A    
Cr11  O13   S    
Cr12  O31   S    
C12   H22   S    
C71   C76   A    
C115  H12   S    
Cr1   O1    S    
C107  C111  A    
C2    C41   A    
C82   C87   A    
C12   C22   S    
C16   C25   S    
C15   H25   S    
Cr1   O40   S    
Cr2   O32   S    
Cr12  O9    S    
C50   C55   A    
C74   C92   S    
C37   C42   A    
C92   O40   A    
C110  C111  A    
C112  C113  A    
C91   O35   A    
Cr1   O14   S    
C51   O17   A    
C102  O37   A    
C46   F7    S    
C21   C43   A    
C74   C78   A    
C93   O46   A    
C20   H30   S    
Cr8   O44   S    
Cr11  O26   S    
C5    H15   S    
C88   O31   A    
C57   O22   A    
C8    C79   S    
C116  H23   S    
C73   C111  S    
Cr9   O10   S    
Cr12  O27   S    
C23   C27   A    
C89   O32   A    
C83   C101  S    
C49   C54   A    
C99   O3    A    
C81   C86   A    
C109  C116  A    
C109  C113  A    
C35   F16   S    
C20   C34   S    
C16   O61   D    
C59   O25   A    
C1    O18   A    
C12   O58   D    
C27   C32   A    
C58   O24   A    
C26   C31   A    
C6    O51   D    
C63   C85   A    
C43   C91   S    
C36   C41   A    
C61   H32   S    
Cr6   O42   S    
C39   C88   S    
C97   O68   A    
Cr5   O15   S    
C101  O5    A    
C86   C103  S    
C61   C66   A    
C64   C86   A    
Cr8   O9    S    
C14   C23   S    
C105  C115  A    
C13   C42   A    
C65   C87   A    
C47   C50   A    
C7    O52   D    
Cr2   O2    S    
C11   C82   S    
Cr4   O30   S    
C48   C53   A    
C104  O8    A    
C63   C67   A    
Cr3   O29   S    
C30   C34   A    
C73   H4    S    
Cr12  O5    S    
Cr12  O68   S    
Cr8   O45   S    
C92   O44   A    
C103  O7    A    
C77   F10   S    
C21   F15   S    
C61   C83   A    
C60   O30   A    
Cr5   O10   S    
Cr3   O3    S    
C65   H35   S    
C29   O19   A    
C29   O15   A    
Cr7   O43   S    
C15   O60   D    
C44   C49   A    
C33   C37   A    
C37   F3    S    
C13   C24   A    
Cr8   O22   S    
C42   C90   S    
C9    C80   S    
C38   F4    S    
Cr6   O23   S    
C98   O2    A    
Cr1   O36   S    
C70   C96   S    
C19   H29   S    
C104  O39   A    
C7    C69   S    
C72   C77   A    
C16   H26   S    
C56   H13   S    
C64   H34   S    
C84   H36   S    
C78   C82   A    
C106  F12   S    
C62   C110  S    
C58   O28   A    
C27   C40   S    
C68   C72   A    
C96   O43   A    
C10   O55   D    
C98   O56   A    
C69   C74   A    
C62   C73   S    
C102  O6    A    
C13   F14   S    
C99   O66   A    
Cr4   O4    S    
C17   O62   D    
Cr1   O9    S    
C94   O47   A    
C72   C93   S    
C19   O64   D    
C3    H31   S    
C15   C24   S    
C57   C107  S    
C28   C33   A    
Cr3   O33   S    
C62   H3    S    
C19   C33   S    
Cr11  O48   S    
C17   C31   S    
Cr2   O28   S    
C31   C35   A    
Cr11  O67   S    
C14   H24   S    
Cr9   O46   S    
C32   C36   A    
C70   C75   A    
C48   C98   S    
C44   C45   A    
C24   C28   A    
C11   H21   S    
C90   O23   A    
C40   O16   A    
C45   C48   A    
Cr10  O20   S    
C25   C30   A    
C21   C25   A    
C46   C47   A    
C20   O65   D    
C10   H20   S    
Cr6   O38   S    
C9    O54   D    
C34   C38   A    
Cr5   O41   S    
Cr5   O37   S    
Cr7   O17   S    
C76   F9    S    
C76   C80   A    
C114  H1    S    
Cr6   O16   S    
C60   C108  S    
C103  O38   A    
C54   H10   S    
C6    H16   S    
C96   O48   A    
C17   H27   S    
C95   H8    S    
C18   H28   S    
C3    C108  A    
C11   O57   D    
C40   O20   A    
C57   O27   A    
C10   C81   S    
C50   C100  S    
Cr4   O13   S    
C63   H33   S    
C58   C105  S    
C4    O49   D    
C1    O14   A    
C38   C43   A    
Cr9   O56   S    
C22   C106  A    
C26   C51   S    
Cr7   O39   S    
C46   C52   A    
C4    C66   S    
Cr2   O10   S    
C60   O26   A    
C88   O1    A    
C66   C70   A    
C52   C56   A    
C95   C113  S    
C65   C69   A    
C35   C39   A    
C44   F5    S    
C6    C68   S    
C1    C30   S    
C59   C109  S    
C89   O12   A    
C9    H19   S    
C67   C71   A    
Cr11  O21   S    
C100  O67   A    
Cr10  O11   S    
C100  O4    A    
Cr3   O7    S    
C73   H6    S    
C49   C97   S    
C87   C104  S    
C79   C83   A    
C84   H7    S    
C75   F1    S    
C52   C99   S    
C18   C32   S    
Cr9   O19   S    
C77   C81   A    
C22   C26   A    
Cr7   O34   S    
C51   O21   A    
C2    C23   A    
C94   O42   A    
C2    F13   S    
C95   H2    S    
C5    O50   D    
Cr7   O13   S    
C93   O41   A    
C8    H18   S    
C101  O36   A    
C8    O53   D    
C75   C79   A    
C84   C95   S    
C90   O33   A    
C85   C102  S    
C59   O29   A    
C4    H14   S    
