data_mof_unit_30091.cif
_audit_creation_date              2012-10-26T20:16:26-0400
_audit_creation_method            fapswitch 2.2
_symmetry_space_group_name_H-M    P1
_symmetry_Int_Tables_number       1
_space_group_crystal_system       triclinic
_cell_length_a                    10.771443
_cell_length_b                    15.870785
_cell_length_c                    17.17384
_cell_angle_alpha                 93.848812
_cell_angle_beta                  94.54697
_cell_angle_gamma                 93.189787
_cell_volume                      2914.55800835

loop_
_atom_site_label
_atom_site_type_symbol
_atom_type_description
_atom_site_fract_x
_atom_site_fract_y
_atom_site_fract_z
_atom_type_partial_charge
C1    C     C_R   0.502290 0.491288 0.349117 0.548544
C2    C     C_R   0.535953 0.487810 0.103289 0.227998
C3    C     C_R   0.524254 0.412084 0.139880 -0.084614
C4    C     C_R   0.260594 0.499081 0.502354 0.581122
C5    C     C_R   0.512246 0.412923 0.219870 -0.146002
C6    C     C_R   0.497094 0.454785 0.867040 -0.033818
C7    C     C_R   0.486516 0.440689 0.785747 0.233592
C8    C     C_R   0.522309 0.535654 0.905018 0.182202
C9    C     C_R   0.501096 0.511806 0.738985 -0.009769
C10   C     C_R   0.522437 0.593170 0.778587 -0.166292
C11   C     C_R   0.533054 0.604763 0.860027 -0.099207
C12   C     C_R   0.045702 0.419974 0.486636 0.001985
C13   C     C_R   0.426620 0.753312 0.464242 0.310682
C14   C     C_R   0.423582 0.841704 0.471201 -0.098508
C15   C     C_R   0.519852 0.892452 0.510884 0.116080
C16   C     C_R   0.497971 0.508362 0.651767 0.609985
C17   C     C_R   0.620491 0.852964 0.547243 0.189080
C18   C     C_R   0.611459 0.762275 0.553533 0.328661
C19   C     C_R   0.537719 0.152750 0.535674 -0.092137
C20   C     C_R   0.558874 0.240649 0.538550 0.374120
C21   C     C_R   0.451664 0.108689 0.480015 0.177496
C22   C     C_R   0.397168 0.246772 0.437003 0.010565
C23   C     C_R   0.122397 0.496928 0.498503 -0.040125
C24   C     C_R   0.380247 0.157294 0.429515 0.199379
C25   C     C_R   0.733664 0.500357 0.485766 0.570529
C26   C     C_R   0.085787 0.338316 0.500515 0.270308
C27   C     C_R   0.025954 0.267659 0.456773 -0.069647
C28   C     C_R   0.916025 0.275782 0.410251 -0.117276
C29   C     C_R   0.859092 0.352436 0.414098 -0.057795
C30   C     C_R   0.921252 0.424139 0.455838 -0.022098
C31   C     C_R   0.067014 0.573771 0.486781 -0.086833
C32   C     C_R   0.939438 0.576486 0.466903 0.239427
C33   C     C_R   0.864005 0.501000 0.464699 -0.025992
C34   C     C_R   0.513010 0.490123 0.264610 0.006459
C35   C     C_R   0.528126 0.566407 0.228337 -0.102638
C36   C     C_R   0.538950 0.565515 0.148087 -0.065030
Cu1   Cu    Cu3+1 0.493970 0.415220 0.496180 1.120184
Cu2   Cu    Cu3+1 0.506030 0.584780 0.503820 1.175225
H1    H     H_    0.124489 0.631961 0.487299 0.219888
H2    H     H_    0.549758 0.667995 0.888101 0.170664
H3    H     H_    0.531830 0.626808 0.261875 0.207731
H4    H     H_    0.791403 0.390961 0.660165 0.372018
H5    H     H_    0.592063 0.118341 0.576776 0.229736
H6    H     H_    0.772032 0.019502 0.500951 0.361428
H7    H     H_    0.782917 0.617477 0.689654 0.356998
H8    H     H_    0.090338 0.253991 0.690088 0.391183
H9    H     H_    0.148135 0.204882 0.323115 0.330831
H10   H     H_    0.227599 0.599553 0.318874 0.372136
H11   H     H_    0.868565 0.220785 0.377935 0.150846
H12   H     H_    0.502110 0.353215 0.246483 0.155320
H13   H     H_    0.937886 0.711633 0.305682 0.394137
H14   H     H_    0.296141 0.245281 0.781664 0.379821
H15   H     H_    0.522012 0.352011 0.105728 0.155595
H16   H     H_    0.549113 0.625164 0.121449 0.166958
H17   H     H_    0.339987 0.283984 0.399653 0.148553
H18   H     H_    0.349788 0.871976 0.439244 0.229980
H19   H     H_    0.057351 0.204952 0.464696 0.192072
H20   H     H_    0.768428 0.356205 0.382820 0.133302
H21   H     H_    0.482793 0.400927 0.901585 0.193229
H22   H     H_    0.531544 0.649305 0.746639 0.207417
N1    N     N_2   0.539054 0.481527 0.021090 -0.231974
N2    N     N_2   0.529927 0.548848 0.988078 -0.216585
N3    N     N_R   0.515100 0.712130 0.509560 -0.286159
N4    N     N_2   0.520560 0.983215 0.514800 -0.183652
N5    N     N_2   0.439529 0.017226 0.472857 -0.144568
N6    N     N_R   0.484890 0.287850 0.490450 -0.263108
O1    O     O_R   0.494360 0.420530 0.382500 -0.558624
O2    O     O_2   0.805266 0.260745 0.558895 -0.269179
O3    O     O_3   0.705425 0.381138 0.634901 -0.470448
O4    O     O_2   0.786530 0.918826 0.666371 -0.131105
O5    O     O_2   0.869120 0.884324 0.540447 -0.170225
O6    O     O_3   0.754488 0.019555 0.556733 -0.477708
O7    O     O_2   0.851608 0.749057 0.611490 -0.169217
O8    O     O_2   0.694522 0.767218 0.704170 -0.276572
O9    O     O_3   0.724592 0.620342 0.642438 -0.507789
O10   O     O_2   0.246850 0.249203 0.580385 -0.272360
O11   O     O_2   0.222523 0.394923 0.635198 -0.244838
O12   O     O_R   0.504550 0.563720 0.388950 -0.436099
O13   O     O_3   0.045471 0.280768 0.646601 -0.434472
O14   O     O_2   0.332072 0.040527 0.310073 -0.176680
O15   O     O_2   0.164934 0.065857 0.395236 -0.241155
O16   O     O_3   0.214568 0.177619 0.295792 -0.505135
O17   O     O_2   0.200059 0.750646 0.389650 -0.237872
O18   O     O_2   0.375771 0.739436 0.310545 -0.273648
O19   O     O_3   0.286664 0.605648 0.366430 -0.513416
O20   O     O_2   0.754238 0.668386 0.400956 -0.276691
O21   O     O_2   0.946402 0.744606 0.461011 -0.169650
O22   O     O_3   0.954793 0.657649 0.329118 -0.499928
O23   O     O_R   0.314550 0.428390 0.496780 -0.489822
O24   O     O_2   0.443592 0.307037 0.671346 -0.163097
O25   O     O_2   0.540361 0.280289 0.798926 -0.237024
O26   O     O_3   0.306062 0.307877 0.787190 -0.494464
O27   O     O_R   0.324740 0.571580 0.503230 -0.470317
O28   O     O_R   0.495450 0.436280 0.611050 -0.378439
O29   O     O_R   0.505640 0.579470 0.617500 -0.480478
O30   O     O_R   0.675260 0.428420 0.496770 -0.471768
O31   O     O_R   0.685450 0.571610 0.503220 -0.401245
O32   O     O_2   0.698371 0.228059 0.672860 -0.187166
S1    S     S_3+6 0.693158 0.278964 0.602047 0.121043
S2    S     S_3+6 0.760306 0.918326 0.579145 0.146745
S3    S     S_3+6 0.720551 0.723323 0.627404 0.108402
S4    S     S_3+6 0.157357 0.317184 0.592389 0.079139
S5    S     S_3+6 0.270520 0.107430 0.356760 0.056961
S6    S     S_3+6 0.321761 0.709840 0.382749 0.057999
S7    S     S_3+6 0.892967 0.664763 0.416017 0.068262
S8    S     S_3+6 0.447354 0.331999 0.756618 0.098436

loop_
_geom_bond_atom_site_label_1
_geom_bond_atom_site_label_2
_ccdc_geom_bond_type
C14   H18   S    
C35   C36   A    
C12   C23   A    
C26   C27   A    
C29   C30   A    
C20   N6    A    
C28   C29   A    
C19   C21   A    
C9    C16   S    
Cu2   N3    S    
O15   S5    D    
H8    O13   S    
C18   N3    A    
C7    C9    A    
C34   C35   A    
H9    O16   S    
C22   N6    A    
C19   C20   A    
O4    S2    D    
C13   N3    A    
Cu2   O29   S    
O16   S5    S    
O13   S4    S    
C9    C10   A    
C2    N1    S    
C12   C30   A    
O7    S3    D    
C13   C14   A    
Cu1   N6    S    
C1    O12   A    
O25   S8    D    
O11   S4    D    
N1    N2    D    
Cu2   O31   S    
C19   H5    S    
C1    C34   S    
O10   S4    D    
O17   S6    D    
O14   S5    D    
O24   S8    D    
C27   H19   S    
C4    C23   S    
C6    C8    A    
Cu2   O12   S    
H4    O3    S    
Cu1   O30   S    
C12   C26   A    
C18   S3    S    
C23   C31   A    
C10   H22   S    
Cu1   Cu2   S    
C28   H11   S    
C31   C32   A    
O21   S7    D    
C15   N4    S    
C5    C34   A    
C17   C18   A    
C7    S8    S    
C13   S6    S    
C22   H17   S    
O19   S6    S    
O8    S3    D    
O3    S1    S    
C25   O31   A    
C32   S7    S    
O18   S6    D    
C22   C24   A    
C5    H12   S    
H14   O26   S    
O20   S7    D    
C4    O23   A    
O6    S2    S    
C2    C36   A    
C15   C17   A    
C16   O29   A    
C30   C33   A    
C21   N5    S    
C14   C15   A    
C6    H21   S    
O26   S8    S    
C3    C5    A    
H13   O22   S    
C6    C7    A    
O5    S2    D    
C16   O28   A    
Cu1   O23   S    
H7    O9    S    
C24   S5    S    
N4    N5    D    
C2    C3    A    
O2    S1    D    
C32   C33   A    
O22   S7    S    
C3    H15   S    
C20   S1    S    
C8    C11   A    
Cu1   O1    S    
Cu2   O27   S    
C1    O1    A    
C31   H1    S    
Cu1   O28   S    
H6    O6    S    
C11   H2    S    
C35   H3    S    
C17   S2    S    
C36   H16   S    
C10   C11   A    
C4    O27   A    
C29   H20   S    
C25   O30   A    
O32   S1    D    
C21   C24   A    
C8    N2    S    
C27   C28   A    
O9    S3    S    
H10   O19   S    
C26   S4    S    
C25   C33   S    
