data_mof_unit_51297.cif
_audit_creation_date              2012-12-11T17:09:32-0500
_audit_creation_method            fapswitch 2.2
_symmetry_space_group_name_H-M    P1
_symmetry_Int_Tables_number       1
_space_group_crystal_system       triclinic
_cell_length_a                    14.806472
_cell_length_b                    6.929856
_cell_length_c                    13.503337
_cell_angle_alpha                 90.003426
_cell_angle_beta                  99.807044
_cell_angle_gamma                 89.995219
_cell_volume                      1365.28625329

loop_
_atom_site_label
_atom_site_type_symbol
_atom_type_description
_atom_site_fract_x
_atom_site_fract_y
_atom_site_fract_z
_atom_type_partial_charge
O1    O     O_R   0.586930 0.505770 0.416350 -0.542906
O2    O     O_R   0.413070 0.005770 0.583650 -0.542777
O3    O     O_R   0.397900 0.173100 0.389630 -0.533181
O4    O     O_R   0.602100 0.673100 0.610370 -0.534394
C1    C     C_R   0.364316 0.345430 0.362788 0.730063
C2    C     C_R   0.635682 0.845428 0.637213 0.728787
O5    O     O_R   0.585280 0.175870 0.404330 -0.528279
O6    O     O_R   0.414720 0.675870 0.595670 -0.530960
O7    O     O_R   0.601790 0.008380 0.598460 -0.535267
O8    O     O_R   0.398210 0.508380 0.401540 -0.535824
C3    C     C_R   0.614340 0.344777 0.382374 0.715692
C4    C     C_R   0.385557 0.844773 0.617478 0.717182
O9    O     O_3   0.505200 0.340120 0.563670 -0.354027
O10   O     O_3   0.494800 0.840120 0.436330 -0.352232
V1    V     V_3+5 0.499040 0.064180 0.488190 1.513486
V2    V     V_3+5 0.500960 0.564180 0.511810 1.507989
C5    C     C_R   0.320887 0.001081 0.758931 0.085382
C6    C     C_R   0.680092 0.503826 0.242341 0.080119
C7    C     C_R   0.319480 0.852290 0.688389 -0.130373
C8    C     C_R   0.680209 0.352348 0.311178 -0.122436
C9    C     C_R   0.254543 0.704059 0.690197 -0.148191
C10   C     C_R   0.744203 0.202739 0.308197 -0.122347
H1    H     H_    0.251719 0.584016 0.638588 0.115034
H2    H     H_    0.746398 0.081693 0.359037 0.107270
C11   C     C_R   0.188193 0.716325 0.753564 -0.204071
C12   C     C_R   0.810530 0.214770 0.244863 -0.132426
H3    H     H_    0.136551 0.604805 0.749340 0.124976
H4    H     H_    0.861461 0.102023 0.248194 0.113507
C13   C     C_R   0.185121 0.876691 0.817213 -0.148287
C14   C     C_R   0.814950 0.376880 0.182858 -0.121694
C15   C     C_R   0.255754 0.012548 0.821902 0.111429
C16   C     C_R   0.745793 0.515586 0.179802 0.020913
C17   C     C_3   0.252511 0.227498 0.816089 -0.052285
C18   C     C_3   0.752410 0.730040 0.190978 -0.029998
C19   C     C_3   0.324647 0.214713 0.747155 0.150818
C20   C     C_3   0.679125 0.716707 0.258266 0.152892
H5    H     H_    0.184728 0.283454 0.779133 0.080975
H6    H     H_    0.820415 0.777970 0.231460 0.094414
H7    H     H_    0.298543 0.260440 0.668661 0.043338
H8    H     H_    0.704965 0.755775 0.337838 0.043584
C21   C     C_1   0.783395 0.877126 0.782963 -0.173698
C22   C     C_1   0.216596 0.377123 0.217046 -0.170192
C23   C     C_1   0.716109 0.860136 0.716912 -0.159930
C24   C     C_1   0.283885 0.360139 0.283094 -0.155715
O11   O     O_R   0.101720 0.231700 0.098560 -0.537255
O12   O     O_R   0.898280 0.731700 0.901440 -0.537570
O13   O     O_R   0.914700 0.558980 0.095690 -0.549204
O14   O     O_R   0.085300 0.058980 0.904310 -0.548301
C25   C     C_R   0.885375 0.389779 0.117252 0.709994
C26   C     C_R   0.114717 0.889766 0.882851 0.713120
O15   O     O_R   0.102080 0.561590 0.110390 -0.535044
O16   O     O_R   0.897920 0.061590 0.889610 -0.533761
O17   O     O_R   0.086950 0.728940 0.916330 -0.538397
O18   O     O_R   0.913050 0.228940 0.083670 -0.534535
C27   C     C_R   0.136094 0.391914 0.137452 0.721203
C28   C     C_R   0.863896 0.891917 0.862560 0.725739
O19   O     O_3   0.994770 0.394510 0.936380 -0.371368
O20   O     O_3   0.005230 0.894510 0.063620 -0.371653
V3    V     V_3+5 0.000970 0.670520 0.011800 1.411336
V4    V     V_3+5 0.999030 0.170520 0.988200 1.419354
N1    N     N_3   0.286127 0.315045 0.913821 -0.554246
H9    H     H_    0.289558 0.464070 0.903161 0.266802
H10   H     H_    0.236515 0.293372 0.959274 0.228549
N2    N     N_3   0.723034 0.832946 0.096086 -0.567323
H11   H     H_    0.672073 0.754860 0.049525 0.278681
H12   H     H_    0.779160 0.840345 0.058625 0.229571
Br1   Br    Br    0.446122 0.313941 0.801460 -0.451811
Br2   Br    Br    0.559526 0.826191 0.204761 -0.450244

loop_
_geom_bond_atom_site_label_1
_geom_bond_atom_site_label_2
_ccdc_geom_bond_type
O4    V2    S    
O5    C3    A    
C15   C17   S    
C21   C28   S    
C12   C14   A    
O9    V2    S    
O12   V3    S    
C11   H3    S    
O16   V4    S    
C19   H7    S    
O1    C3    A    
C19   Br1   S    
O6    C4    A    
O2    C4    A    
N2    H11   S    
C6    C20   S    
C2    O7    A    
O5    V1    S    
O7    V1    S    
O3    V1    S    
C1    O8    A    
O11   V4    S    
O1    V2    S    
O8    V2    S    
C20   Br2   S    
C14   C16   A    
O2    V1    S    
C21   C23   T    
O11   C27   A    
C22   C24   T    
C17   N1    S    
C2    C23   S    
C4    C7    S    
O14   C26   A    
C17   C19   S    
C14   C25   S    
C8    C10   A    
C18   N2    S    
O14   V4    S    
O20   V4    S    
C6    C8    A    
C13   C26   S    
O9    V1    S    
C9    H1    S    
O17   V3    S    
N1    H9    S    
C5    C15   A    
O10   V2    S    
C3    C8    S    
O19   V3    S    
C26   O17   A    
C6    C16   A    
O13   V3    S    
C25   O18   A    
O3    C1    A    
C20   H8    S    
O15   V3    S    
C18   C20   S    
C11   C13   A    
O13   C25   A    
O4    C2    A    
C10   C12   A    
C10   H2    S    
O12   C28   A    
N2    H12   S    
N1    H10   S    
C9    C11   A    
O10   V1    S    
O19   V4    S    
O18   V4    S    
O6    V2    S    
C5    C19   S    
O15   C27   A    
C5    C7    A    
O20   V3    S    
C13   C15   A    
C12   H4    S    
C1    C24   S    
C17   H5    S    
O16   C28   A    
C16   C18   S    
C7    C9    A    
C22   C27   S    
C18   H6    S    
