data_mof_unit_28686.cif
_audit_creation_date              2013-03-05T16:17:51-0500
_audit_creation_method            fapswitch 2.2
_symmetry_space_group_name_H-M    P1
_symmetry_Int_Tables_number       1
_space_group_crystal_system       triclinic
_cell_length_a                    15.155571
_cell_length_b                    15.803486
_cell_length_c                    9.68631
_cell_angle_alpha                 90.041022
_cell_angle_beta                  89.999272
_cell_angle_gamma                 89.999002
_cell_volume                      2319.97578621

loop_
_atom_site_label
_atom_site_type_symbol
_atom_site_description
_atom_site_fract_x
_atom_site_fract_y
_atom_site_fract_z
_atom_type_partial_charge
O1    O     O_R   0.092530 0.407440 0.616040 -0.584971
O2    O     O_R   0.092530 0.407440 0.383960 -0.604927
O3    O     O_R   0.092530 0.592560 0.383960 -0.584794
O4    O     O_R   0.092530 0.592560 0.616040 -0.604920
O5    O     O_R   0.592530 0.907440 0.616040 -0.585088
O6    O     O_R   0.592530 0.907440 0.383960 -0.604920
O7    O     O_R   0.592530 0.092560 0.383960 -0.585153
O8    O     O_R   0.592530 0.092560 0.616040 -0.604948
C1    C     C_R   0.119220 0.376588 0.500300 1.049118
C2    C     C_R   0.119201 0.623430 0.499707 1.049044
C3    C     C_R   0.619257 0.876611 0.500291 1.049082
C4    C     C_R   0.619256 0.123388 0.499704 1.049062
O9    O     O_R   0.907330 0.407420 0.616040 -0.601948
O10   O     O_R   0.907330 0.407420 0.383960 -0.604304
O11   O     O_R   0.907330 0.592580 0.383960 -0.602164
O12   O     O_R   0.907330 0.592580 0.616040 -0.604185
O13   O     O_R   0.407330 0.907420 0.616040 -0.601761
O14   O     O_R   0.407330 0.907420 0.383960 -0.604353
O15   O     O_R   0.407330 0.092580 0.383960 -0.601694
O16   O     O_R   0.407330 0.092580 0.616040 -0.604453
C5    C     C_R   0.876722 0.380777 0.499837 0.936626
C6    C     C_R   0.876712 0.619210 0.500162 0.936249
C7    C     C_R   0.376701 0.880794 0.499836 0.936968
C8    C     C_R   0.376731 0.119238 0.500163 0.937077
Zn1   Zn    Zn3+2 0.999890 0.500000 0.654960 1.035326
Zn2   Zn    Zn3+2 0.999890 0.500000 0.345040 1.035305
Zn3   Zn    Zn3+2 0.499890 1.000000 0.654960 1.035302
Zn4   Zn    Zn3+2 0.499890 1.000000 0.345040 1.035324
C9    C     C_3   0.810637 0.262356 0.635458 0.081778
C10   C     C_3   0.821280 0.252949 0.374865 0.072541
C11   C     C_3   0.810673 0.737641 0.364547 0.081747
C12   C     C_3   0.821234 0.747004 0.625162 0.072573
C13   C     C_3   0.310734 0.762222 0.635291 0.082038
C14   C     C_3   0.321055 0.753134 0.374652 0.072191
C15   C     C_3   0.310731 0.237798 0.364685 0.082011
C16   C     C_3   0.321145 0.246951 0.625301 0.072257
H1    H     H_    0.875935 0.230258 0.634017 0.212168
H2    H     H_    0.885491 0.222812 0.398133 0.210623
H3    H     H_    0.876006 0.769699 0.366008 0.211835
H4    H     H_    0.885453 0.777134 0.601941 0.210550
H5    H     H_    0.376002 0.730094 0.633579 0.212269
H6    H     H_    0.385284 0.722969 0.397690 0.210826
H7    H     H_    0.375973 0.269965 0.366363 0.212395
H8    H     H_    0.385368 0.277111 0.602211 0.210815
C17   C     C_3   0.238510 0.694924 0.637086 -0.001854
C18   C     C_3   0.247040 0.686523 0.368252 0.019266
C19   C     C_3   0.238477 0.305062 0.362889 -0.001781
C20   C     C_3   0.247129 0.313573 0.631703 0.019211
C21   C     C_3   0.738413 0.195066 0.637230 -0.001237
C22   C     C_3   0.747283 0.186303 0.368466 0.019047
C23   C     C_3   0.738453 0.804947 0.362777 -0.001099
C24   C     C_3   0.747249 0.813657 0.631546 0.019030
H9    H     H_    0.191059 0.711391 0.720013 0.220484
H10   H     H_    0.204751 0.702176 0.278062 0.208373
H11   H     H_    0.191009 0.288534 0.280032 0.220706
H12   H     H_    0.204891 0.297964 0.721977 0.207944
H13   H     H_    0.690875 0.211629 0.719962 0.220882
H14   H     H_    0.705133 0.201817 0.278045 0.207515
H15   H     H_    0.690922 0.788409 0.280018 0.220747
H16   H     H_    0.705068 0.798135 0.721930 0.207659
H17   H     H_    0.705009 0.403382 0.569309 0.237441
H18   H     H_    0.713463 0.396770 0.392732 0.245049
H19   H     H_    0.705038 0.596577 0.430626 0.237477
H20   H     H_    0.713391 0.603240 0.607215 0.245000
H21   H     H_    0.205211 0.903563 0.569588 0.237629
H22   H     H_    0.213105 0.896669 0.392898 0.244784
H23   H     H_    0.205167 0.096575 0.430404 0.237549
H24   H     H_    0.213290 0.103262 0.607064 0.244890
C25   C     C_3   0.714159 0.356300 0.485818 -0.424777
C26   C     C_3   0.714145 0.643683 0.514094 -0.424766
C27   C     C_3   0.214107 0.856364 0.486204 -0.425234
C28   C     C_3   0.214157 0.143682 0.513904 -0.425103
C29   C     C_3   0.806180 0.315501 0.498918 -0.312105
C30   C     C_3   0.806169 0.684479 0.501070 -0.312037
C31   C     C_3   0.306130 0.815537 0.498920 -0.311985
C32   C     C_3   0.306174 0.184510 0.501085 -0.312039
C33   C     C_3   0.184520 0.694874 0.497980 -0.381167
C34   C     C_3   0.184556 0.305163 0.502055 -0.381468
C35   C     C_3   0.684599 0.194817 0.497946 -0.381933
C36   C     C_3   0.684597 0.805173 0.502030 -0.381922
C37   C     C_3   0.138076 0.787693 0.485972 0.411833
C38   C     C_3   0.138131 0.212371 0.514400 0.412140
C39   C     C_3   0.638165 0.287565 0.485109 0.412508
C40   C     C_3   0.638151 0.712415 0.514721 0.412393
C41   C     C_3   0.047199 0.426288 0.081582 -0.221844
C42   C     C_3   0.041228 0.422932 0.919764 -0.197495
C43   C     C_3   0.047176 0.573724 0.918412 -0.221890
C44   C     C_3   0.041192 0.577082 0.080225 -0.197365
C45   C     C_3   0.547134 0.926246 0.081580 -0.221618
C46   C     C_3   0.541289 0.922960 0.919743 -0.197606
C47   C     C_3   0.547143 0.073747 0.918419 -0.221624
C48   C     C_3   0.541304 0.077031 0.080258 -0.197654
H25   H     H_    0.020876 0.366956 0.126145 0.247431
H26   H     H_    0.004146 0.365857 0.887792 0.250274
H27   H     H_    0.020832 0.633047 0.873848 0.247516
H28   H     H_    0.004073 0.634138 0.112171 0.250376
H29   H     H_    0.520712 0.866930 0.126048 0.247444
H30   H     H_    0.504316 0.865853 0.887625 0.250335
H31   H     H_    0.520727 0.133068 0.873954 0.247394
H32   H     H_    0.504348 0.134148 0.112391 0.250305
H33   H     H_    0.117564 0.429569 0.113169 0.223224
H34   H     H_    0.108362 0.415202 0.877899 0.225218
H35   H     H_    0.117546 0.570465 0.886827 0.223127
H36   H     H_    0.108315 0.584852 0.122094 0.225365
H37   H     H_    0.617479 0.929424 0.113292 0.223107
H38   H     H_    0.608478 0.915354 0.877971 0.225008
H39   H     H_    0.617485 0.070557 0.886702 0.223166
H40   H     H_    0.608498 0.084618 0.122022 0.224968
H41   H     H_    0.876376 0.436326 0.111099 0.239426
H42   H     H_    0.867170 0.452925 0.873835 0.235056
H43   H     H_    0.876351 0.563636 0.888906 0.239398
H44   H     H_    0.867152 0.547037 0.126172 0.235028
H45   H     H_    0.376251 0.936529 0.111286 0.239370
H46   H     H_    0.367254 0.952752 0.873979 0.235034
H47   H     H_    0.376264 0.063496 0.888716 0.239367
H48   H     H_    0.367263 0.047272 0.126023 0.235049
C49   C     C_3   0.908085 0.496386 0.080955 -0.196569
C50   C     C_3   0.908084 0.503587 0.919050 -0.196497
C51   C     C_3   0.408086 0.996490 0.080957 -0.196426
C52   C     C_3   0.408086 0.003527 0.919043 -0.196446
N1    N     N_3   0.998760 0.500000 0.138610 -0.114674
N2    N     N_3   0.998760 0.500000 0.861390 -0.114630
N3    N     N_3   0.498760 1.000000 0.138610 -0.114675
N4    N     N_3   0.498760 0.000000 0.861390 -0.114696
N5    N     N_R   0.806197 0.311032 0.764904 0.222621
O17   O     O_R   0.860276 0.291231 0.863918 -0.289236
O18   O     O_R   0.737396 0.356731 0.795038 -0.339565
N6    N     N_R   0.828987 0.292575 0.237874 0.227590
O19   O     O_R   0.892567 0.268475 0.156806 -0.264537
O20   O     O_R   0.762977 0.333648 0.184011 -0.351073
N7    N     N_R   0.806225 0.688980 0.235087 0.222577
O21   O     O_R   0.860302 0.708790 0.136076 -0.289316
O22   O     O_R   0.737415 0.643301 0.204935 -0.339545
N8    N     N_R   0.828901 0.707357 0.762144 0.227604
O23   O     O_R   0.892448 0.731456 0.843270 -0.264500
O24   O     O_R   0.762876 0.666278 0.815949 -0.351189
N9    N     N_R   0.306433 0.810774 0.764864 0.222763
O25   O     O_R   0.360643 0.790919 0.863672 -0.288723
O26   O     O_R   0.237675 0.856465 0.795268 -0.339666
N10   N     N_R   0.328661 0.792882 0.237747 0.227474
O27   O     O_R   0.392241 0.768903 0.156586 -0.265118
O28   O     O_R   0.262599 0.833956 0.184037 -0.351745
N11   N     N_R   0.306443 0.189226 0.235129 0.222787
O29   O     O_R   0.360651 0.209075 0.136316 -0.288711
O30   O     O_R   0.237688 0.143530 0.204736 -0.339798
N12   N     N_R   0.328777 0.207227 0.762220 0.227485
O31   O     O_R   0.392356 0.231230 0.843360 -0.265034
O32   O     O_R   0.262733 0.166142 0.815956 -0.351419
N13   N     N_R   0.277233 0.614374 0.679606 0.239063
O33   O     O_R   0.334616 0.577321 0.600784 -0.230481
O34   O     O_R   0.281173 0.599274 0.811605 -0.246479
N14   N     N_R   0.281362 0.601270 0.337036 0.265167
O35   O     O_R   0.365806 0.586208 0.336297 -0.169816
O36   O     O_R   0.232995 0.552214 0.261114 -0.335645
N15   N     N_R   0.277141 0.385620 0.320257 0.239018
O37   O     O_R   0.334529 0.422736 0.398990 -0.230507
O38   O     O_R   0.280987 0.400711 0.188249 -0.246770
N16   N     N_R   0.281427 0.398837 0.662807 0.265175
O39   O     O_R   0.365867 0.413911 0.663523 -0.169723
O40   O     O_R   0.233043 0.447896 0.738703 -0.335760
N17   N     N_R   0.777117 0.114571 0.680066 0.239155
O41   O     O_R   0.834740 0.077557 0.601619 -0.230443
O42   O     O_R   0.780734 0.099498 0.812096 -0.247227
N18   N     N_R   0.781586 0.101016 0.337629 0.265047
O43   O     O_R   0.866027 0.085938 0.337054 -0.169703
O44   O     O_R   0.733224 0.051921 0.261759 -0.335602
N19   N     N_R   0.777181 0.885436 0.319987 0.239196
O45   O     O_R   0.834809 0.922416 0.398462 -0.230325
O46   O     O_R   0.780829 0.900518 0.187961 -0.247082
N20   N     N_R   0.781573 0.898935 0.662421 0.265046
O47   O     O_R   0.866018 0.914000 0.662975 -0.169878
O48   O     O_R   0.733227 0.948031 0.738320 -0.335505
N21   N     N_R   0.078260 0.806842 0.602388 0.212016
O49   O     O_R   0.048003 0.883446 0.616869 -0.215605
O50   O     O_R   0.041482 0.747269 0.674384 -0.407352
N22   N     N_R   0.085727 0.797931 0.357775 0.207612
O51   O     O_R   0.068474 0.873671 0.312113 -0.221493
O52   O     O_R   0.034581 0.737485 0.315388 -0.416175
N23   N     N_R   0.078089 0.193111 0.398337 0.211952
O53   O     O_R   0.041654 0.252565 0.325644 -0.406995
O54   O     O_R   0.047515 0.116577 0.384618 -0.216014
N24   N     N_R   0.085986 0.202391 0.642863 0.207629
O55   O     O_R   0.033968 0.262522 0.683893 -0.416221
O56   O     O_R   0.069760 0.126830 0.690180 -0.221667
N25   N     N_R   0.577854 0.306967 0.600757 0.211967
O57   O     O_R   0.541753 0.247661 0.674194 -0.406668
O58   O     O_R   0.546897 0.383420 0.613556 -0.216546
N26   N     N_R   0.586252 0.297205 0.356341 0.207607
O59   O     O_R   0.533349 0.237419 0.316771 -0.416099
O60   O     O_R   0.571108 0.372533 0.307176 -0.222011
N27   N     N_R   0.577923 0.693067 0.398937 0.212029
O61   O     O_R   0.541672 0.752433 0.325810 -0.406766
O62   O     O_R   0.547096 0.616587 0.385817 -0.216376
N28   N     N_R   0.586162 0.702671 0.643391 0.207630
O63   O     O_R   0.533569 0.762581 0.683460 -0.416034
O64   O     O_R   0.570628 0.627257 0.691917 -0.221914

loop_
_geom_bond_atom_site_label_1
_geom_bond_atom_site_label_2
_geom_bond_distance
_ccdc_geom_bond_type
C18   N14   1.475319 S    
C43   C44   1.570850 S    
C44   H28   1.106725 S    
N11   O30   1.301429 A    
C9    N5    1.472081 S    
N15   O38   1.302192 A    
C13   C17   1.526312 S    
C23   N19   1.461188 S    
C14   H6    1.106675 S    
C28   C32   1.541669 S    
C15   C19   1.526228 S    
C22   C35   1.579026 S    
H42   C50   1.103108 S    
N17   O41   1.296751 A    
Zn4   N3    1.999619 S    
H41   C49   1.103407 S    
N19   O46   1.302209 A    
C9    C21   1.526228 S    
C41   C42   1.570888 S    
N9    O26   1.301425 A    
O13   C7    1.287954 A    
C19   N15   1.461316 S    
H43   C50   1.103417 S    
O10   C5    1.285679 A    
N18   O43   1.301754 A    
N10   O28   1.301884 A    
O5    C3    1.287516 A    
N13   O34   1.302206 A    
C12   C30   1.572132 S    
H44   C49   1.103133 S    
N25   O58   1.301942 A    
C9    C29   1.568680 S    
N20   O47   1.301784 A    
N11   O29   1.299960 A    
C4    C35   1.501776 S    
C5    C29   1.485685 S    
C21   H13   1.108799 S    
C10   H2    1.106708 S    
C40   N27   1.477847 S    
N26   O60   1.302857 A    
H23   C28   1.107283 S    
C50   N2    1.484466 S    
C20   C34   1.579197 S    
C49   N1    1.484462 S    
C23   C36   1.576580 S    
C12   C24   1.539661 S    
C41   H33   1.110643 S    
C11   N7    1.472090 S    
C16   C32   1.572002 S    
N17   O42   1.302202 A    
O5    Zn3   2.062087 S    
C41   H25   1.106916 S    
C13   C31   1.568826 S    
O11   C6    1.287886 A    
O6    Zn4   2.062477 S    
O16   C8    1.285707 A    
C40   N28   1.482605 S    
C43   H27   1.106896 S    
C38   N23   1.477870 S    
C42   N2    1.489403 S    
C25   C29   1.541720 S    
C14   C18   1.539570 S    
Zn2   N1    1.999619 S    
H20   C26   1.105923 S    
C26   C40   1.583142 S    
Zn1   N2    1.999619 S    
C21   N17   1.461239 S    
H24   C28   1.106035 S    
C14   C31   1.571908 S    
N22   O52   1.296689 A    
N28   O63   1.296845 A    
C10   C22   1.539738 S    
C17   H9    1.108974 S    
H45   C51   1.103362 S    
N6    O19   1.299887 A    
N16   O40   1.295540 A    
O9    Zn1   2.061525 S    
C12   N8    1.472343 S    
N27   O61   1.297962 A    
C44   H36   1.101977 S    
C2    C33   1.501710 S    
C48   H40   1.102277 S    
O4    Zn1   2.062504 S    
N12   O32   1.301870 A    
N21   O50   1.297826 A    
C42   H26   1.106778 S    
O7    C4    1.287470 A    
C10   N6    1.472331 S    
C15   C32   1.568804 S    
C27   C31   1.541640 S    
C22   N18   1.474968 S    
O14   C7    1.285699 A    
C22   H14   1.111583 S    
C37   N22   1.482533 S    
C47   H39   1.110586 S    
O1    C1    1.287400 A    
N10   O27   1.299883 A    
C46   H38   1.102255 S    
C48   N3    1.489357 S    
C13   N9    1.472026 S    
N19   O45   1.296743 A    
C10   C29   1.572178 S    
C8    C32   1.485782 S    
O11   Zn2   2.061483 S    
N8    O24   1.301858 A    
C45   N3    1.483319 S    
H21   C27   1.107270 S    
C20   N16   1.475157 S    
O7    Zn4   2.062127 S    
C21   C35   1.576514 S    
H18   C25   1.105885 S    
C45   H29   1.106883 S    
N26   O59   1.296901 A    
O13   Zn3   2.061525 S    
N27   O62   1.301936 A    
C26   C30   1.541698 S    
C25   C39   1.583193 S    
C11   C23   1.526325 S    
C18   C33   1.579218 S    
C34   C38   1.630959 S    
H22   C27   1.106168 S    
H19   C26   1.107270 S    
C33   C37   1.631222 S    
O8    C4    1.293072 A    
C18   H10   1.111519 S    
C15   N11   1.472032 S    
N28   O64   1.302909 A    
O14   Zn4   2.061902 S    
O2    Zn2   2.062477 S    
H46   C52   1.103143 S    
O10   Zn2   2.061902 S    
C51   C52   1.572364 S    
C41   N1    1.483281 S    
O15   Zn4   2.061483 S    
C43   H35   1.110691 S    
C16   N12   1.472267 S    
N22   O51   1.302865 A    
N14   O36   1.295525 A    
C47   N4    1.483321 S    
O6    C3    1.293044 A    
N5    O17   1.299973 A    
C39   N26   1.482641 S    
C16   H8    1.106677 S    
C23   H15   1.108849 S    
C6    C30   1.485599 S    
C24   N20   1.475039 S    
N7    O21   1.299964 A    
C42   H34   1.102046 S    
C47   C48   1.570941 S    
C15   H7    1.111923 S    
C48   H32   1.106763 S    
C19   H11   1.108889 S    
N12   O31   1.299881 A    
H17   C25   1.107267 S    
O12   Zn1   2.061873 S    
C20   H12   1.111552 S    
O12   C6    1.285672 A    
C46   N4    1.489361 S    
O3    Zn2   2.062127 S    
C7    C31   1.485791 S    
C44   N1    1.489403 S    
N7    O22   1.301423 A    
N6    O20   1.301852 A    
C43   N2    1.483260 S    
Zn3   N4    1.999619 S    
O1    Zn1   2.062087 S    
N8    O23   1.299879 A    
O16   Zn3   2.061873 S    
C51   N3    1.484381 S    
N9    O25   1.299951 A    
C38   N24   1.482590 S    
H48   C51   1.103122 S    
C13   H5    1.111991 S    
C45   H37   1.110609 S    
N18   O44   1.295573 A    
O15   C8    1.287937 A    
O3    C2    1.287487 A    
C24   C36   1.579000 S    
N13   O33   1.296713 A    
O9    C5    1.287920 A    
C36   C40   1.630878 S    
C35   C39   1.630752 S    
N25   O57   1.297981 A    
N16   O39   1.301738 A    
N20   O48   1.295576 A    
C14   N10   1.472276 S    
C11   H3    1.112333 S    
C16   C20   1.539664 S    
C17   N13   1.461239 S    
C1    C34   1.501629 S    
C12   H4    1.106687 S    
C11   C30   1.568706 S    
N24   O56   1.302785 A    
C3    C36   1.501815 S    
N21   O49   1.302019 A    
N23   O53   1.297872 A    
C52   N4    1.484375 S    
N23   O54   1.301951 A    
N14   O35   1.301765 A    
C24   H16   1.111586 S    
H47   C52   1.103372 S    
C9    H1    1.112132 S    
N15   O37   1.296726 A    
N5    O18   1.301427 A    
O8    Zn3   2.062504 S    
C39   N25   1.477769 S    
C17   C33   1.576422 S    
C19   C34   1.576369 S    
C47   H31   1.106897 S    
C45   C46   1.570929 S    
C49   C50   1.572459 S    
O2    C1    1.293076 A    
O4    C2    1.293037 A    
C46   H30   1.106749 S    
C28   C38   1.583016 S    
N24   O55   1.296893 A    
C37   N21   1.477987 S    
C27   C37   1.582899 S    
