data_mof_unit_40820.cif
_audit_creation_date              2012-12-10T18:11:06-0500
_audit_creation_method            fapswitch 2.2
_symmetry_space_group_name_H-M    P1
_symmetry_Int_Tables_number       1
_space_group_crystal_system       triclinic
_cell_length_a                    10.788842
_cell_length_b                    9.547355
_cell_length_c                    10.608141
_cell_angle_alpha                 90.646747
_cell_angle_beta                  89.867042
_cell_angle_gamma                 90.970064
_cell_volume                      1092.4618641

loop_
_atom_site_label
_atom_site_type_symbol
_atom_type_description
_atom_site_fract_x
_atom_site_fract_y
_atom_site_fract_z
_atom_type_partial_charge
C1    C     C_R   0.260462 0.498742 0.502709 0.896137
C2    C     C_3   0.499405 0.497349 0.122908 -0.024161
C3    C     C_3   0.071550 0.583577 0.618518 0.228268
C4    C     C_3   0.068403 0.343131 0.505642 0.172910
C5    C     C_3   0.929858 0.558523 0.629004 0.109552
C6    C     C_3   0.926524 0.346002 0.488472 0.097261
C7    C     C_3   0.077436 0.565037 0.380629 -0.566563
C8    C     C_3   0.122838 0.496384 0.504513 -0.211590
C9    C     C_3   0.878586 0.501634 0.498574 -0.267053
C10   C     C_3   0.935926 0.590714 0.386745 0.714384
C11   C     C_3   0.621829 0.085653 0.541730 -0.259535
C12   C     C_3   0.617074 0.920530 0.554508 -0.239282
C13   C     C_3   0.404754 0.084226 0.590769 0.181918
C14   C     C_3   0.393635 0.918667 0.577676 0.089708
C15   C     C_3   0.474280 0.081286 0.373786 0.023928
C16   C     C_3   0.489591 0.915370 0.371823 0.115685
C17   C     C_R   0.499937 0.499158 0.259816 0.835596
C18   C     C_R   0.739856 0.500854 0.498727 0.930868
C19   C     C_R   0.499046 0.500692 0.740449 0.850799
C20   C     C_3   0.391587 0.550520 0.044317 -0.141026
C21   C     C_3   0.511295 0.366614 0.038647 -0.159444
C22   C     C_3   0.403476 0.420134 0.957494 -0.103630
C23   C     C_3   0.498208 0.501720 0.877720 -0.010163
C24   C     C_3   0.486159 0.632007 0.962472 -0.152710
C25   C     C_3   0.605950 0.448154 0.956571 -0.118191
C26   C     C_3   0.593920 0.578568 0.043186 -0.086234
Cu1   Cu    Cu3+1 0.499860 0.642410 0.500060 0.972708
Cu2   Cu    Cu3+1 0.499860 0.357590 0.500060 0.962943
H1    H     H_    0.325470 0.355292 0.919484 0.206763
H2    H     H_    0.654559 0.135726 0.630869 0.186684
H3    H     H_    0.630718 0.891236 0.654206 0.195593
H4    H     H_    0.693555 0.112948 0.470710 0.220612
H5    H     H_    0.697704 0.877932 0.503417 0.252717
H6    H     H_    0.544540 0.124170 0.306922 0.178425
H7    H     H_    0.577978 0.893776 0.320811 0.154175
H8    H     H_    0.314037 0.127368 0.565751 0.183809
H9    H     H_    0.305418 0.896987 0.527329 0.132894
H10   H     H_    0.303850 0.592270 0.083292 0.176128
H11   H     H_    0.521514 0.257841 0.072593 0.164130
H12   H     H_    0.476187 0.742387 0.934458 0.149348
H13   H     H_    0.693828 0.406674 0.917706 0.174391
H14   H     H_    0.670943 0.645470 0.080036 0.210584
H15   H     H_    0.090493 0.696403 0.599773 0.194215
H16   H     H_    0.110515 0.282625 0.426652 0.177220
H17   H     H_    0.911510 0.476848 0.701083 0.182881
H18   H     H_    0.882236 0.283730 0.564952 0.178997
H19   H     H_    0.128544 0.665125 0.362883 0.218056
H20   H     H_    0.100079 0.495130 0.299352 0.219565
N1    N     N_3   0.500250 0.143650 0.502780 -0.179782
N2    N     N_3   0.500250 0.856350 0.502780 -0.172998
O1    O     O_R   0.317570 0.620260 0.500070 -0.604563
O2    O     O_R   0.317570 0.379740 0.500070 -0.585299
O3    O     O_R   0.499850 0.620240 0.316900 -0.553486
O4    O     O_R   0.499850 0.379760 0.316900 -0.606512
O5    O     O_R   0.682190 0.620260 0.500030 -0.524148
O6    O     O_R   0.682190 0.379740 0.500030 -0.587390
O7    O     O_R   0.499910 0.620280 0.683200 -0.598338
O8    O     O_R   0.499910 0.379720 0.683200 -0.552436
Cl1   Cl    Cl    0.912937 0.775621 0.405746 -0.554925
Cl2   Cl    Cl    0.867201 0.550012 0.236670 -0.537814
N3    N     N_3   0.426472 0.130943 0.721718 -0.516602
H21   H     H_    0.499729 0.078477 0.763221 0.204629
H22   H     H_    0.346721 0.111822 0.775570 0.259212
N4    N     N_3   0.374611 0.857129 0.702132 -0.580160
H23   H     H_    0.457438 0.847406 0.750703 0.231460
H24   H     H_    0.324694 0.762916 0.696295 0.297917
N5    N     N_3   0.351771 0.119470 0.323197 -0.601602
H25   H     H_    0.277986 0.076384 0.373970 0.212661
H26   H     H_    0.338391 0.226476 0.321154 0.275619
N6    N     N_3   0.392122 0.844237 0.296462 -0.526548
H27   H     H_    0.302891 0.854625 0.332386 0.228303
H28   H     H_    0.394000 0.882793 0.204530 0.226322
Cl3   Cl    Cl    0.145727 0.551026 0.766587 -0.570983
Cl4   Cl    Cl    0.104475 0.248492 0.646234 -0.587147
Cl5   Cl    Cl    0.857453 0.711310 0.694217 -0.551039
Cl6   Cl    Cl    0.884043 0.252482 0.346236 -0.544623

loop_
_geom_bond_atom_site_label_1
_geom_bond_atom_site_label_2
_ccdc_geom_bond_type
C7    C10   S    
C22   H1    S    
C1    C8    S    
C10   Cl2   S    
C4    C8    S    
C6    C9    S    
Cu2   O6    S    
C7    C8    S    
C19   O7    A    
C3    H15   S    
C24   C26   S    
C16   H7    S    
Cu1   O5    S    
C15   C16   S    
N3    H22   S    
C20   C24   S    
C11   H2    S    
C23   C24   S    
N6    H27   S    
C9    C10   S    
C15   H6    S    
C4    Cl4   S    
Cu1   N2    S    
C18   O6    A    
C23   C25   S    
C15   N5    S    
C21   C22   S    
C2    C17   S    
Cu1   O1    S    
C19   O8    A    
C2    C20   S    
N5    H25   S    
C16   N6    S    
C13   H8    S    
C4    C6    S    
C3    C8    S    
Cu1   O7    S    
C25   H13   S    
Cu2   O4    S    
C4    H16   S    
C25   C26   S    
C5    H17   S    
N5    H26   S    
C7    H19   S    
C5    Cl5   S    
C19   C23   S    
C5    C9    S    
C11   N1    S    
C20   H10   S    
Cu2   N1    S    
C21   H11   S    
C14   N4    S    
C2    C21   S    
C2    C26   S    
C1    O1    A    
C18   O5    A    
C13   N1    S    
C20   C22   S    
C11   H4    S    
C12   H3    S    
C17   O3    A    
C26   H14   S    
C21   C25   S    
C6    H18   S    
C16   N2    S    
C3    C5    S    
C12   N2    S    
C11   C12   S    
Cu1   O3    S    
C6    Cl6   S    
Cu2   O8    S    
C7    H20   S    
C10   Cl1   S    
N4    H23   S    
C14   H9    S    
Cu2   O2    S    
C14   N2    S    
C24   H12   S    
C15   N1    S    
N3    H21   S    
C3    Cl3   S    
C1    O2    A    
C9    C18   S    
C13   N3    S    
Cu1   Cu2   S    
C22   C23   S    
N6    H28   S    
C12   H5    S    
C13   C14   S    
C17   O4    A    
N4    H24   S    
