data_mof_unit_26612.cif
_audit_creation_date              2012-12-11T15:45:06-0500
_audit_creation_method            fapswitch 2.2
_symmetry_space_group_name_H-M    P1
_symmetry_Int_Tables_number       1
_space_group_crystal_system       triclinic
_cell_length_a                    6.925498
_cell_length_b                    16.817337
_cell_length_c                    17.029747
_cell_angle_alpha                 100.499357
_cell_angle_beta                  90.832425
_cell_angle_gamma                 89.26313
_cell_volume                      1949.90829234

loop_
_atom_site_label
_atom_site_type_symbol
_atom_type_description
_atom_site_fract_x
_atom_site_fract_y
_atom_site_fract_z
_atom_type_partial_charge
O1    O     O_R   0.494370 0.415690 0.413450 -0.553070
O2    O     O_R   0.819420 0.429360 0.578420 -0.521355
O3    O     O_R   0.994280 0.584310 0.586550 -0.545556
C1    C     C_R   0.654145 0.415160 0.606588 0.742032
O4    O     O_R   0.823790 0.406230 0.413570 -0.509734
O5    O     O_R   0.998670 0.561000 0.420530 -0.534564
C2    C     C_R   0.654941 0.382047 0.385888 0.732873
O6    O     O_R   0.489970 0.439000 0.579470 -0.532298
O7    O     O_3   0.662300 0.550810 0.502470 -0.384502
V1    V     V_3+5 0.935380 0.490570 0.499540 1.500023
O8    O     O_R   0.328650 0.570640 0.421580 -0.538821
C3    C     C_R   0.156989 0.585475 0.394142 0.797975
O9    O     O_R   0.324290 0.593770 0.586430 -0.531038
C4    C     C_R   0.155305 0.616672 0.615185 0.770882
V2    V     V_3+5 0.435930 0.509430 0.500460 1.452682
O10   O     O_3   0.159140 0.449190 0.497530 -0.363672
C5    C     C_R   0.272343 0.688343 0.750030 0.460467
C6    C     C_R   0.257972 0.753129 0.815247 -0.336911
C7    C     C_R   0.120023 0.815318 0.815460 -0.189204
C8    C     C_R   0.993049 0.812090 0.749478 0.472915
C9    C     C_R   0.007392 0.747196 0.684268 -0.341018
C10   C     C_R   0.145037 0.684931 0.684176 -0.194393
C11   C     C_R   0.132899 0.637150 0.331867 -0.311963
C12   C     C_R   0.130841 0.863054 0.167355 -0.090228
C13   C     C_R   0.316432 0.829441 0.279884 -0.102537
C14   C     C_R   0.279907 0.879985 0.224608 -0.182117
C15   C     C_R   0.019848 0.793689 0.165794 -0.156995
C16   C     C_R   0.058989 0.740751 0.219994 -0.054552
C17   C     C_R   0.206675 0.759461 0.278744 0.001916
C18   C     C_R   0.242191 0.708188 0.335132 0.315549
C19   C     C_R   0.984904 0.619159 0.273022 0.283853
C20   C     C_R   0.955547 0.668576 0.215020 0.366241
C21   C     C_R   0.662451 0.366000 0.671243 -0.145173
C22   C     C_R   0.604940 0.140685 0.834538 -0.153125
C23   C     C_R   0.418480 0.190011 0.729783 -0.152648
C24   C     C_R   0.444805 0.135557 0.781942 -0.213589
C25   C     C_R   0.740801 0.202671 0.834117 0.419549
C26   C     C_R   0.715114 0.257561 0.780175 -0.007605
C27   C     C_R   0.551834 0.251468 0.728390 0.091171
C28   C     C_R   0.526126 0.305657 0.674679 -0.269118
C29   C     C_R   0.821054 0.374651 0.725731 0.451477
C30   C     C_R   0.848585 0.318999 0.777645 -0.257389
C31   C     C_R   0.796585 0.253217 0.305350 0.397846
C32   C     C_R   0.782768 0.187218 0.241293 0.401314
C33   C     C_R   0.620737 0.180281 0.188545 -0.222791
C34   C     C_R   0.468068 0.236232 0.205290 -0.192701
C35   C     C_R   0.479065 0.300185 0.270153 -0.191476
C36   C     C_R   0.644347 0.311007 0.319628 -0.212695
O11   O     O_R   0.774880 0.061150 0.920630 -0.506527
O12   O     O_R   0.440980 0.093710 0.086500 -0.541662
O13   O     O_R   0.266190 0.938890 0.079390 -0.539350
C37   C     C_R   0.609819 0.115260 0.116600 0.725073
O14   O     O_R   0.445420 0.070740 0.921670 -0.548080
O15   O     O_R   0.270660 0.915760 0.913380 -0.550756
C38   C     C_R   0.611226 0.086697 0.894961 0.735748
O16   O     O_R   0.770400 0.084270 0.086640 -0.515442
O17   O     O_3   0.602590 0.949210 0.997500 -0.384218
V3    V     V_3+5 0.329470 0.009420 0.000470 1.454750
O18   O     O_R   0.940650 0.906250 0.913470 -0.533374
C39   C     C_R   0.109647 0.883469 0.884610 0.753533
O19   O     O_R   0.936210 0.929220 0.078300 -0.547998
C40   C     C_R   0.107740 0.913898 0.105095 0.696952
V4    V     V_3+5 0.828930 0.990510 0.999490 1.476843
O20   O     O_3   0.105680 0.050790 0.002500 -0.349605
O21   O     O_3   0.392497 0.622891 0.754790 -0.556906
C41   C     C_3   0.585854 0.644899 0.746788 -0.212323
H1    H     H_    0.637502 0.686434 0.801132 0.115153
H2    H     H_    0.606113 0.671717 0.692404 0.130138
H3    H     H_    0.677141 0.589495 0.739752 0.164818
H4    H     H_    0.907826 0.779777 0.120460 0.155071
H5    H     H_    0.404329 0.298799 0.633351 0.141847
O22   O     O_3   0.956504 0.434254 0.722984 -0.544659
C42   C     C_3   0.978066 0.484166 0.798743 -0.259869
H6    H     H_    0.079452 0.456039 0.837051 0.146852
H7    H     H_    0.837444 0.498901 0.829353 0.115967
H8    H     H_    0.041957 0.542174 0.790484 0.182973
H9    H     H_    0.292818 0.184090 0.690553 0.130222
H10   H     H_    0.976699 0.323435 0.815263 0.170293
H11   H     H_    0.337350 0.089242 0.781714 0.155759
O23   O     O_3   0.899195 0.208977 0.885333 -0.550332
C43   C     C_3   0.849434 0.259924 0.957710 -0.230746
H12   H     H_    0.976729 0.265115 0.998550 0.163084
H13   H     H_    0.729609 0.234424 0.987870 0.113106
H14   H     H_    0.810313 0.321918 0.948279 0.117907
O24   O     O_3   0.966239 0.263539 0.349942 -0.532854
C44   C     C_3   0.944082 0.233108 0.421272 -0.162219
H15   H     H_    0.799253 0.246100 0.448755 0.073045
H16   H     H_    0.052507 0.262312 0.465523 0.151382
H17   H     H_    0.974380 0.167166 0.410706 0.128809
O25   O     O_3   0.932429 0.131106 0.230366 -0.533017
C45   C     C_3   0.877006 0.061815 0.260341 -0.207582
H18   H     H_    0.008806 0.026354 0.269573 0.149357
H19   H     H_    0.782336 0.022537 0.216947 0.127441
H20   H     H_    0.802388 0.076721 0.318760 0.091293
H21   H     H_    0.340779 0.231599 0.167068 0.170279
H22   H     H_    0.351860 0.753878 0.866806 0.145806
H23   H     H_    0.359514 0.342850 0.280144 0.171619
O26   O     O_3   0.874811 0.878090 0.744411 -0.555918
C46   C     C_3   0.680036 0.856422 0.749200 -0.213004
H24   H     H_    0.589328 0.911925 0.754044 0.151936
H25   H     H_    0.653770 0.830191 0.803492 0.129740
H26   H     H_    0.632699 0.814531 0.694352 0.116325
H27   H     H_    0.914309 0.746511 0.632483 0.140968
O27   O     O_3   0.385257 0.727119 0.392936 -0.554980
C47   C     C_3   0.302324 0.773704 0.461808 -0.232802
H28   H     H_    0.240547 0.831584 0.449273 0.129723
H29   H     H_    0.417218 0.788874 0.507992 0.153542
H30   H     H_    0.189742 0.739521 0.487242 0.110732
O28   O     O_3   0.879162 0.548972 0.268321 -0.555624
C48   C     C_3   0.688151 0.569338 0.293081 -0.075568
H31   H     H_    0.605341 0.596195 0.247928 0.158427
H32   H     H_    0.684258 0.610922 0.351956 0.154856
H33   H     H_    0.613051 0.513192 0.299651 0.114550
H34   H     H_    0.432579 0.845082 0.322973 0.147765
O29   O     O_3   0.819941 0.647183 0.154624 -0.550581
C49   C     C_3   0.908659 0.594237 0.091291 -0.243174
H35   H     H_    0.956527 0.536956 0.109904 0.164604
H36   H     H_    0.032594 0.623443 0.067236 0.125178
H37   H     H_    0.801351 0.578425 0.042100 0.154232
H38   H     H_    0.369267 0.932742 0.226496 0.115554

loop_
_geom_bond_atom_site_label_1
_geom_bond_atom_site_label_2
_ccdc_geom_bond_type
C41   H2    S    
O11   V4    S    
C28   H5    S    
C22   C25   A    
C6    H22   S    
C42   H6    S    
O2    C1    A    
C7    C8    A    
C12   C15   A    
C1    O6    A    
C43   H12   S    
O25   C45   S    
O15   C39   A    
O24   C44   S    
C47   H29   S    
C3    C11   S    
C17   C18   A    
C16   C17   A    
C12   C14   A    
C26   C30   A    
O5    C3    A    
C26   C27   A    
C44   H16   S    
C41   H3    S    
V2    O10   S    
O26   C46   S    
C49   H35   S    
C6    C7    A    
C29   C30   A    
O19   V4    S    
C48   H31   S    
C1    C21   S    
O8    V2    S    
C34   H21   S    
C23   C24   A    
O12   C37   A    
O1    V2    S    
C31   C36   A    
C41   H1    S    
O18   C39   A    
O9    C4    A    
V3    O20   S    
C42   H7    S    
O13   C40   A    
O27   C47   S    
C43   H13   S    
O17   V4    S    
O14   C38   A    
C13   C17   A    
C25   O23   S    
C21   C28   A    
O12   V3    S    
C11   C18   A    
C16   C20   A    
O28   C48   S    
C45   H18   S    
O4    C2    A    
C44   H15   S    
O23   C43   S    
C33   C37   S    
C13   C14   A    
O11   C38   A    
C23   H9    S    
C44   H17   S    
C31   O24   S    
C23   C27   A    
C31   C32   A    
C25   C26   A    
C45   H19   S    
C35   C36   A    
O14   V3    S    
O15   V3    S    
C5    C6    A    
C19   O28   S    
O16   V4    S    
O13   V3    S    
C47   H30   S    
O3    C4    A    
C48   H33   S    
C15   H4    S    
C29   O22   S    
C46   H25   S    
C30   H10   S    
O6    V2    S    
O9    V2    S    
C42   H8    S    
O2    V1    S    
C27   C28   A    
C43   H14   S    
C32   O25   S    
C32   C33   A    
O7    V1    S    
C34   C35   A    
C12   C40   S    
O1    C2    A    
C5    O21   S    
C19   C20   A    
C14   H38   S    
O22   C42   S    
C24   H11   S    
O5    V1    S    
O8    C3    A    
C49   H37   S    
C7    C39   S    
C47   H28   S    
O18   V4    S    
C5    C10   A    
C35   H23   S    
C46   H24   S    
C21   C29   A    
C2    C36   S    
C4    C10   S    
O7    V2    S    
O4    V1    S    
O3    V1    S    
V1    O10   S    
C13   H34   S    
C45   H20   S    
O17   V3    S    
C37   O16   A    
C49   H36   S    
C22   C24   A    
C20   O29   S    
O19   C40   A    
C48   H32   S    
V4    O20   S    
C9    H27   S    
C33   C34   A    
C22   C38   S    
C46   H26   S    
C8    O26   S    
C8    C9    A    
O21   C41   S    
C18   O27   S    
C15   C16   A    
C9    C10   A    
O29   C49   S    
C11   C19   A    
