data_mof_unit_67089.cif
_audit_creation_date              2013-03-05T15:58:17-0500
_audit_creation_method            fapswitch 2.2
_symmetry_space_group_name_H-M    P1
_symmetry_Int_Tables_number       1
_space_group_crystal_system       triclinic
_cell_length_a                    8.187018
_cell_length_b                    12.938851
_cell_length_c                    14.302402
_cell_angle_alpha                 93.775627
_cell_angle_beta                  90.537897
_cell_angle_gamma                 97.542695
_cell_volume                      1498.4438691

loop_
_atom_site_label
_atom_site_type_symbol
_atom_site_description
_atom_site_fract_x
_atom_site_fract_y
_atom_site_fract_z
_atom_type_partial_charge
P1    P     P_3+3 0.054400 0.427280 0.286870 0.472842
O1    O     O_2   0.887370 0.460630 0.272300 -0.389615
O2    O     O_3   0.129410 0.451380 0.388510 -0.404531
O3    O     O_3   0.670210 0.653170 0.329170 -0.399259
O4    O     O_2   0.791932 0.591429 0.165921 -0.404070
O5    O     O_3   0.018415 0.292604 0.258662 -0.542624
O6    O     O_3   0.701918 0.776430 0.174156 -0.545296
H1    H     H_    0.767750 0.839046 0.308165 0.168571
C1    C     C_3   0.705709 0.955606 0.220754 -0.974017
H2    H     H_    0.700801 0.012796 0.281936 0.237972
H3    H     H_    0.828346 0.966777 0.188009 0.273598
P2    P     P_3+3 0.668300 0.742890 0.573060 0.485818
P3    P     P_3+3 0.135988 0.840774 0.379197 0.446569
O7    O     O_2   0.845380 0.761330 0.544970 -0.347307
O8    O     O_3   0.088930 0.704860 0.376040 -0.391701
O9    O     O_2   0.001200 0.887100 0.437159 -0.384983
O10   O     O_3   0.664468 0.756077 0.695413 -0.553636
O11   O     O_3   0.103795 0.876914 0.265485 -0.516380
C2    C     C_3   0.159606 0.801548 0.202045 0.384268
H4    H     H_    0.078397 0.725485 0.203577 0.107768
H5    H     H_    0.288904 0.790513 0.218540 0.020259
C3    C     C_3   0.153371 0.836574 0.102687 -0.294327
H6    H     H_    0.022638 0.838033 0.080085 0.189662
C4    C     C_3   0.234187 0.757336 0.661234 0.439077
H7    H     H_    0.328429 0.714661 0.626053 0.098466
H8    H     H_    0.133574 0.764799 0.610442 0.143712
C5    C     C_3   0.316639 0.864574 0.696735 -0.979757
H9    H     H_    0.428734 0.854039 0.736645 0.276852
H10   H     H_    0.347775 0.914413 0.637963 0.238485
H11   H     H_    0.237053 0.904905 0.745077 0.301768
Ba1   Ba    Ba6+2 0.855630 0.555280 0.454520 1.541092
C6    C     C_3   0.984781 0.236092 0.338191 0.354429
H12   H     H_    0.849663 0.225753 0.348036 0.071306
H13   H     H_    0.048469 0.272426 0.403390 0.141947
C7    C     C_3   0.041338 0.129630 0.319399 -0.818250
H14   H     H_    0.995371 0.096041 0.249798 0.265585
H15   H     H_    0.995378 0.076637 0.374016 0.233504
H16   H     H_    0.177535 0.137642 0.316746 0.279069
C8    C     C_3   0.712888 0.669860 0.736549 0.330225
H17   H     H_    0.839289 0.659187 0.715263 0.091376
H18   H     H_    0.626535 0.598128 0.716518 0.106426
C9    C     C_3   0.710023 0.692134 0.843346 -0.434862
H19   H     H_    0.814956 0.753044 0.865206 0.216798
H20   H     H_    0.725102 0.620436 0.879379 0.147293
P4    P     P_3+3 0.135310 0.572810 0.713130 0.442144
O12   O     O_2   0.302330 0.539400 0.727760 -0.385407
O13   O     O_3   0.060300 0.548700 0.611500 -0.401362
O14   O     O_3   0.519500 0.346920 0.670840 -0.386018
O15   O     O_3   0.170768 0.707434 0.738977 -0.586967
P5    P     P_3+3 0.069345 0.160786 0.622848 0.489998
O16   O     O_3   0.614310 0.373510 0.452640 -0.400609
O17   O     O_3   0.100780 0.295230 0.623970 -0.374441
O18   O     O_2   0.197381 0.118226 0.557720 -0.363925
O19   O     O_3   0.136493 0.132437 0.733442 -0.503758
Ba2   Ba    Ba6+2 0.334200 0.444810 0.545490 1.545291
P6    P     P_3+3 0.652796 0.648975 0.207449 0.423480
C10   C     C_3   0.677292 0.845390 0.251201 0.466741
H21   H     H_    0.549804 0.830535 0.277377 0.040601
H22   H     H_    0.612622 0.966530 0.166740 0.293492
O20   O     O_3   0.575400 0.626570 0.547370 -0.404070
C11   C     C_3   0.506763 0.318612 0.261328 0.357996
H23   H     H_    0.380563 0.339927 0.268843 0.090804
H24   H     H_    0.594067 0.382872 0.295067 0.109714
C12   C     C_3   0.555910 0.313299 0.159035 -0.319020
H25   H     H_    0.617834 0.390845 0.141542 0.134041
H26   H     H_    0.642349 0.254956 0.145324 0.195586
P7    P     P_3+3 0.528537 0.241477 0.422461 0.423855
O21   O     O_2   0.344320 0.238700 0.455090 -0.362786
O22   O     O_3   0.515372 0.221844 0.299825 -0.572133
H27   H     H_    0.210354 0.781287 0.053422 0.123016
C13   C     C_3   0.051425 0.184485 0.802549 0.312828
H28   H     H_    0.107562 0.267685 0.813256 0.133748
H29   H     H_    0.918262 0.180606 0.783592 0.020538
C14   C     C_3   0.065768 0.129845 0.893599 -0.357639
H30   H     H_    0.194869 0.146639 0.920431 0.255763
H31   H     H_    0.042813 0.043472 0.877060 0.216142
P8    P     P_3+3 0.534093 0.353527 0.792820 0.471639
C15   C     C_3   0.542485 0.158587 0.758444 0.506570
H32   H     H_    0.660942 0.190768 0.726965 0.012711
O23   O     O_2   0.394275 0.410700 0.833631 -0.371057
O24   O     O_3   0.486832 0.226900 0.827569 -0.498157
H33   H     H_    0.447452 0.139481 0.701661 0.155110
H34   H     H_    0.686147 0.073533 0.846261 0.267223
C16   C     C_3   0.571683 0.059941 0.802620 -1.037061
H35   H     H_    0.589360 0.001065 0.745786 0.247488
H36   H     H_    0.464713 0.030853 0.845510 0.301299
C17   C     C_R   0.981017 0.448017 0.060463 -0.080220
C18   C     C_R   0.179604 0.497587 0.196237 0.284069
C19   C     C_R   0.334943 0.546771 0.226446 -0.526904
C20   C     C_R   0.448304 0.589969 0.163331 0.264301
C21   C     C_R   0.404492 0.591087 0.068984 -0.296272
C22   C     C_R   0.246171 0.548208 0.036151 0.068922
C23   C     C_R   0.133060 0.497611 0.098725 0.011996
H37   H     H_    0.371233 0.547592 0.299479 0.176163
C24   C     C_R   0.051027 0.504823 0.902566 -0.006125
C25   C     C_R   0.937790 0.453788 0.964989 0.052138
C26   C     C_R   0.007265 0.503714 0.804443 0.258453
C27   C     C_R   0.853026 0.453160 0.773862 -0.540896
C28   C     C_R   0.738332 0.411209 0.836983 0.252670
C29   C     C_R   0.780629 0.409879 0.931507 -0.336930
C30   C     C_R   0.203323 0.552799 0.940675 -0.123580
H38   H     H_    0.494796 0.625178 0.021403 0.176589
H39   H     H_    0.691164 0.373202 0.978374 0.180280
H40   H     H_    0.818249 0.450863 0.700490 0.176891
H41   H     H_    0.894797 0.404505 0.104303 0.151485
H42   H     H_    0.291509 0.592247 0.896102 0.158964
C31   C     C_R   0.772302 0.174414 0.530963 -0.532492
C32   C     C_R   0.432902 0.817434 0.467708 -0.542834
C33   C     C_R   0.409469 0.993943 0.432518 -0.153958
C34   C     C_R   0.343400 0.888607 0.429669 0.232198
C35   C     C_R   0.578365 0.849651 0.519563 0.317917
C36   C     C_R   0.644316 0.959539 0.530114 -0.128805
C37   C     C_R   0.559651 0.031326 0.480793 -0.091736
C38   C     C_R   0.624300 0.139733 0.483319 0.245852
C39   C     C_R   0.858040 0.107359 0.578246 0.174449
C40   C     C_R   0.790109 0.002433 0.584910 0.153271
H43   H     H_    0.341105 0.046033 0.397700 0.180632
H44   H     H_    0.824226 0.255736 0.529462 0.172917
H45   H     H_    0.383302 0.735463 0.460639 0.170680
N1    N     N_2   0.553335 0.725328 0.871414 -0.086530
H46   H     H_    0.453283 0.707921 0.824100 0.236625
C41   C     C_3   0.555076 0.819236 0.932661 -0.813224
H47   H     H_    0.425878 0.834577 0.944010 0.254642
H48   H     H_    0.623115 0.887459 0.899587 0.267924
H49   H     H_    0.612502 0.808755 0.002177 0.279915
I1    I     I_    0.347581 0.280160 0.068671 -0.344575
N2    N     N_2   0.951342 0.163040 0.964129 -0.082541
H50   H     H_    0.876412 0.217400 0.943841 0.182145
C42   C     C_3   0.868825 0.079317 0.018850 -0.740077
H51   H     H_    0.759709 0.105059 0.055400 0.246023
H52   H     H_    0.956783 0.058822 0.072319 0.276718
H53   H     H_    0.825392 0.007388 0.972409 0.227248
I2    I     I_    0.904731 0.934508 0.696955 -0.386734
I3    I     I_    0.289252 0.989459 0.096120 -0.415174

loop_
_geom_bond_atom_site_label_1
_geom_bond_atom_site_label_2
_geom_bond_distance
_ccdc_geom_bond_type
O14   P8    1.743267 S    
O14   Ba2   2.805757 S    
O5    C6    1.402442 S    
C5    H10   1.104380 S    
O4    P6    1.543326 D    
C24   C25   1.423046 A    
C4    C5    1.514470 S    
O7    Ba1   2.897406 S    
Ba2   O21   2.897659 S    
C20   C21   1.394484 A    
C33   H43   1.074005 S    
C8    H18   1.110064 S    
P4    O12   1.504044 D    
P5    O19   1.746922 S    
C14   H31   1.117785 S    
P3    O11   1.748610 S    
C3    I3    2.146665 S    
C2    H5    1.111762 S    
P7    C38   1.874671 S    
C4    H8    1.111066 S    
P5    C39   1.866766 S    
C11   O22   1.410332 S    
C39   C40   1.407607 A    
C25   C29   1.402970 A    
P1    Ba1   3.376148 S    
P1    O1    1.503672 D    
O10   C8    1.394942 S    
C19   H37   1.082289 S    
C11   H24   1.104413 S    
O2    Ba2   2.801970 S    
O19   C13   1.401389 S    
C14   N2    1.464924 S    
O12   Ba2   2.835190 S    
P5    O17   1.723726 S    
P4    O15   1.742275 S    
C1    H2    1.112688 S    
C31   H44   1.083541 S    
O16   Ba2   2.885295 S    
C21   C22   1.404942 A    
O17   Ba2   2.830727 S    
C33   C37   1.416485 A    
C42   H53   1.122966 S    
P1    C18   1.869232 S    
P6    C20   1.834404 S    
Ba1   O13   2.801407 S    
Ba2   O20   2.863995 S    
O3    P6    1.742094 S    
C5    H11   1.106851 S    
C32   H45   1.082604 S    
C9    H20   1.110524 S    
O6    P6    1.743848 S    
C36   C37   1.444628 A    
N1    C41   1.448776 S    
C26   C27   1.396007 A    
C8    C9    1.536632 S    
P4    O13   1.568594 S    
P5    O18   1.540139 D    
C14   H30   1.110290 S    
P7    O21   1.579529 D    
C6    C7    1.518275 S    
C2    C3    1.522150 S    
C4    H7    1.111719 S    
C8    H17   1.104783 S    
C13   H29   1.114848 S    
C15   H32   1.115123 S    
O11   C2    1.411093 S    
C40   I2    2.143550 S    
C29   H39   1.082065 S    
P1    O5    1.748264 S    
O1    Ba1   2.834685 S    
C1    H22   1.108684 S    
C7    H14   1.102053 S    
C6    H13   1.109605 S    
Ba1   O20   2.886070 S    
P2    O10   1.748005 S    
C11   C12   1.520581 S    
N2    C42   1.473724 S    
C31   C38   1.391178 A    
P3    C34   1.851992 S    
H1    C10   1.110141 S    
C15   H33   1.112305 S    
H34   C16   1.109051 S    
C17   H41   1.076498 S    
P8    O24   1.739408 S    
C17   C25   1.416588 A    
C7    H16   1.107467 S    
C32   C35   1.398023 A    
O16   P7    1.783293 S    
C16   H35   1.100729 S    
O2    Ba1   2.895912 S    
C1    H3    1.108136 S    
C31   C39   1.389623 A    
C22   C30   1.413658 A    
P2    O7    1.500960 D    
C12   I1    2.111135 S    
P3    O8    1.747683 S    
P2    Ba1   3.406363 S    
C9    H19   1.114290 S    
C21   H38   1.080573 S    
C41   H48   1.115396 S    
N2    H50   1.045011 S    
C19   C20   1.390905 A    
C36   C40   1.448504 A    
C3    H27   1.119487 S    
N1    H46   1.049152 S    
O13   Ba2   2.896666 S    
C37   C38   1.430719 A    
P8    O23   1.541502 D    
P7    O22   1.755906 S    
C4    O15   1.392900 S    
C18   C23   1.442353 A    
C35   C36   1.450710 A    
C7    H15   1.109165 S    
Ba1   O16   2.864661 S    
C13   C14   1.532836 S    
C24   C26   1.443824 A    
O8    Ba1   2.830147 S    
C28   C29   1.394176 A    
Ba1   Ba2   4.550444 S    
C6    H12   1.108145 S    
C2    H4    1.114648 S    
C42   H51   1.116344 S    
C13   H28   1.113843 S    
P4    C26   1.880767 S    
C33   C34   1.396610 A    
C12   H25   1.108257 S    
C15   O24   1.401925 S    
C9    N1    1.456986 S    
C10   H21   1.109355 S    
C41   H49   1.119686 S    
C27   H40   1.082246 S    
C17   C23   1.411375 A    
C22   C23   1.421500 A    
C32   C34   1.384426 A    
P8    C28   1.828220 S    
C1    C10   1.507978 S    
C11   H23   1.108193 S    
O3    Ba1   2.806341 S    
P2    O20   1.612467 S    
C15   C16   1.506294 S    
C18   C19   1.396435 A    
P4    Ba2   3.376594 S    
C27   C28   1.392127 A    
C30   H42   1.069080 S    
P3    O9    1.545838 D    
C5    H9    1.104473 S    
C3    H6    1.118052 S    
C16   H36   1.113049 S    
P1    O2    1.568714 S    
C41   H47   1.112954 S    
O6    C10   1.404611 S    
P2    C35   1.852392 S    
C24   C30   1.405899 A    
C12   H26   1.110175 S    
C42   H52   1.113647 S    
