data_mof_unit_48365.cif
_audit_creation_date              2012-12-10T18:16:26-0500
_audit_creation_method            fapswitch 2.2
_symmetry_space_group_name_H-M    P1
_symmetry_Int_Tables_number       1
_space_group_crystal_system       triclinic
_cell_length_a                    12.60009
_cell_length_b                    13.097171
_cell_length_c                    27.718754
_cell_angle_alpha                 90.942949
_cell_angle_beta                  103.179719
_cell_angle_gamma                 82.231679
_cell_volume                      4412.45061532

loop_
_atom_site_label
_atom_site_type_symbol
_atom_type_description
_atom_site_fract_x
_atom_site_fract_y
_atom_site_fract_z
_atom_type_partial_charge
C1    C     C_R   0.438771 0.691351 0.492025 0.856490
C2    C     C_R   0.468905 0.586475 0.023704 0.061602
C3    C     C_R   0.517437 0.398038 0.025837 0.016493
C4    C     C_R   0.501260 0.500069 0.593861 0.875611
C5    C     C_R   0.492070 0.490921 0.049975 0.068757
C6    C     C_R   0.463549 0.678000 0.051051 -0.192638
C7    C     C_R   0.465073 0.675874 0.101145 -0.161220
C8    C     C_R   0.476378 0.581994 0.126164 -0.006027
C9    C     C_R   0.491937 0.488668 0.101023 -0.097228
C10   C     C_R   0.508672 0.393640 0.127047 -0.063494
C11   C     C_R   0.511281 0.395636 0.178159 0.500987
C12   C     C_R   0.605126 0.486345 0.732134 -0.096695
C13   C     C_R   0.475769 0.579412 0.176385 0.534162
C14   C     C_R   0.392925 0.501967 0.267875 0.264710
C15   C     C_R   0.395597 0.506431 0.318480 -0.286391
C16   C     C_R   0.561191 0.308554 0.504645 0.877166
C17   C     C_R   0.595406 0.481661 0.337363 -0.229545
C18   C     C_R   0.593234 0.476941 0.287098 -0.160564
C19   C     C_R   0.492600 0.487214 0.252395 0.302354
C20   C     C_R   0.457515 0.587372 0.971533 -0.026681
C21   C     C_R   0.496275 0.495848 0.949053 0.033183
C22   C     C_R   0.530071 0.401962 0.976542 0.079567
C23   C     C_R   0.505975 0.501431 0.747604 0.311404
C24   C     C_R   0.407289 0.675010 0.940696 0.185007
C25   C     C_R   0.583393 0.318650 0.904746 -0.143087
C26   C     C_R   0.528706 0.303943 0.051652 -0.292937
C27   C     C_R   0.522774 0.300677 0.101231 0.248237
C28   C     C_R   0.498833 0.499338 0.406158 0.860743
C29   C     C_R   0.576516 0.315052 0.953879 -0.220803
C30   C     C_R   0.703824 0.067344 0.460552 0.225032
C31   C     C_R   0.597451 0.200111 0.498678 -0.089959
C32   C     C_R   0.299352 0.841274 0.495393 -0.186118
C33   C     C_R   0.270931 0.947063 0.497628 -0.148707
C34   C     C_R   0.500317 0.497654 0.898531 -0.056981
C35   C     C_R   0.346029 0.012759 0.492717 -0.172017
C36   C     C_R   0.449721 0.973173 0.483083 0.105842
C37   C     C_R   0.469262 0.868410 0.472418 0.029867
C38   C     C_R   0.533975 0.034574 0.483549 0.008683
C39   C     C_R   0.627624 0.997738 0.463915 0.022454
C40   C     C_R   0.464388 0.588034 0.819806 0.516873
C41   C     C_R   0.637924 0.894447 0.447275 0.173152
C42   C     C_R   0.558327 0.832762 0.451041 -0.238980
C43   C     C_R   0.527298 0.131644 0.504591 -0.238392
C44   C     C_R   0.685880 0.168447 0.477152 -0.237838
C45   C     C_R   0.459579 0.587768 0.869764 -0.066849
C46   C     C_R   0.399999 0.801281 0.484425 -0.099462
C47   C     C_R   0.087946 0.343471 0.432260 -0.313389
C48   C     C_R   0.799766 0.634549 0.556870 0.313791
C49   C     C_R   0.903009 0.668962 0.565169 0.144212
C50   C     C_R   0.983620 0.617094 0.543434 -0.320280
C51   C     C_R   0.961489 0.533117 0.512105 -0.010430
C52   C     C_R   0.546312 0.412096 0.826357 0.501072
C53   C     C_R   0.854227 0.504286 0.502786 0.178742
C54   C     C_R   0.041088 0.478273 0.488934 0.022116
C55   C     C_R   0.011016 0.397889 0.455719 0.197430
C56   C     C_R   0.410646 0.674134 0.890602 -0.180469
C57   C     C_R   0.904640 0.372432 0.446341 -0.308255
C58   C     C_R   0.827858 0.424517 0.469803 -0.189139
C59   C     C_R   0.150376 0.499215 0.497612 -0.055485
C60   C     C_R   0.194146 0.368559 0.442139 0.005666
C61   C     C_R   0.405539 0.515383 0.712653 -0.103237
C62   C     C_R   0.404105 0.515162 0.662420 -0.217537
C63   C     C_R   0.603806 0.485114 0.681844 -0.232149
C64   C     C_3   0.424260 0.168532 0.121547 -0.696018
C65   C     C_3   0.717686 0.835829 0.378149 -0.720130
C66   C     C_3   0.898928 0.052209 0.461912 -0.840351
C67   C     C_R   0.543978 0.408824 0.876514 -0.007310
C68   C     C_3   0.740354 0.669850 0.633433 -0.727751
C69   C     C_3   0.901583 0.852453 0.568059 -0.806018
C70   C     C_3   0.249430 0.420456 0.215352 -0.780212
C71   C     C_3   0.357307 0.860480 0.949273 -0.818200
C72   C     C_R   0.503320 0.500463 0.646722 -0.040068
C73   C     C_R   0.496596 0.496139 0.353311 -0.058623
H1    H     H_    0.328677 0.526178 0.724521 0.141880
H2    H     H_    0.319790 0.094244 0.495207 0.133939
H3    H     H_    0.254920 0.327009 0.424512 0.139407
H4    H     H_    0.880642 0.311518 0.420871 0.151899
H5    H     H_    0.181817 0.556886 0.522946 0.124190
H6    H     H_    0.371101 0.740367 0.867360 0.199763
H7    H     H_    0.061530 0.646354 0.550857 0.149450
H8    H     H_    0.318806 0.518349 0.330445 0.162944
H9    H     H_    0.458827 0.748413 0.120337 0.187770
H10   H     H_    0.463564 0.752337 0.035053 0.187650
H11   H     H_    0.325535 0.526954 0.635940 0.155265
H12   H     H_    0.619316 0.249988 0.888908 0.189590
H13   H     H_    0.680995 0.470547 0.670477 0.158442
H14   H     H_    0.584711 0.146552 0.113328 0.215426
H15   H     H_    0.383865 0.154972 0.082371 0.210064
H16   H     H_    0.369944 0.226749 0.137609 0.249436
H17   H     H_    0.436160 0.095347 0.142957 0.240592
H18   H     H_    0.611379 0.243778 0.973746 0.143052
H19   H     H_    0.807689 0.860548 0.450595 0.258509
H20   H     H_    0.702172 0.913067 0.360010 0.241924
H21   H     H_    0.647763 0.792614 0.362724 0.246951
H22   H     H_    0.793418 0.792633 0.369881 0.234804
H23   H     H_    0.537196 0.230857 0.033418 0.142979
H24   H     H_    0.770153 0.077165 0.399878 0.232291
H25   H     H_    0.959149 0.013861 0.441478 0.247221
H26   H     H_    0.915498 0.014949 0.499004 0.253128
H27   H     H_    0.910655 0.134630 0.466340 0.242740
H28   H     H_    0.192428 0.978109 0.505274 0.143955
H29   H     H_    0.567671 0.755348 0.436905 0.188961
H30   H     H_    0.066274 0.282001 0.406767 0.149312
H31   H     H_    0.691062 0.759371 0.569154 0.228489
H32   H     H_    0.662132 0.685070 0.645942 0.243902
H33   H     H_    0.795774 0.724666 0.652223 0.240942
H34   H     H_    0.674228 0.473240 0.363672 0.170204
H35   H     H_    0.779165 0.589889 0.644448 0.227026
H36   H     H_    0.004151 0.746676 0.617817 0.234223
H37   H     H_    0.916575 0.916790 0.594229 0.249557
H38   H     H_    0.814103 0.865268 0.547621 0.245525
H39   H     H_    0.955488 0.852583 0.541446 0.232498
H40   H     H_    0.747998 0.401107 0.461165 0.204359
H41   H     H_    0.231209 0.566873 0.243704 0.230977
H42   H     H_    0.171856 0.437897 0.186613 0.240567
H43   H     H_    0.232506 0.377992 0.246575 0.238800
H44   H     H_    0.309660 0.371017 0.198585 0.263209
H45   H     H_    0.669742 0.466317 0.274933 0.148358
H46   H     H_    0.256062 0.746651 0.948498 0.238560
H47   H     H_    0.316351 0.913797 0.973079 0.247406
H48   H     H_    0.322355 0.884698 0.910040 0.245162
H49   H     H_    0.446815 0.866476 0.959138 0.250912
H50   H     H_    0.737432 0.223825 0.470523 0.152454
H51   H     H_    0.682955 0.474901 0.759103 0.145982
H52   H     H_    0.464568 0.157718 0.524527 0.156300
H53   H     H_    0.244104 0.790800 0.503556 0.149647
N1    N     N_R   0.506804 0.500861 0.799201 -0.354341
N2    N     N_2   0.290436 0.515610 0.232612 -0.300289
N3    N     N_2   0.338084 0.756281 0.957580 -0.316332
N4    N     N_R   0.492344 0.487300 0.200946 -0.347073
N5    N     N_R   0.222180 0.444690 0.474320 -0.103598
N6    N     N_R   0.776980 0.554780 0.525420 -0.161082
N7    N     N_2   0.529865 0.202883 0.124294 -0.250008
N8    N     N_2   0.731560 0.845754 0.431170 -0.305145
N9    N     N_2   0.788520 0.042162 0.434386 -0.312097
N10   N     N_2   0.717471 0.683631 0.580187 -0.243663
N11   N     N_2   0.925980 0.755761 0.595293 -0.306095
O1    O     O_R   0.366730 0.627160 0.487740 -0.616987
O2    O     O_R   0.410930 0.482330 0.420550 -0.616293
O3    O     O_R   0.589030 0.517690 0.436960 -0.643731
O4    O     O_2   0.427410 0.674740 0.791995 -0.567729
O5    O     O_2   0.459656 0.668180 0.200791 -0.567953
O6    O     O_2   0.585984 0.326887 0.804621 -0.563898
O7    O     O_2   0.533136 0.307524 0.205258 -0.539109
O8    O     O_R   0.544830 0.662520 0.504140 -0.605489
O9    O     O_R   0.410970 0.482310 0.563040 -0.621683
O10   O     O_R   0.589070 0.517670 0.579450 -0.588281
O11   O     O_R   0.455170 0.337480 0.495860 -0.613922
O12   O     O_R   0.633270 0.372840 0.512260 -0.634766
Zn1   Zn    Zn3+2 0.381080 0.476390 0.489050 0.942773
Zn2   Zn    Zn3+2 0.618920 0.523610 0.510950 0.944460

loop_
_geom_bond_atom_site_label_1
_geom_bond_atom_site_label_2
_ccdc_geom_bond_type
C10   C27   A    
C8    C13   A    
C22   C29   A    
C49   N11   S    
C69   H38   S    
C41   C42   A    
H14   N7    S    
C71   H49   S    
C1    O8    A    
C35   C36   A    
C28   O3    A    
C64   H17   S    
C43   H52   S    
C7    C8    A    
C39   C41   A    
O1    Zn1   S    
C16   C31   S    
C12   C23   A    
C35   H2    S    
C26   C27   A    
C56   H6    S    
C31   C43   A    
C71   H47   S    
C33   H28   S    
C23   N1    S    
C36   C37   A    
O11   Zn1   S    
O12   Zn2   S    
C38   C39   A    
C69   H39   S    
C1    C46   S    
C70   H44   S    
C66   H27   S    
C14   N2    S    
C59   H5    S    
C25   C29   A    
H36   N11   S    
C18   C19   A    
C32   H53   S    
C37   C42   A    
H46   N3    S    
C47   C60   A    
O9    Zn1   S    
C24   N3    S    
C20   C24   A    
C45   C56   A    
C8    C9    A    
C25   C67   A    
C58   H40   S    
C13   N4    A    
C16   O12   A    
C59   N5    A    
C9    C10   A    
C18   H45   S    
C65   N8    S    
C19   N4    S    
C65   H20   S    
C40   O4    S    
C17   C73   A    
O2    Zn1   S    
C30   C44   A    
C2    C6    A    
C28   O2    A    
C68   H33   S    
C64   H16   S    
C28   C73   S    
C42   H29   S    
C60   N5    A    
C41   N8    S    
C52   N1    A    
C71   H48   S    
C50   C51   A    
C54   C59   A    
C69   N11   S    
C40   C45   A    
C52   O6    S    
C47   H30   S    
C31   C44   A    
C2    C20   A    
C27   N7    S    
C57   H4    S    
C68   N10   S    
C15   H8    S    
C53   N6    A    
C12   C63   A    
C21   C34   A    
C3    C22   A    
C70   H43   S    
C40   N1    A    
C60   H3    S    
C51   C53   A    
C66   H26   S    
O10   Zn2   S    
C5    C9    A    
C71   N3    S    
H41   N2    S    
C69   H37   S    
C12   H51   S    
C65   H22   S    
C4    O9    A    
C25   H12   S    
C17   C18   A    
C62   C72   A    
C34   C45   A    
C13   O5    S    
C63   C72   A    
O3    Zn2   S    
O8    Zn2   S    
C52   C67   A    
C48   C49   A    
C15   C73   A    
C49   C50   A    
C55   C57   A    
C63   H13   S    
C61   H1    S    
C2    C5    A    
C68   H32   S    
H24   N9    S    
C11   N4    A    
C4    C72   S    
C47   C55   A    
C11   O7    S    
C70   N2    S    
C62   H11   S    
C54   C55   A    
C65   H21   S    
C6    H10   S    
H31   N10   S    
C32   C46   A    
C14   C19   A    
C48   N10   S    
C3    C26   A    
H19   N8    S    
C3    C5    A    
C50   H7    S    
C34   C67   A    
C53   C58   A    
C6    C7    A    
C70   H42   S    
C24   C56   A    
C44   H50   S    
C16   O11   A    
C51   C54   A    
C32   C33   A    
C26   H23   S    
C17   H34   S    
C38   C43   A    
C4    O10   A    
C66   H25   S    
C57   C58   A    
C36   C38   A    
C33   C35   A    
C30   C39   A    
C61   C62   A    
C10   C11   A    
C66   N9    S    
C23   C61   A    
C7    H9    S    
C20   C21   A    
C64   N7    S    
C30   N9    S    
N6    Zn2   S    
C14   C15   A    
C48   N6    A    
N5    Zn1   S    
C68   H35   S    
C37   C46   A    
C21   C22   A    
C64   H15   S    
C1    O1    A    
C29   H18   S    
