data_mof_unit_23614.cif
_audit_creation_date              2012-12-10T17:56:45-0500
_audit_creation_method            fapswitch 2.2
_symmetry_space_group_name_H-M    P1
_symmetry_Int_Tables_number       1
_space_group_crystal_system       triclinic
_cell_length_a                    10.863952
_cell_length_b                    9.640731
_cell_length_c                    10.929837
_cell_angle_alpha                 90.841548
_cell_angle_beta                  98.130428
_cell_angle_gamma                 89.467096
_cell_volume                      1133.0935351

loop_
_atom_site_label
_atom_site_type_symbol
_atom_type_description
_atom_site_fract_x
_atom_site_fract_y
_atom_site_fract_z
_atom_type_partial_charge
C1    C     C_R   0.262331 0.500813 0.499449 0.895530
C2    C     C_R   0.737189 0.500019 0.496697 0.780053
C3    C     C_R   0.932289 0.627312 0.480386 -0.192666
C4    C     C_R   0.060270 0.627726 0.480963 -0.056886
C5    C     C_R   0.399780 0.069810 0.439784 0.106562
C6    C     C_R   0.600357 0.069365 0.560051 0.172338
C7    C     C_R   0.409357 0.923072 0.430943 -0.002670
C8    C     C_R   0.589058 0.923394 0.571479 -0.005870
C9    C     C_R   0.480516 0.499637 0.260954 0.811647
C10   C     C_R   0.501523 0.501659 0.740041 0.858026
C11   C     C_R   0.379369 0.748590 0.112796 0.440518
C12   C     C_R   0.416173 0.759146 0.872763 0.452794
C13   C     C_R   0.410488 0.875743 0.066957 -0.216846
C14   C     C_R   0.432014 0.880912 0.944446 -0.187223
C15   C     C_R   0.444917 0.631729 0.933423 -0.081951
C16   C     C_R   0.425449 0.628189 0.059638 -0.043269
C17   C     C_R   0.440427 0.501795 0.123487 -0.230426
C18   C     C_R   0.488259 0.508126 0.875876 -0.205382
C19   C     C_R   0.435933 0.381145 0.049745 0.340751
C20   C     C_R   0.503925 0.388304 0.952484 0.366930
C21   C     C_R   0.066452 0.379983 0.513257 -0.155928
C22   C     C_R   0.938298 0.378171 0.501195 -0.197441
C23   C     C_R   0.870641 0.501788 0.491723 -0.016038
C24   C     C_R   0.128097 0.503267 0.498127 0.030668
Cu1   Cu    Cu3+1 0.500000 0.640660 0.500000 1.013044
Cu2   Cu    Cu3+1 0.500000 0.359340 0.500000 0.989999
H1    H     H_    0.390797 0.970790 0.114197 0.231528
H2    H     H_    0.422578 0.980480 0.899847 0.239391
H3    H     H_    0.117133 0.284413 0.532613 0.179289
H4    H     H_    0.892479 0.280073 0.500684 0.182293
H5    H     H_    0.881872 0.724498 0.469756 0.140527
H6    H     H_    0.105834 0.725035 0.469351 0.172905
H7    H     H_    0.336332 0.862953 0.379706 0.196882
H8    H     H_    0.659815 0.863965 0.628493 0.135235
N1    N     N_R   0.500000 0.852070 0.500000 -0.186795
N2    N     N_R   0.500000 0.147940 0.500000 -0.201416
O1    O     O_R   0.319640 0.618740 0.499990 -0.512078
O2    O     O_R   0.680360 0.618740 0.500010 -0.599709
O3    O     O_R   0.319620 0.381170 0.499990 -0.616223
O4    O     O_R   0.680380 0.381170 0.500010 -0.607209
O5    O     O_R   0.500000 0.618810 0.319650 -0.576223
O6    O     O_R   0.500000 0.618810 0.680350 -0.565682
O7    O     O_R   0.499970 0.381240 0.319640 -0.586411
O8    O     O_R   0.500030 0.381240 0.680360 -0.542860
S1    S     S_3+6 0.286726 0.316156 0.988798 0.014382
O9    O     O_2   0.265626 0.177455 0.042145 -0.321808
O10   O     O_2   0.187260 0.415825 0.016004 -0.234253
O11   O     O_3   0.273585 0.296992 0.833913 -0.513707
H9    H     H_    0.309012 0.204108 0.819369 0.371783
S2    S     S_3+6 0.605528 0.247826 0.942688 -0.058364
O12   O     O_2   0.564824 0.161718 0.828970 -0.348902
O13   O     O_2   0.734089 0.303255 0.943392 -0.357230
O14   O     O_3   0.605810 0.147344 0.067349 -0.556138
H10   H     H_    0.666574 0.072268 0.057186 0.373803
S3    S     S_3+6 0.227938 0.739805 0.154095 0.015448
O15   O     O_2   0.223173 0.636454 0.254275 -0.373892
O16   O     O_2   0.185632 0.879793 0.194098 -0.316040
O17   O     O_3   0.129764 0.689118 0.029095 -0.426293
H11   H     H_    0.047243 0.684903 0.057476 0.371854
S4    S     S_3+6 0.278578 0.765959 0.767183 0.019619
O18   O     O_2   0.305127 0.832102 0.651096 -0.335812
O19   O     O_2   0.227964 0.622440 0.741411 -0.284186
O20   O     O_3   0.172567 0.864269 0.827371 -0.497092
H12   H     H_    0.091360 0.820429 0.798192 0.376450
C25   C     C_R   0.270824 0.121685 0.393140 0.087329
C26   C     C_R   0.244861 0.219948 0.299493 -0.019266
C27   C     C_R   0.121847 0.251020 0.249005 -0.049291
C28   C     C_R   0.024048 0.172067 0.278319 -0.087854
C29   C     C_R   0.047905 0.068331 0.365205 -0.107814
C30   C     C_R   0.168458 0.047954 0.426193 -0.174886
H13   H     H_    0.317905 0.271401 0.263581 0.175471
H14   H     H_    0.101209 0.334324 0.185073 0.210603
H15   H     H_    0.929939 0.192023 0.234531 0.164553
H16   H     H_    0.973039 0.003520 0.385087 0.134972
H17   H     H_    0.182572 0.968042 0.494424 0.175052
C31   C     C_R   0.731974 0.116306 0.602595 0.083264
C32   C     C_R   0.764956 0.220848 0.691843 0.006495
C33   C     C_R   0.887579 0.234571 0.751123 -0.100728
C34   C     C_R   0.978890 0.140470 0.726056 -0.048911
C35   C     C_R   0.949767 0.038171 0.636071 -0.178432
C36   C     C_R   0.829429 0.029581 0.571936 -0.268540
H18   H     H_    0.698238 0.294656 0.714614 0.206003
H19   H     H_    0.911989 0.317977 0.817145 0.203825
H20   H     H_    0.072402 0.148218 0.774582 0.221472
H21   H     H_    0.020143 0.964827 0.615933 0.164966
H22   H     H_    0.810058 0.948708 0.502460 0.132389

loop_
_geom_bond_atom_site_label_1
_geom_bond_atom_site_label_2
_ccdc_geom_bond_type
C15   C18   A    
S3    O15   D    
C10   O6    A    
C3    C23   A    
C19   C20   A    
Cu2   O8    S    
O14   H10   S    
S4    O20   S    
C34   H20   S    
C4    C24   A    
Cu2   O3    S    
C15   C16   A    
C5    N2    A    
S4    O19   D    
C27   H14   S    
C20   S2    S    
Cu1   O1    S    
C33   H19   S    
C16   C17   A    
S2    O13   D    
C36   H22   S    
C1    O1    A    
C28   H15   S    
C26   C27   A    
C13   C14   A    
C7    H7    S    
Cu2   O7    S    
S1    O10   D    
C9    O7    A    
S2    O14   S    
C10   O8    A    
C27   C28   A    
C31   C32   A    
C5    C25   S    
Cu1   O5    S    
C5    C7    A    
C33   C34   A    
C28   C29   A    
C6    C8    A    
Cu1   Cu2   S    
C32   C33   A    
C21   H3    S    
C34   C35   A    
S4    O18   D    
C8    N1    A    
C31   C36   A    
C35   H21   S    
C2    O4    A    
Cu1   O2    S    
C11   C16   A    
C2    O2    A    
C26   H13   S    
C12   C15   A    
S2    O12   D    
C29   H16   S    
C8    H8    S    
C3    H5    S    
C4    H6    S    
Cu1   N1    S    
C9    C17   S    
O11   H9    S    
C12   C14   A    
S3    O16   D    
C21   C24   A    
C3    C4    A    
C2    C23   S    
C11   S3    S    
S1    O11   S    
Cu2   N2    S    
C22   H4    S    
C7    N1    A    
C35   C36   A    
Cu1   O6    S    
C19   S1    S    
C6    C31   S    
C9    O5    A    
O17   H11   S    
C11   C13   A    
Cu2   O4    S    
C32   H18   S    
C10   C18   S    
C17   C19   A    
C6    N2    A    
C18   C20   A    
C29   C30   A    
C1    O3    A    
O20   H12   S    
C12   S4    S    
S1    O9    D    
C1    C24   S    
C25   C26   A    
S3    O17   S    
C30   H17   S    
C22   C23   A    
C13   H1    S    
C14   H2    S    
C21   C22   A    
C25   C30   A    
