data_mof_unit_62451.cif
_audit_creation_date              2012-12-10T21:34:11-0500
_audit_creation_method            fapswitch 2.2
_symmetry_space_group_name_H-M    P1
_symmetry_Int_Tables_number       1
_space_group_crystal_system       triclinic
_cell_length_a                    13.650823
_cell_length_b                    16.145012
_cell_length_c                    16.932785
_cell_angle_alpha                 88.167115
_cell_angle_beta                  89.992236
_cell_angle_gamma                 94.444503
_cell_volume                      3718.72360303

loop_
_atom_site_label
_atom_site_type_symbol
_atom_type_description
_atom_site_fract_x
_atom_site_fract_y
_atom_site_fract_z
_atom_type_partial_charge
C1    C     C_R   0.497375 0.510566 0.347359 0.903336
C2    C     C_R   0.544822 0.854351 0.463111 -0.240728
C3    C     C_R   0.519345 0.110566 0.484056 0.269861
C4    C     C_R   0.480688 0.889439 0.515971 0.270074
C5    C     C_R   0.578450 0.164696 0.434933 -0.298487
C6    C     C_R   0.421287 0.835297 0.564862 -0.297857
C7    C     C_R   0.574026 0.250919 0.438569 0.521946
C8    C     C_R   0.425681 0.749073 0.561205 0.521727
C9    C     C_R   0.684909 0.514827 0.500700 0.916366
C10   C     C_R   0.315091 0.485174 0.499295 0.912914
C11   C     C_1   0.212226 0.473813 0.498014 -0.106014
C12   C     C_R   0.500202 0.489195 0.652706 0.901521
C13   C     C_1   0.787780 0.526189 0.501946 -0.107282
C14   C     C_2   0.021429 0.464460 0.496131 0.285357
C15   C     C_2   0.978582 0.535548 0.503765 0.285659
C16   C     C_1   0.874970 0.533432 0.502996 0.071905
C17   C     C_1   0.125038 0.466573 0.496930 0.071677
C18   C     C_R   0.484589 0.515686 0.262424 -0.074213
C19   C     C_R   0.495728 0.482514 0.738220 -0.076962
C20   C     C_R   0.466276 0.442361 0.221274 -0.178058
C21   C     C_R   0.496441 0.555046 0.781221 -0.170986
C22   C     C_R   0.451526 0.446168 0.140735 -0.169096
C23   C     C_R   0.470954 0.597250 0.141383 0.166531
C24   C     C_R   0.487455 0.549818 0.862306 -0.167431
C25   C     C_R   0.456593 0.523745 0.099813 0.275871
C26   C     C_R   0.477246 0.471481 0.901892 0.275922
C27   C     C_R   0.478459 0.398844 0.859022 0.167013
C28   C     C_R   0.485209 0.593159 0.222578 -0.232790
C29   C     C_R   0.487395 0.404399 0.777260 -0.235081
C30   C     C_R   0.453043 0.232641 0.539124 -0.077457
C31   C     C_R   0.547255 0.767373 0.461111 -0.076731
C32   C     C_R   0.455494 0.145665 0.537140 -0.240418
Cl1   Cl    Cl    0.045380 0.632596 0.515168 -0.529490
Cl2   Cl    Cl    0.954636 0.367412 0.484726 -0.530348
Cl3   Cl    Cl    0.650860 0.314610 0.374998 -0.530764
Cl4   Cl    Cl    0.348397 0.685384 0.624440 -0.538462
H1    H     H_    0.503651 0.616078 0.752363 0.203397
H2    H     H_    0.408019 0.106817 0.576667 0.182089
H3    H     H_    0.628229 0.139727 0.393627 0.195836
H4    H     H_    0.371283 0.860258 0.605992 0.195902
H5    H     H_    0.463102 0.381869 0.251173 0.197888
H6    H     H_    0.489260 0.607259 0.893775 0.191868
H7    H     H_    0.438174 0.388339 0.110402 0.190253
H8    H     H_    0.497744 0.650337 0.254086 0.187592
H9    H     H_    0.486831 0.347816 0.744527 0.187603
H10   H     H_    0.596447 0.740788 0.420546 0.163568
H11   H     H_    0.404080 0.259238 0.579869 0.163454
H12   H     H_    0.592545 0.893208 0.423778 0.181825
I1    I     I_    0.477230 0.715484 0.082791 -0.274937
I2    I     I_    0.465944 0.279649 0.915825 -0.273676
N1    N     N_2   0.454497 0.529801 0.016790 -0.159753
N2    N     N_2   0.471031 0.463966 0.984794 -0.158588
N3    N     N_R   0.511670 0.283920 0.490320 -0.129127
N4    N     N_R   0.488330 0.716080 0.509680 -0.128359
N5    N     N_2   0.527337 0.022863 0.477458 -0.149342
N6    N     N_2   0.472706 0.977142 0.522579 -0.149353
O1    O     O_R   0.495820 0.577170 0.387320 -0.634910
O2    O     O_R   0.504180 0.422830 0.612680 -0.634184
O3    O     O_R   0.503320 0.438390 0.381110 -0.583598
O4    O     O_R   0.496680 0.561610 0.618890 -0.585082
O5    O     O_R   0.636060 0.579370 0.503570 -0.628078
O6    O     O_R   0.363940 0.420630 0.496430 -0.629853
O7    O     O_R   0.643560 0.440600 0.497360 -0.548272
O8    O     O_R   0.356440 0.559400 0.502640 -0.548387
Zn1   Zn    Zn3+2 0.495000 0.592660 0.504150 1.017728
Zn2   Zn    Zn3+2 0.505000 0.407340 0.495850 1.017471

loop_
_geom_bond_atom_site_label_1
_geom_bond_atom_site_label_2
_ccdc_geom_bond_type
C14   Cl2   S    
C2    C4    A    
N5    N6    D    
C25   N1    S    
C29   H9    S    
C26   N2    S    
C27   C29   A    
C24   H6    S    
C18   C20   A    
C22   H7    S    
C27   I2    S    
C3    C5    A    
C12   O2    A    
O8    Zn1   S    
C13   C16   T    
C1    O3    A    
C20   H5    S    
C1    C18   S    
O7    Zn2   S    
C18   C28   A    
C31   N4    A    
N4    Zn1   S    
C23   C28   A    
C4    N6    S    
C30   C32   A    
N3    Zn2   S    
C14   C17   S    
C26   C27   A    
C10   O6    A    
C7    Cl3   S    
C9    O5    A    
C12   C19   S    
C19   C21   A    
C24   C26   A    
O4    Zn1   S    
C1    O1    A    
C32   H2    S    
C5    H3    S    
O3    Zn2   S    
C3    C32   A    
C30   N3    A    
C6    H4    S    
C23   I1    S    
C7    N3    A    
C10   C11   S    
C20   C22   A    
C15   C16   S    
C19   C29   A    
O5    Zn1   S    
C30   H11   S    
O6    Zn2   S    
C21   H1    S    
C31   H10   S    
C28   H8    S    
C4    C6    A    
C23   C25   A    
C8    Cl4   S    
C21   C24   A    
C8    N4    A    
C5    C7    A    
C9    C13   S    
C14   C15   D    
C11   C17   T    
C6    C8    A    
C2    H12   S    
C9    O7    A    
C3    N5    S    
O2    Zn2   S    
C10   O8    A    
N1    N2    D    
C15   Cl1   S    
C2    C31   A    
O1    Zn1   S    
C22   C25   A    
C12   O4    A    
