data_mof_unit_36695.cif
_audit_creation_date              2013-03-05T16:11:21-0500
_audit_creation_method            fapswitch 2.2
_symmetry_space_group_name_H-M    P1
_symmetry_Int_Tables_number       1
_space_group_crystal_system       triclinic
_cell_length_a                    11.064139
_cell_length_b                    10.030213
_cell_length_c                    11.249448
_cell_angle_alpha                 91.355055
_cell_angle_beta                  98.156231
_cell_angle_gamma                 90.066349
_cell_volume                      1235.42875544

loop_
_atom_site_label
_atom_site_type_symbol
_atom_site_description
_atom_site_fract_x
_atom_site_fract_y
_atom_site_fract_z
_atom_type_partial_charge
O1    O     O_R   0.316750 0.614620 0.499990 -0.627071
O2    O     O_R   0.316750 0.385380 0.499990 -0.637266
C1    C     C_R   0.259710 0.500033 0.497856 0.986720
O3    O     O_R   0.499970 0.614670 0.314790 -0.523534
O4    O     O_R   0.499970 0.385330 0.314790 -0.537530
C2    C     C_R   0.497368 0.499471 0.256943 1.026118
Zn1   Zn    Zn3+2 0.499980 0.653120 0.500000 1.168951
Zn2   Zn    Zn3+2 0.499980 0.346880 0.500000 1.137480
O5    O     O_R   0.683220 0.614710 0.500010 -0.546843
O6    O     O_R   0.683220 0.385290 0.500010 -0.551598
O7    O     O_R   0.500010 0.614660 0.685200 -0.560644
O8    O     O_R   0.500010 0.385340 0.685200 -0.622295
C3    C     C_R   0.739898 0.499926 0.502589 0.989406
C4    C     C_R   0.501316 0.501134 0.742240 0.955535
C5    C     C_3   0.380863 0.597353 0.054359 0.261812
C6    C     C_3   0.479315 0.343566 0.064292 0.284487
C7    C     C_3   0.393272 0.607901 0.911327 -0.008616
C8    C     C_3   0.472898 0.350676 0.920041 -0.037604
H1    H     H_    0.640662 0.651987 0.909457 0.240811
H2    H     H_    0.698118 0.503060 0.915812 0.224174
C9    C     C_3   0.624783 0.558612 0.085981 -0.218467
C10   C     C_3   0.493830 0.500768 0.118965 -0.315338
C11   C     C_3   0.494793 0.501896 0.877859 -0.168466
C12   C     C_3   0.619558 0.554472 0.945208 -0.501624
C13   C     C_R   0.056759 0.383198 0.467745 -0.187679
C14   C     C_R   0.067799 0.617870 0.537264 -0.102728
C15   C     C_R   0.931725 0.381274 0.472135 0.304498
C16   C     C_R   0.941439 0.616157 0.537070 0.268768
C17   C     C_R   0.872508 0.499279 0.502955 -0.253103
C18   C     C_R   0.126672 0.500573 0.500646 -0.166313
C19   C     C_R   0.585852 0.071186 0.575538 0.215713
C20   C     C_R   0.577001 0.929602 0.583267 0.259563
N1    N     N_R   0.499970 0.857200 0.499970 -0.205833
N2    N     N_R   0.499970 0.142800 0.499970 -0.206844
C21   C     C_R   0.409416 0.926179 0.432962 0.239641
C22   C     C_R   0.416197 0.066920 0.423793 0.187285
N3    N     N_R   0.375501 0.737640 0.100083 0.275717
O9    O     O_R   0.459791 0.797804 0.173795 -0.271149
O10   O     O_R   0.279566 0.807682 0.060594 -0.226310
N4    N     N_R   0.582618 0.258975 0.126391 0.256290
O11   O     O_R   0.685173 0.235228 0.086753 -0.241632
O12   O     O_R   0.561280 0.180723 0.212070 -0.243665
N5    N     N_R   0.296704 0.860968 0.386673 0.234877
O13   O     O_R   0.296198 0.755915 0.318365 -0.252433
O14   O     O_R   0.193448 0.920797 0.392798 -0.296840
N6    N     N_R   0.338972 0.125133 0.326333 0.255211
O15   O     O_R   0.319514 0.250965 0.325837 -0.324394
O16   O     O_R   0.290255 0.053364 0.233999 -0.160877
N7    N     N_R   0.263230 0.543027 0.083232 0.226437
O17   O     O_R   0.246051 0.542934 0.195316 -0.300814
O18   O     O_R   0.167791 0.514929 0.005196 -0.291255
N8    N     N_R   0.370641 0.262647 0.082587 0.247814
O19   O     O_R   0.368421 0.138085 0.045906 -0.196747
O20   O     O_R   0.271912 0.307411 0.117316 -0.194044
C23   C     C_2   0.269546 0.592778 0.832837 0.507682
H3    H     H_    0.196773 0.660714 0.848762 0.162377
O21   O     O_2   0.251343 0.518171 0.745599 -0.666274
C24   C     C_2   0.350612 0.299201 0.847600 0.587103
H4    H     H_    0.351708 0.246163 0.762461 0.105781
O22   O     O_2   0.250789 0.314774 0.879816 -0.433262
N9    N     N_R   0.431796 0.746967 0.882085 0.238161
O23   O     O_R   0.510824 0.817887 0.953080 -0.289913
O24   O     O_R   0.379930 0.807599 0.787170 -0.377863
N10   N     N_R   0.562431 0.254726 0.882766 0.233082
O25   O     O_R   0.674867 0.288245 0.878261 -0.280208
O26   O     O_R   0.536866 0.127969 0.881244 -0.250498
C25   C     C_2   0.666753 0.697966 0.133600 0.628862
H5    H     H_    0.696221 0.771335 0.074513 0.147576
O27   O     O_2   0.685659 0.725554 0.241129 -0.456284
C26   C     C_2   0.736264 0.481684 0.139526 0.544807
H6    H     H_    0.805630 0.450143 0.085641 0.154191
O28   O     O_2   0.756005 0.462911 0.246909 -0.549098
C27   C     C_2   0.109411 0.257941 0.426516 0.716574
H7    H     H_    0.175206 0.202931 0.487120 0.074893
O29   O     O_2   0.073309 0.211275 0.326433 -0.388916
C28   C     C_2   0.136411 0.741194 0.585570 0.608306
H8    H     H_    0.226698 0.735411 0.633365 0.113277
O30   O     O_2   0.091652 0.852201 0.575173 -0.421406
N11   N     N_R   0.868036 0.255450 0.450206 0.240905
O31   O     O_R   0.909326 0.152685 0.511321 -0.272379
O32   O     O_R   0.795566 0.234018 0.350216 -0.214564
N12   N     N_R   0.886074 0.730631 0.584781 0.259247
O33   O     O_R   0.915577 0.761854 0.698311 -0.281152
O34   O     O_R   0.839204 0.821565 0.511505 -0.223174
N13   N     N_R   0.693710 0.132921 0.640761 0.278648
O35   O     O_R   0.696378 0.257136 0.671504 -0.296085
O36   O     O_R   0.791357 0.063225 0.674037 -0.193083
N14   N     N_R   0.635501 0.867242 0.690335 0.271569
O37   O     O_R   0.682498 0.749892 0.687212 -0.325570
O38   O     O_R   0.644625 0.929413 0.793734 -0.221069

loop_
_geom_bond_atom_site_label_1
_geom_bond_atom_site_label_2
_geom_bond_distance
_ccdc_geom_bond_type
C23   H3    1.086804 S    
C19   N13   1.440219 S    
C15   C17   1.413244 A    
Zn1   N1    2.046974 S    
C27   H7    1.084925 S    
C21   C22   1.420522 A    
N13   O35   1.284284 A    
Zn1   O7    2.127716 S    
C7    C11   1.624117 S    
C3    C17   1.466663 S    
C16   C17   1.413100 A    
C28   O30   1.220502 D    
C15   N11   1.443623 S    
O4    C2    1.328532 A    
O7    C4    1.319296 A    
C24   O22   1.219373 D    
C2    C10   1.547477 S    
Zn1   O5    2.064096 S    
N9    O24   1.302647 A    
O5    C3    1.310607 A    
C5    N3    1.490864 S    
C7    N9    1.515133 S    
C8    C24   1.557845 S    
C5    C10   1.675490 S    
H2    C12   1.097870 S    
N7    O18   1.299889 A    
C14   C28   1.500219 S    
C11   C12   1.562144 S    
C22   N6    1.427803 S    
C26   H6    1.086294 S    
C21   N5    1.432443 S    
C7    C23   1.525389 S    
C13   C27   1.477743 S    
N4    O12   1.304105 A    
C9    C10   1.653580 S    
C9    C25   1.532579 S    
C27   O29   1.221996 D    
O3    Zn1   2.109901 S    
N8    O20   1.288943 A    
N13   O36   1.302080 A    
N6    O16   1.300964 A    
C16   N12   1.430890 S    
C25   H5    1.083400 S    
C28   H8    1.067501 S    
O3    C2    1.310900 A    
N11   O32   1.298695 A    
C24   H4    1.086129 S    
C8    C11   1.627967 S    
O1    C1    1.308641 A    
N10   O26   1.301352 A    
C4    C11   1.537378 S    
C1    C18   1.476752 S    
N5    O13   1.288913 A    
N3    O9    1.295026 A    
C19   C20   1.428924 A    
Zn2   O8    2.109775 S    
C19   N2    1.393841 A    
Zn2   N2    2.046958 S    
N5    O14   1.300765 A    
C6    N4    1.522486 S    
C6    C8    1.617467 S    
N4    O11   1.297012 A    
N14   O38   1.297795 A    
C14   C18   1.425886 A    
N12   O34   1.302185 A    
C23   O21   1.213466 D    
N7    O17   1.301537 A    
N8    O19   1.305570 A    
C13   C18   1.420348 A    
C5    C7    1.640036 S    
N6    O15   1.280610 A    
C6    C10   1.678037 S    
O1    Zn1   2.063278 S    
O2    Zn2   2.064157 S    
C6    N8    1.490872 S    
O8    C4    1.312619 A    
O6    C3    1.306814 A    
O4    Zn2   2.127836 S    
C13   C15   1.391390 A    
C14   C16   1.397844 A    
C9    C26   1.514256 S    
N10   O25   1.296496 A    
O2    C1    1.311497 A    
N3    O10   1.303930 A    
C20   N1    1.368067 A    
C8    N10   1.477947 S    
N1    C21   1.364806 A    
H1    C12   1.103480 S    
N2    C22   1.383788 A    
C5    N7    1.490969 S    
N9    O23   1.296899 A    
N11   O31   1.299737 A    
N14   O37   1.289073 A    
Zn2   O6    2.063219 S    
N12   O33   1.303191 A    
C9    C12   1.576012 S    
C26   O28   1.215896 D    
C25   O27   1.223033 D    
C20   N14   1.440914 S    
