data_mof_unit_14971.cif
_audit_creation_date              2012-10-26T20:19:32-0400
_audit_creation_method            fapswitch 2.2
_symmetry_space_group_name_H-M    P1
_symmetry_Int_Tables_number       1
_space_group_crystal_system       triclinic
_cell_length_a                    10.754949
_cell_length_b                    10.863202
_cell_length_c                    9.580049
_cell_angle_alpha                 91.35571
_cell_angle_beta                  89.480718
_cell_angle_gamma                 94.042758
_cell_volume                      1116.13934763

loop_
_atom_site_label
_atom_site_type_symbol
_atom_type_description
_atom_site_fract_x
_atom_site_fract_y
_atom_site_fract_z
_atom_type_partial_charge
C1    C     C_R   0.488574 0.262184 0.498591 0.573139
C2    C     C_R   0.428342 0.061902 0.613763 0.056395
C3    C     C_R   0.473937 0.127200 0.495786 0.000021
C4    C     C_R   0.260132 0.503398 0.500826 0.559978
C5    C     C_R   0.522978 0.063379 0.382078 -0.179035
C6    C     C_R   0.531701 0.937203 0.386993 -0.169112
C7    C     C_R   0.502929 0.873767 0.510254 -0.011870
C8    C     C_R   0.671145 0.662558 0.146717 -0.097648
C9    C     C_R   0.755448 0.741314 0.075391 -0.176210
C10   C     C_R   0.755067 0.741517 0.931434 -0.173367
C11   C     C_R   0.670466 0.662860 0.857987 -0.117079
C12   C     C_3   0.878008 0.502539 0.500414 0.039118
C13   C     C_R   0.584194 0.579820 0.926311 0.149670
C14   C     C_R   0.584291 0.579758 0.076030 0.160755
C15   C     C_R   0.419675 0.424286 0.072875 -0.003281
C16   C     C_R   0.502970 0.738500 0.502837 0.529106
C17   C     C_R   0.419700 0.424646 0.925042 0.010745
C18   C     C_R   0.740060 0.500877 0.499738 0.531863
C19   C     C_3   0.067158 0.484978 0.653510 -0.102408
C20   C     C_3   0.924318 0.482015 0.650559 -0.223929
C21   C     C_3   0.080687 0.630912 0.449885 -0.234131
C22   C     C_3   0.066097 0.403400 0.401245 -0.251699
C23   C     C_3   0.936452 0.628715 0.449373 -0.245417
C24   C     C_3   0.121949 0.506253 0.502805 0.041165
C25   C     C_1   0.115128 0.579887 0.757146 0.193870
C26   C     C_3   0.155567 0.123982 0.593624 -0.325663
C27   C     C_3   0.922731 0.397834 0.404307 -0.239541
C28   C     C_R   0.347478 0.112843 0.714105 0.169109
C29   C     C_R   0.337541 0.063100 0.847505 -0.113423
C30   C     C_R   0.394982 0.956325 0.875665 -0.142849
C31   C     C_R   0.452400 0.892642 0.767994 -0.102403
C32   C     C_R   0.462601 0.940365 0.631210 -0.004088
Cu1   Cu    Cu3+1 0.499990 0.499990 0.640660 0.938265
Cu2   Cu    Cu3+1 0.500010 0.500010 0.359340 0.916623
H1    H     H_    0.887866 0.406866 0.296236 0.140993
H2    H     H_    0.093871 0.394464 0.690014 0.103056
H3    H     H_    0.677686 0.671284 0.257050 0.173961
H4    H     H_    0.820823 0.803462 0.132589 0.113004
H5    H     H_    0.819897 0.804024 0.875994 0.122797
H6    H     H_    0.674581 0.673178 0.748010 0.174062
H7    H     H_    0.353886 0.363456 0.869268 0.110000
H8    H     H_    0.884955 0.391012 0.688180 0.115914
H9    H     H_    0.888951 0.553601 0.723073 0.140210
H10   H     H_    0.119570 0.708968 0.517081 0.126684
H11   H     H_    0.905357 0.704750 0.518276 0.100519
H12   H     H_    0.117208 0.647415 0.342356 0.132698
H13   H     H_    0.098642 0.422055 0.292596 0.134006
H14   H     H_    0.099194 0.312763 0.426805 0.114408
H15   H     H_    0.885318 0.306480 0.442567 0.109173
H16   H     H_    0.218367 0.240288 0.753630 0.226521
H17   H     H_    0.071413 0.177377 0.593770 0.115904
H18   H     H_    0.127520 0.034154 0.642421 0.148975
H19   H     H_    0.186640 0.107124 0.484394 0.151696
H20   H     H_    0.904376 0.645441 0.341835 0.120240
H21   H     H_    0.556051 0.111202 0.289449 0.137470
H22   H     H_    0.279395 0.103079 0.926950 0.092254
H23   H     H_    0.388147 0.918290 0.979158 0.126732
H24   H     H_    0.491786 0.809942 0.798631 0.163358
H25   H     H_    0.565113 0.889738 0.294809 0.134534
H26   H     H_    0.353831 0.362156 0.127210 0.105409
N1    N     N_R   0.501200 0.501210 0.147910 -0.243474
N2    N     N_R   0.501250 0.501290 0.852040 -0.241935
N3    N     N_1   0.152628 0.653941 0.837973 -0.311283
N4    N     N_2   0.254629 0.190841 0.671795 -0.508143
O1    O     O_R   0.499990 0.319640 0.618810 -0.479392
O2    O     O_R   0.500000 0.319660 0.381240 -0.510129
O3    O     O_R   0.317680 0.499970 0.618790 -0.484153
O4    O     O_R   0.317700 0.499990 0.381210 -0.507820
O5    O     O_R   0.500000 0.680340 0.618760 -0.532595
O6    O     O_R   0.500010 0.680360 0.381190 -0.519054
O7    O     O_R   0.682300 0.500010 0.618790 -0.528842
O8    O     O_R   0.682320 0.500030 0.381210 -0.524428

loop_
_geom_bond_atom_site_label_1
_geom_bond_atom_site_label_2
_ccdc_geom_bond_type
C8    C9    A    
C4    O3    A    
C22   H14   S    
C26   H19   S    
C6    C7    A    
C23   H11   S    
C29   H22   S    
C26   H18   S    
C17   N2    A    
C4    O4    A    
C21   H10   S    
H16   N4    S    
C9    C10   A    
Cu2   O6    S    
C20   H8    S    
C19   C20   S    
Cu1   O5    S    
C30   C31   A    
C22   C27   S    
C12   C20   S    
C6    H25   S    
Cu1   Cu2   S    
C15   N1    A    
C3    C5    A    
Cu1   O1    S    
C31   C32   A    
C13   C14   A    
C11   C13   A    
C12   C23   S    
Cu2   O2    S    
C29   C30   A    
C19   C24   S    
C19   C25   S    
C28   N4    S    
C31   H24   S    
C28   C29   A    
C22   H13   S    
C13   N2    A    
C2    C3    A    
C19   H2    S    
C21   C23   S    
C18   O8    A    
C5    C6    A    
C4    C24   S    
C22   C24   S    
C17   H7    S    
C10   C11   A    
Cu1   O7    S    
C12   C27   S    
C12   C18   S    
C11   H6    S    
C30   H23   S    
Cu2   O8    S    
C8    H3    S    
C20   H9    S    
C16   O6    A    
C9    H4    S    
Cu1   O3    S    
C23   H20   S    
C2    C32   A    
C21   H12   S    
C15   H26   S    
C21   C24   S    
Cu2   O4    S    
C18   O7    A    
C15   C17   A    
C26   N4    S    
C25   N3    T    
C2    C28   A    
C7    C32   A    
C8    C14   A    
C27   H1    S    
C26   H17   S    
C14   N1    A    
Cu1   N2    S    
C1    O1    A    
C5    H21   S    
Cu2   N1    S    
C7    C16   S    
C16   O5    A    
C27   H15   S    
C10   H5    S    
C1    C3    S    
C1    O2    A    
