data_mof_unit_9412.cif
_audit_creation_date              2012-10-26T19:43:51-0400
_audit_creation_method            fapswitch 2.2
_symmetry_space_group_name_H-M    P1
_symmetry_Int_Tables_number       1
_space_group_crystal_system       triclinic
_cell_length_a                    12.436288
_cell_length_b                    13.246057
_cell_length_c                    13.854971
_cell_angle_alpha                 106.716085
_cell_angle_beta                  74.098845
_cell_angle_gamma                 117.103368
_cell_volume                      1918.32128337

loop_
_atom_site_label
_atom_site_type_symbol
_atom_type_description
_atom_site_fract_x
_atom_site_fract_y
_atom_site_fract_z
_atom_type_partial_charge
C1    C     C_R   0.144147 0.713105 0.507261 0.584443
C2    C     C_R   0.563248 0.017859 0.482371 0.008247
C3    C     C_R   0.608061 0.934680 0.421174 -0.000554
C4    C     C_R   0.984118 0.504155 0.686177 0.539269
C5    C     C_R   0.526929 0.827716 0.377317 -0.116354
C6    C     C_R   0.402310 0.802634 0.393928 0.294631
C7    C     C_R   0.647888 0.132732 0.500219 -0.122040
C8    C     C_R   0.817483 0.077316 0.423547 -0.136354
C9    C     C_R   0.226115 0.836316 0.512340 -0.061200
C10   C     C_R   0.638472 0.671726 0.666900 -0.156187
C11   C     C_R   0.257566 0.365441 0.351993 0.053959
C12   C     C_1   0.974316 0.505543 0.791353 -0.032717
C13   C     C_R   0.369882 0.366096 0.300469 -0.164660
C14   C     C_R   0.472613 0.433590 0.347125 -0.137262
C15   C     C_R   0.462876 0.489395 0.451029 -0.003715
C16   C     C_R   0.856177 0.286166 0.485926 0.530181
C17   C     C_R   0.350304 0.500971 0.493313 0.179700
C18   C     C_R   0.560079 0.540519 0.512220 -0.003018
C19   C     C_R   0.548133 0.619044 0.604595 0.020022
C20   C     C_R   0.444387 0.643148 0.635939 -0.182728
C21   C     C_R   0.346503 0.583490 0.582844 -0.103726
C22   C     C_R   0.663039 0.510902 0.491744 0.152163
C23   C     C_R   0.734637 0.963654 0.396173 -0.132771
C24   C     C_R   0.738455 0.643055 0.641757 0.034755
C25   C     C_R   0.016001 0.496011 0.313901 0.548089
C26   C     C_1   0.028006 0.497424 0.209175 -0.041217
C27   C     C_2   0.053119 0.503577 0.015811 0.005145
C28   C     C_2   0.961730 0.506482 0.984524 -0.104160
C29   C     C_1   0.967270 0.506237 0.879626 -0.059121
C30   C     C_1   0.039450 0.499972 0.121042 -0.054259
C31   C     C_3   0.345187 0.739088 0.235630 0.002721
C32   C     C_3   0.265732 0.802480 0.241943 -0.267980
C33   C     C_3   0.272900 0.823710 0.137338 -0.485950
C34   C     C_R   0.773928 0.163176 0.471905 -0.016536
C35   C     C_3   0.673992 0.418960 0.399608 -0.326647
C36   C     C_3   0.166859 0.498881 0.944004 -0.388246
C37   C     C_3   0.483336 0.128149 0.729666 0.008783
C38   C     C_3   0.384017 0.116886 0.825188 -0.246766
C39   C     C_3   0.420918 0.095673 0.911444 -0.499730
C40   C     C_3   0.196405 0.165529 0.606149 0.024816
C41   C     C_3   0.193828 0.280294 0.668477 -0.244219
C42   C     C_3   0.315363 0.360718 0.706036 -0.378879
C43   C     C_R   0.179501 0.917506 0.570763 -0.196852
C44   C     C_R   0.258298 0.029345 0.606886 0.267651
C45   C     C_R   0.383864 0.058193 0.591877 0.278338
C46   C     C_R   0.434998 0.985077 0.516316 -0.073758
C47   C     C_R   0.353639 0.873354 0.473885 -0.031132
Cu1   Cu    Cu3+1 0.899780 0.525060 0.522890 0.916718
Cu2   Cu    Cu3+1 0.100220 0.474940 0.477110 0.938195
H1    H     H_    0.880329 0.508276 0.038513 0.110539
H2    H     H_    0.561048 0.767408 0.322708 0.113358
H3    H     H_    0.769410 0.899605 0.351612 0.105588
H4    H     H_    0.616668 0.200993 0.529018 0.192705
H5    H     H_    0.081791 0.892553 0.595346 0.148292
H6    H     H_    0.315626 0.657298 0.178762 0.156186
H7    H     H_    0.443011 0.790818 0.206291 0.108886
H8    H     H_    0.168885 0.750356 0.272120 0.176159
H9    H     H_    0.297317 0.887159 0.294890 0.151137
H10   H     H_    0.368689 0.878359 0.107085 0.141619
H11   H     H_    0.214030 0.868988 0.144340 0.145400
H12   H     H_    0.807736 0.683946 0.690266 0.122696
H13   H     H_    0.240452 0.740562 0.082700 0.160034
H14   H     H_    0.730992 0.377007 0.397252 0.191651
H15   H     H_    0.584421 0.343904 0.394001 0.084693
H16   H     H_    0.716253 0.458221 0.330429 0.102713
H17   H     H_    0.234831 0.506299 0.986510 0.120221
H18   H     H_    0.141999 0.415245 0.889454 0.138400
H19   H     H_    0.210340 0.570957 0.901262 0.126181
H20   H     H_    0.570518 0.199515 0.750664 0.153199
H21   H     H_    0.500877 0.048235 0.702858 0.121113
H22   H     H_    0.368295 0.197375 0.851557 0.180001
H23   H     H_    0.436255 0.705297 0.705148 0.103499
H24   H     H_    0.296902 0.043582 0.806523 0.181043
H25   H     H_    0.435022 0.014400 0.887260 0.143532
H26   H     H_    0.347198 0.087767 0.979349 0.144052
H27   H     H_    0.506682 0.168844 0.933208 0.146081
H28   H     H_    0.107899 0.111826 0.577557 0.110801
H29   H     H_    0.271590 0.184634 0.538770 0.123144
H30   H     H_    0.175906 0.322797 0.619912 0.145087
H31   H     H_    0.118087 0.264135 0.734878 0.160319
H32   H     H_    0.329355 0.325275 0.762855 0.196001
H33   H     H_    0.314820 0.446745 0.742889 0.119072
H34   H     H_    0.630525 0.733615 0.736313 0.091283
H35   H     H_    0.392866 0.371599 0.641085 0.171967
H36   H     H_    0.178596 0.318062 0.313864 0.123255
H37   H     H_    0.558226 0.445184 0.297369 0.108079
H38   H     H_    0.378644 0.319725 0.222433 0.094834
H39   H     H_    0.270306 0.606407 0.613398 0.173598
H40   H     H_    0.914820 0.099120 0.400714 0.118559
N1    N     N_R   0.748810 0.563010 0.557590 -0.218304
N2    N     N_R   0.250540 0.437620 0.443020 -0.238517
O1    O     O_R   0.025040 0.682470 0.528790 -0.513266
O2    O     O_3   0.452587 0.157510 0.653393 -0.574179
O3    O     O_3   0.211512 0.107121 0.668963 -0.547107
O4    O     O_R   0.194310 0.640150 0.490130 -0.453507
O5    O     O_R   0.903380 0.524130 0.659910 -0.491217
O6    O     O_R   0.072660 0.481800 0.621240 -0.530249
O7    O     O_R   0.805690 0.359850 0.509870 -0.522837
O8    O     O_R   0.974960 0.317530 0.471210 -0.511671
O9    O     O_R   0.927340 0.518200 0.378760 -0.517601
O10   O     O_R   0.096620 0.475870 0.340090 -0.470803
O11   O     O_3   0.328661 0.709378 0.330630 -0.534803

loop_
_geom_bond_atom_site_label_1
_geom_bond_atom_site_label_2
_ccdc_geom_bond_type
C15   C18   A    
C24   H12   S    
C37   H20   S    
C12   C29   T    
C41   C42   S    
C3    C23   A    
C2    C7    A    
C17   N2    A    
C32   H9    S    
C45   O2    S    
C41   H31   S    
C36   H18   S    
C45   C46   A    
C2    C46   A    
C22   C35   S    
C28   C29   S    
Cu2   O10   S    
C5    C6    A    
C36   H17   S    
C35   H16   S    
C10   H34   S    
C8    C23   A    
C18   C19   A    
C39   H25   S    
C25   O9    A    
C16   C34   S    
C38   H22   S    
C28   H1    S    
C1    C9    S    
C19   C20   A    
C33   H13   S    
C42   H33   S    
C35   H15   S    
C39   H26   S    
C31   H7    S    
C4    C12   S    
C21   H39   S    
C33   H10   S    
Cu1   N1    S    
C4    O6    A    
C27   C30   S    
C42   H32   S    
C32   H8    S    
Cu2   N2    S    
C4    O5    A    
Cu1   O9    S    
C9    C43   A    
C6    C47   A    
C31   O11   S    
C42   H35   S    
C14   H37   S    
C10   C24   A    
C25   C26   S    
C17   C21   A    
C43   C44   A    
C37   C38   S    
Cu2   O8    S    
C43   H5    S    
C31   C32   S    
C10   C19   A    
C1    O4    A    
C13   H38   S    
C22   N1    A    
C37   O2    S    
C8    C34   A    
C39   H27   S    
Cu2   O4    S    
C40   C41   S    
C26   C30   T    
C33   H11   S    
C7    C34   A    
C40   H29   S    
C7    H4    S    
C44   C45   A    
C15   C17   A    
C46   C47   A    
Cu1   Cu2   S    
Cu1   O5    S    
C18   C22   A    
C20   H23   S    
C40   O3    S    
C3    C5    A    
C24   N1    A    
C41   H30   S    
C36   H19   S    
C16   O8    A    
C9    C47   A    
C27   C36   S    
C1    O1    A    
Cu1   O7    S    
C37   H21   S    
C32   C33   S    
C2    C3    A    
C11   C13   A    
C40   H28   S    
C25   O10   A    
C23   H3    S    
C38   C39   S    
C11   H36   S    
C6    O11   S    
C44   O3    S    
Cu2   O6    S    
C16   O7    A    
C11   N2    A    
C20   C21   A    
Cu1   O1    S    
C27   C28   D    
C14   C15   A    
C5    H2    S    
C35   H14   S    
C8    H40   S    
C31   H6    S    
C13   C14   A    
C38   H24   S    
