data_mof_unit_38399.cif
_audit_creation_date              2012-12-10T17:58:18-0500
_audit_creation_method            fapswitch 2.2
_symmetry_space_group_name_H-M    P1
_symmetry_Int_Tables_number       1
_space_group_crystal_system       triclinic
_cell_length_a                    9.578456
_cell_length_b                    10.800712
_cell_length_c                    15.461868
_cell_angle_alpha                 88.68127
_cell_angle_beta                  74.491949
_cell_angle_gamma                 89.774468
_cell_volume                      1540.94539978

loop_
_atom_site_label
_atom_site_type_symbol
_atom_type_description
_atom_site_fract_x
_atom_site_fract_y
_atom_site_fract_z
_atom_type_partial_charge
C1    C     C_R   0.000144 0.262493 0.500073 0.962226
C2    C     C_R   0.999851 0.737502 0.499938 0.961567
C3    C     C_R   0.575319 0.573873 0.088714 -0.199451
C4    C     C_R   0.416140 0.478085 0.905182 -0.197608
C5    C     C_R   0.720131 0.589972 0.043273 -0.218362
C6    C     C_R   0.270879 0.464286 0.950260 -0.217990
C7    C     C_R   0.887164 0.063671 0.560414 0.270178
C8    C     C_R   0.112828 0.936312 0.439610 0.270230
C9    C     C_R   0.884579 0.933491 0.558653 0.243088
C10   C     C_R   0.115437 0.066488 0.441391 0.243004
C11   C     C_R   0.999753 0.871568 0.500141 -0.180007
C12   C     C_R   0.000244 0.128419 0.499884 -0.180136
C13   C     C_R   0.551352 0.424330 0.558427 0.410922
C14   C     C_R   0.448622 0.575740 0.441614 0.411833
C15   C     C_R   0.401476 0.424206 0.558333 0.275912
C16   C     C_R   0.598517 0.575829 0.441683 0.276800
C17   C     C_R   0.918356 0.501180 0.672046 0.821156
C18   C     C_R   0.081661 0.499996 0.327877 0.820871
C19   C     C_R   0.872705 0.512863 0.769905 -0.030235
C20   C     C_R   0.126898 0.497910 0.229392 -0.033852
C21   C     C_R   0.916637 0.580197 0.908163 -0.215507
C22   C     C_R   0.077091 0.460268 0.087158 -0.211593
C23   C     C_R   0.967945 0.555692 0.817154 -0.167486
C24   C     C_R   0.028513 0.470932 0.179915 -0.159860
C25   C     C_R   0.727188 0.491551 0.814872 -0.217522
C26   C     C_R   0.272964 0.518349 0.184960 -0.216664
C27   C     C_R   0.671155 0.520385 0.905769 0.085478
C28   C     C_R   0.324438 0.511076 0.091141 0.083542
C29   C     C_R   0.769500 0.563127 0.952694 0.158445
C30   C     C_R   0.223952 0.478878 0.042612 0.158518
C31   C     C_R   0.520822 0.508556 0.950977 0.066492
C32   C     C_R   0.473160 0.530871 0.044774 0.065059
Cu1   Cu    Cu3+1 0.140660 0.500020 0.500000 1.086499
Cu2   Cu    Cu3+1 0.859340 0.499980 0.500000 1.086926
H1    H     H_    0.794198 0.623873 0.079545 0.165709
H2    H     H_    0.194845 0.440433 0.912424 0.163557
H3    H     H_    0.345290 0.536034 0.225732 0.174363
H4    H     H_    0.660014 0.452314 0.776827 0.172883
H5    H     H_    0.915123 0.454515 0.213037 0.175944
H6    H     H_    0.080832 0.573347 0.783389 0.169958
H7    H     H_    0.991509 0.615162 0.943382 0.147152
H8    H     H_    0.000090 0.435257 0.050378 0.148490
H9    H     H_    0.546842 0.599699 0.158048 0.159302
H10   H     H_    0.441606 0.466758 0.833692 0.157969
N1    N     N_R   0.352080 0.500030 0.499980 -0.229530
N2    N     N_R   0.647920 0.499970 0.500020 -0.229044
O1    O     O_R   0.118740 0.319660 0.500000 -0.509424
O2    O     O_R   0.881260 0.680340 0.500000 -0.509515
O3    O     O_R   0.881170 0.319630 0.500010 -0.527014
O4    O     O_R   0.118830 0.680370 0.499990 -0.527675
O5    O     O_R   0.055570 0.500030 0.629830 -0.560499
O6    O     O_R   0.944430 0.499970 0.370170 -0.560806
O7    O     O_R   0.818000 0.500000 0.629840 -0.539527
O8    O     O_R   0.182000 0.500000 0.370160 -0.540263
O9    O     O_3   0.786041 0.129909 0.622994 -0.681182
H11   H     H_    0.748942 0.077524 0.677680 0.338663
O10   O     O_3   0.213924 0.870077 0.377011 -0.681400
H12   H     H_    0.251058 0.922482 0.322340 0.338353
O11   O     O_3   0.772498 0.864546 0.613179 -0.713213
H13   H     H_    0.682186 0.913706 0.624201 0.349272
O12   O     O_3   0.227564 0.135418 0.386902 -0.713516
H14   H     H_    0.317857 0.086232 0.375899 0.349219
O13   O     O_3   0.604360 0.348956 0.615597 -0.642311
H15   H     H_    0.524682 0.307056 0.660401 0.351457
O14   O     O_3   0.395567 0.651170 0.384491 -0.642787
H16   H     H_    0.475138 0.693763 0.340059 0.349840
Cl1   Cl    Cl    0.278849 0.323844 0.632866 -0.605877
Cl2   Cl    Cl    0.721180 0.676124 0.367099 -0.611023

loop_
_geom_bond_atom_site_label_1
_geom_bond_atom_site_label_2
_ccdc_geom_bond_type
C19   C23   A    
O9    H11   S    
C26   H3    S    
C21   C29   A    
Cu2   N2    S    
C17   O7    A    
C25   H4    S    
Cu1   O5    S    
Cu1   N1    S    
C26   C28   A    
C31   C32   A    
C13   O13   S    
C7    O9    S    
C3    C5    A    
C15   Cl1   S    
C17   O5    A    
C28   C30   A    
Cu1   Cu2   S    
C18   O6    A    
O11   H13   S    
C20   C24   A    
C9    C11   A    
C3    H9    S    
O10   H12   S    
C22   H8    S    
C1    C12   S    
C20   C26   A    
Cu2   O7    S    
C8    C11   A    
C16   Cl2   S    
C2    C11   S    
C10   C12   A    
C22   C24   A    
C8    C10   A    
C17   C19   S    
C14   O14   S    
C6    H2    S    
C14   N1    A    
C5    C29   A    
C13   C15   A    
C21   C23   A    
C3    C32   A    
Cu1   O1    S    
C14   C16   A    
C7    C12   A    
C10   O12   S    
C27   C29   A    
O12   H14   S    
C15   N1    A    
C19   C25   A    
C27   C31   A    
C23   H6    S    
C4    C31   A    
C5    H1    S    
C2    O4    A    
C28   C32   A    
C24   H5    S    
Cu2   O2    S    
C18   C20   S    
C4    C6    A    
O14   H16   S    
C21   H7    S    
C16   N2    A    
Cu1   O8    S    
C7    C9    A    
C18   O8    A    
C13   N2    A    
C1    O1    A    
Cu2   O3    S    
C22   C30   A    
C2    O2    A    
Cu1   O4    S    
Cu2   O6    S    
C6    C30   A    
C8    O10   S    
O13   H15   S    
C4    H10   S    
C9    O11   S    
C25   C27   A    
C1    O3    A    
