data_mof_unit_11957.cif
_audit_creation_date              2012-12-10T16:47:17-0500
_audit_creation_method            fapswitch 2.2
_symmetry_space_group_name_H-M    P1
_symmetry_Int_Tables_number       1
_space_group_crystal_system       triclinic
_cell_length_a                    12.13947
_cell_length_b                    12.263891
_cell_length_c                    7.786698
_cell_angle_alpha                 90.105463
_cell_angle_beta                  94.693105
_cell_angle_gamma                 89.74352
_cell_volume                      1155.36173898

loop_
_atom_site_label
_atom_site_type_symbol
_atom_type_description
_atom_site_fract_x
_atom_site_fract_y
_atom_site_fract_z
_atom_type_partial_charge
C1    C     C_R   0.352558 0.853417 0.454262 0.864808
C2    C     C_2   0.710650 0.753104 0.556317 0.220655
C3    C     C_2   0.709384 0.245707 0.558923 0.218014
C4    C     C_2   0.272895 0.770599 0.428284 0.174450
C5    C     C_2   0.791465 0.749111 0.446678 0.216005
C6    C     C_2   0.233038 0.276728 0.575539 0.160627
C7    C     C_2   0.211456 0.743874 0.560003 0.217996
C8    C     C_2   0.768542 0.275033 0.425815 0.168139
C9    C     C_3   0.875388 0.828643 0.217210 -0.253155
C10   C     C_3   0.306450 0.276340 0.854398 -0.172110
C11   C     C_3   0.120045 0.878953 0.690155 -0.302721
C12   C     C_R   0.642894 0.151255 0.543130 0.869073
C13   C     C_3   0.691791 0.276561 0.148953 -0.174243
C14   C     C_3   0.378515 0.388333 0.318616 -0.353210
C15   C     C_3   0.639735 0.678797 0.799953 -0.259223
C16   C     C_3   0.618536 0.377109 0.696938 -0.370881
C17   C     C_3   0.218012 0.770241 0.138905 -0.147566
C18   C     C_R   0.642384 0.847932 0.543456 0.894861
C19   C     C_R   0.358094 0.152244 0.457394 0.839622
C20   C     C_R   0.851482 0.354554 0.453866 0.883461
C21   C     C_R   0.143560 0.650612 0.543512 0.836167
C22   C     C_R   0.149021 0.355175 0.546344 0.872653
C23   C     C_R   0.858399 0.652910 0.457127 0.843278
C24   C     C_2   0.293315 0.248173 0.443182 0.222030
H1    H     H_    0.824630 0.773139 0.129956 0.174155
H2    H     H_    0.723386 0.358934 0.121555 0.185561
H3    H     H_    0.607241 0.283485 0.193080 0.114766
H4    H     H_    0.684969 0.229834 0.026638 0.250632
H5    H     H_    0.460699 0.350674 0.354353 0.127800
H6    H     H_    0.358044 0.448665 0.418254 0.168837
H7    H     H_    0.384564 0.433044 0.196096 0.195593
H8    H     H_    0.552002 0.705859 0.789256 0.191756
H9    H     H_    0.693848 0.738025 0.874909 0.180277
H10   H     H_    0.642939 0.601955 0.874238 0.159335
H11   H     H_    0.539342 0.334402 0.661136 0.127848
H12   H     H_    0.961616 0.798468 0.241249 0.165366
H13   H     H_    0.631304 0.442359 0.601726 0.207418
H14   H     H_    0.610834 0.415583 0.824192 0.180806
H15   H     H_    0.279768 0.812693 0.066207 0.236634
H16   H     H_    0.155654 0.830007 0.179706 0.093744
H17   H     H_    0.173491 0.712443 0.048727 0.219581
H18   H     H_    0.694148 0.996568 0.092529 0.362136
H19   H     H_    0.306069 0.009748 0.907305 0.361303
H20   H     H_    0.194119 0.500797 0.092405 0.358718
H21   H     H_    0.806266 0.498135 0.907237 0.352393
H22   H     H_    0.879652 0.908067 0.150308 0.190992
H23   H     H_    0.278822 0.361543 0.873945 0.182421
H24   H     H_    0.393107 0.276106 0.818612 0.124521
H25   H     H_    0.305635 0.233139 0.979066 0.254182
H26   H     H_    0.039604 0.835683 0.669519 0.169390
H27   H     H_    0.130033 0.936848 0.582600 0.167575
H28   H     H_    0.118027 0.927448 0.810231 0.195021
N1    N     N_2   0.541470 1.000000 0.055820 0.170622
N2    N     N_2   0.458530 0.000000 0.944180 0.174345
N3    N     N_2   0.041470 0.500000 0.055820 0.186542
N4    N     N_2   0.958530 0.500000 0.944180 0.189459
O1    O     O_R   0.375700 0.885870 0.609240 -0.599469
O2    O     O_R   0.597720 0.114130 0.675960 -0.571909
O3    O     O_R   0.597720 0.885870 0.675960 -0.607969
O4    O     O_R   0.402280 0.114130 0.324040 -0.570361
O5    O     O_R   0.902280 0.385870 0.324040 -0.559344
O6    O     O_R   0.097720 0.614130 0.675960 -0.583438
O7    O     O_R   0.097720 0.385870 0.675960 -0.560495
O8    O     O_R   0.902280 0.614130 0.324040 -0.619127
O9    O     O_3   0.827773 0.845865 0.374179 -0.640951
O10   O     O_3   0.235780 0.220637 0.730957 -0.602471
O11   O     O_3   0.209590 0.805039 0.710080 -0.621260
O12   O     O_R   0.624300 0.114130 0.390760 -0.606468
O13   O     O_3   0.764268 0.219954 0.269153 -0.589163
O14   O     O_3   0.295173 0.308764 0.293014 -0.599659
O15   O     O_3   0.675558 0.658084 0.634952 -0.661014
O16   O     O_3   0.709454 0.304756 0.711088 -0.593759
O17   O     O_3   0.272459 0.710446 0.276342 -0.631810
O18   O     O_3   0.639934 0.996025 0.990453 -0.664018
O19   O     O_3   0.360224 0.007411 0.009412 -0.674023
O20   O     O_3   0.139888 0.500205 0.990364 -0.675001
O21   O     O_3   0.860127 0.500843 0.009491 -0.681141
O22   O     O_R   0.624300 0.885870 0.390760 -0.600229
O23   O     O_R   0.375700 0.114130 0.609240 -0.617878
O24   O     O_R   0.875700 0.385870 0.609240 -0.582610
O25   O     O_R   0.124300 0.614130 0.390760 -0.618094
O26   O     O_R   0.124300 0.385870 0.390760 -0.587037
O27   O     O_R   0.875700 0.614130 0.609240 -0.608479
O28   O     O_R   0.402280 0.885870 0.324040 -0.584861
Zn1   Zn    Zn3+2 0.482250 0.000000 0.690430 1.042688
Zn2   Zn    Zn3+2 0.517750 1.000000 0.309570 1.054105
Zn3   Zn    Zn3+2 0.982250 0.500000 0.690430 1.070244
Zn4   Zn    Zn3+2 0.017750 0.500000 0.309570 1.056542

loop_
_geom_bond_atom_site_label_1
_geom_bond_atom_site_label_2
_ccdc_geom_bond_type
O27   Zn3   S    
N3    N4    D    
C2    C18   S    
O12   Zn2   S    
N1    O18   S    
C16   O16   S    
C14   H7    S    
C24   O14   S    
C15   H8    S    
N1    N2    D    
C1    O28   A    
C12   O12   A    
C8    O13   S    
C8    C20   S    
C23   O27   A    
C22   O26   A    
O28   Zn2   S    
O24   Zn3   S    
C16   H11   S    
C6    C22   S    
C20   O5    A    
C17   H15   S    
N3    Zn4   S    
H20   O20   S    
C11   H28   S    
C22   O7    A    
C9    H12   S    
C13   H4    S    
N1    Zn2   S    
C3    C12   S    
C15   H10   S    
C16   H13   S    
C12   O2    A    
O22   Zn2   S    
C9    H22   S    
C17   O17   S    
C14   O14   S    
C14   H6    S    
C4    C7    D    
C11   O11   S    
C17   H17   S    
C10   O10   S    
H19   O19   S    
H18   O18   S    
C20   O24   A    
C9    H1    S    
C5    O9    S    
C3    C8    D    
O4    Zn2   S    
N4    Zn3   S    
C7    C21   S    
N4    O21   S    
C17   H16   S    
O3    Zn1   S    
O5    Zn4   S    
C1    O1    A    
C5    C23   S    
C18   O22   A    
C6    C24   D    
C4    O17   S    
C19   O23   A    
C21   O6    A    
N3    O20   S    
C23   O8    A    
C21   O25   A    
C10   H24   S    
C13   H2    S    
C2    C5    D    
C14   H5    S    
C2    O15   S    
O2    Zn1   S    
O23   Zn1   S    
O7    Zn3   S    
C15   H9    S    
N2    Zn1   S    
C19   O4    A    
C15   O15   S    
O6    Zn3   S    
C1    C4    S    
C3    O16   S    
C11   H26   S    
C13   O13   S    
O26   Zn4   S    
O1    Zn1   S    
C19   C24   S    
C9    O9    S    
O25   Zn4   S    
C11   H27   S    
C7    O11   S    
N2    O19   S    
C18   O3    A    
C6    O10   S    
C10   H23   S    
C13   H3    S    
H21   O21   S    
C10   H25   S    
O8    Zn4   S    
C16   H14   S    
