data_mof_unit_63294.cif
_audit_creation_date              2012-12-10T17:23:33-0500
_audit_creation_method            fapswitch 2.2
_symmetry_space_group_name_H-M    P1
_symmetry_Int_Tables_number       1
_space_group_crystal_system       triclinic
_cell_length_a                    18.822017
_cell_length_b                    18.803793
_cell_length_c                    18.89332
_cell_angle_alpha                 109.606356
_cell_angle_beta                  109.699878
_cell_angle_gamma                 109.441973
_cell_volume                      5126.13683647

loop_
_atom_site_label
_atom_site_type_symbol
_atom_type_description
_atom_site_fract_x
_atom_site_fract_y
_atom_site_fract_z
_atom_type_partial_charge
C1    C     C_R   0.380883 0.499719 0.381169 0.856920
C2    C     C_R   0.812898 0.826363 0.573690 -0.081904
C3    C     C_3   0.862016 0.889963 0.669338 0.002359
C4    C     C_3   0.796974 0.816655 0.673933 0.488538
C5    C     C_R   0.239113 0.420573 0.244483 0.492416
C6    C     C_R   0.174053 0.422952 0.183333 -0.331797
C7    C     C_R   0.186041 0.502444 0.188279 -0.111890
C8    C     C_R   0.261576 0.581642 0.258134 0.270301
C9    C     C_R   0.324850 0.579410 0.321132 -0.336628
C10   C     C_R   0.313805 0.499625 0.314436 -0.139811
C11   C     C_R   0.320602 0.237836 0.496387 0.280169
C12   C     C_R   0.620174 0.618896 0.501590 0.816375
C13   C     C_R   0.255374 0.175973 0.498325 -0.279185
C14   C     C_R   0.186204 0.186625 0.501347 -0.168628
C15   C     C_R   0.180845 0.259786 0.503302 0.495424
C16   C     C_R   0.248103 0.324297 0.506758 -0.287233
C17   C     C_R   0.316535 0.313158 0.501681 -0.155723
C18   C     C_R   0.747304 0.485361 0.673935 -0.334690
C19   C     C_R   0.815034 0.490534 0.739431 0.442376
C20   C     C_R   0.813679 0.501083 0.816010 -0.185268
C21   C     C_R   0.747604 0.511354 0.829498 0.130553
C22   C     C_R   0.680971 0.509075 0.764132 0.203835
C23   C     C_R   0.616755 0.497956 0.618926 0.829241
C24   C     C_R   0.681802 0.496356 0.686435 -0.155691
C25   C     C_R   0.999110 0.880721 0.381420 0.830989
C26   C     C_R   0.881217 0.881221 0.499430 0.862092
C27   C     C_R   0.999800 0.118887 0.619155 0.811744
C28   C     C_R   0.118980 0.119764 0.501021 0.851881
C29   C     C_R   0.999765 0.619896 0.118502 0.804321
C30   C     C_R   0.119028 0.501066 0.119834 0.847206
C31   C     C_R   0.000155 0.381224 0.881744 0.833241
C32   C     C_R   0.881053 0.500158 0.881547 0.893534
C33   C     C_R   0.056637 0.842968 0.283583 0.181197
C34   C     C_R   0.382240 0.380807 0.500869 0.814639
C35   C     C_R   0.056100 0.779511 0.217389 0.239186
C36   C     C_R   0.000012 0.689416 0.184502 -0.125606
C37   C     C_R   0.944256 0.665336 0.216551 -0.243657
C38   C     C_R   0.944588 0.728480 0.281128 -0.225639
C39   C     C_R   0.000878 0.816507 0.314937 -0.086537
C40   C     C_R   0.960787 0.233341 0.665962 -0.161230
C41   C     C_R   0.961956 0.297798 0.730573 -0.241704
C42   C     C_R   0.000756 0.314318 0.816004 -0.028148
C43   C     C_R   0.039475 0.266739 0.837643 0.257213
C44   C     C_R   0.037838 0.201896 0.772322 -0.246332
C45   C     C_R   0.753942 0.763491 0.576273 -0.029446
C46   C     C_R   0.999162 0.185375 0.686569 -0.052648
C47   C     C_R   0.686510 0.684993 0.501006 -0.148947
C48   C     C_R   0.684035 0.671278 0.421788 -0.289540
C49   C     C_R   0.746615 0.736467 0.419383 0.473611
C50   C     C_R   0.813927 0.814701 0.497838 -0.161078
Cu1   Cu    Cu3+1 0.499970 0.561780 0.561770 0.957967
Cu2   Cu    Cu3+1 0.500030 0.438220 0.438230 0.959154
Cu3   Cu    Cu3+1 0.061810 0.000000 0.561760 0.938791
Cu4   Cu    Cu3+1 0.938190 0.000070 0.438240 0.952319
Cu5   Cu    Cu3+1 0.938200 0.438300 0.000110 0.965494
Cu6   Cu    Cu3+1 0.061800 0.561880 0.000070 0.966249
H1    H     H_    0.633881 0.610289 0.362011 0.167914
H2    H     H_    0.382868 0.640028 0.375438 0.158025
H3    H     H_    0.257278 0.118794 0.497148 0.164424
H4    H     H_    0.246299 0.382817 0.512169 0.170138
H5    H     H_    0.746839 0.474434 0.613666 0.181350
H6    H     H_    0.900455 0.597353 0.192121 0.183773
H7    H     H_    0.901096 0.708714 0.305144 0.176793
H8    H     H_    0.930774 0.221758 0.600215 0.167270
H9    H     H_    0.932314 0.334649 0.713987 0.177721
H10   H     H_    0.067751 0.165292 0.789013 0.148249
H11   H     H_    0.930880 0.904954 0.701072 0.105158
H12   H     H_    0.114634 0.362551 0.130985 0.181038
O1    O     O_R   0.409790 0.552170 0.461990 -0.594226
O2    O     O_R   0.947790 0.909920 0.357650 -0.576095
O3    O     O_R   0.962030 0.909820 0.552150 -0.597203
O4    O     O_R   0.857630 0.909880 0.447840 -0.580131
O5    O     O_R   0.052210 0.090150 0.642360 -0.592003
O6    O     O_R   0.947820 0.090210 0.538040 -0.593510
O7    O     O_R   0.142360 0.090190 0.552160 -0.595443
O8    O     O_R   0.037970 0.090250 0.447850 -0.572876
O9    O     O_R   0.947800 0.538090 0.090240 -0.591624
O10   O     O_R   0.052170 0.642450 0.090210 -0.553677
O11   O     O_R   0.038000 0.447920 0.090280 -0.592355
O12   O     O_R   0.409840 0.447810 0.357660 -0.566741
O13   O     O_R   0.142370 0.552280 0.090250 -0.563273
O14   O     O_R   0.947830 0.357730 0.909970 -0.582115
O15   O     O_R   0.052200 0.462090 0.909940 -0.589047
O16   O     O_R   0.857630 0.447900 0.909930 -0.568806
O17   O     O_R   0.962000 0.552260 0.909900 -0.587737
O18   O     O_R   0.590140 0.642360 0.552170 -0.581101
O19   O     O_R   0.590190 0.538010 0.447840 -0.595793
O20   O     O_R   0.590160 0.552190 0.642340 -0.561685
O21   O     O_R   0.590210 0.447830 0.538010 -0.601153
O22   O     O_R   0.409810 0.461990 0.552160 -0.584099
O23   O     O_R   0.409860 0.357640 0.447830 -0.562328
O24   O     O_R   0.052180 0.909860 0.461960 -0.598502
N1    N     N_2   0.390795 0.226786 0.490945 -0.405012
H13   H     H_    0.451851 0.281893 0.530505 0.245035
C51   C     C_3   0.390690 0.146209 0.477129 -0.688195
H14   H     H_    0.445475 0.147130 0.466548 0.228389
H15   H     H_    0.328880 0.089460 0.418195 0.239348
H16   H     H_    0.399667 0.139385 0.535231 0.218757
O25   O     O_3   0.114542 0.271835 0.510964 -0.575288
C52   C     C_3   0.060291 0.267024 0.434599 -0.282727
H17   H     H_    0.001706 0.265706 0.436726 0.184911
H18   H     H_    0.037252 0.206140 0.374997 0.159872
H19   H     H_    0.093762 0.325391 0.430574 0.156179
O26   O     O_3   0.878323 0.476848 0.725810 -0.580080
C53   C     C_3   0.933428 0.549421 0.725983 -0.292770
H20   H     H_    0.989652 0.542735 0.725470 0.188590
H21   H     H_    0.960102 0.611931 0.785698 0.158763
H22   H     H_    0.899141 0.551743 0.666746 0.152514
N2    N     N_2   0.748407 0.523059 0.908440 -0.411999
H23   H     H_    0.687840 0.492963 0.901787 0.259302
C54   C     C_3   0.803826 0.612086 0.980342 -0.693017
H24   H     H_    0.779350 0.654621 0.965885 0.212312
H25   H     H_    0.871736 0.637530 0.993098 0.214131
H26   H     H_    0.804245 0.614237 0.039924 0.237240
N3    N     N_2   0.613903 0.520448 0.776377 -0.410582
H27   H     H_    0.633560 0.564075 0.839010 0.252760
C55   C     C_3   0.533377 0.440142 0.736822 -0.657790
H28   H     H_    0.544201 0.400646 0.767323 0.209266
H29   H     H_    0.507466 0.401495 0.666050 0.211654
H30   H     H_    0.483874 0.455469 0.745815 0.230456
N4    N     N_2   0.114531 0.933282 0.319258 -0.455271
H31   H     H_    0.148826 0.969643 0.386290 0.237945
C56   C     C_3   0.079810 0.975781 0.277879 -0.672777
H32   H     H_    0.067332 0.020531 0.321007 0.228129
H33   H     H_    0.017479 0.927961 0.215015 0.226814
H34   H     H_    0.128317 0.014645 0.265695 0.233272
O27   O     O_3   0.747253 0.720969 0.342681 -0.584380
C57   C     C_3   0.674510 0.719145 0.285537 -0.301684
H35   H     H_    0.671339 0.778964 0.316965 0.160751
H36   H     H_    0.612666 0.659630 0.260310 0.149891
H37   H     H_    0.681170 0.717093 0.228843 0.188562
N5    N     N_2   0.115476 0.806541 0.188180 -0.398656
H38   H     H_    0.176304 0.859584 0.236608 0.261448
C58   C     C_3   0.080358 0.813854 0.111611 -0.623145
H39   H     H_    0.072030 0.871758 0.127650 0.212694
H40   H     H_    0.016536 0.754604 0.059340 0.219509
H41   H     H_    0.126312 0.821334 0.086543 0.214914
N6    N     N_2   0.082156 0.285411 0.925059 -0.446943
H42   H     H_    0.075944 0.230825 0.929837 0.240384
C59   C     C_3   0.172084 0.355530 0.976363 -0.718042
H43   H     H_    0.210580 0.338556 0.947184 0.229116
H44   H     H_    0.201304 0.366278 0.043299 0.219670
H45   H     H_    0.176079 0.417168 0.980473 0.247318
N7    N     N_2   0.854756 0.968628 0.694252 -0.424103
H46   H     H_    0.911849 0.024437 0.745890 0.247296
C60   C     C_3   0.804264 0.982624 0.628637 -0.650542
H47   H     H_    0.799591 0.040936 0.660827 0.224387
H48   H     H_    0.737007 0.925663 0.583962 0.224096
H49   H     H_    0.836672 0.994404 0.591201 0.219738
N8    N     N_2   0.840057 0.780795 0.719453 -0.451230
H50   H     H_    0.891669 0.779757 0.712093 0.224799
C61   C     C_3   0.784762 0.700941 0.712335 -0.643923
H51   H     H_    0.824623 0.689566 0.761181 0.210476
H52   H     H_    0.755705 0.645043 0.646598 0.200587
H53   H     H_    0.732651 0.705267 0.725283 0.271561
N9    N     N_2   0.739410 0.837044 0.702088 -0.383484
H54   H     H_    0.699676 0.851710 0.663839 0.256293
C62   C     C_3   0.776836 0.892983 0.794601 -0.639872
H55   H     H_    0.724794 0.897814 0.807502 0.208466
H56   H     H_    0.827878 0.959573 0.817788 0.230161
H57   H     H_    0.805579 0.865573 0.832056 0.241815
O28   O     O_3   0.226656 0.342606 0.241797 -0.573318
C63   C     C_3   0.224094 0.288341 0.167080 -0.303975
H58   H     H_    0.280629 0.323323 0.161123 0.155049
H59   H     H_    0.161596 0.260584 0.107169 0.151860
H60   H     H_    0.227970 0.232795 0.172879 0.191015
N10   N     N_2   0.273493 0.663472 0.266314 -0.412165
H61   H     H_    0.338055 0.710879 0.296967 0.242816
C64   C     C_3   0.226101 0.695147 0.302001 -0.647980
H62   H     H_    0.251534 0.709698 0.370472 0.214714
H63   H     H_    0.155288 0.646222 0.263027 0.218246
H64   H     H_    0.234401 0.755913 0.300709 0.224977

loop_
_geom_bond_atom_site_label_1
_geom_bond_atom_site_label_2
_ccdc_geom_bond_type
C62   H56   S    
Cu5   Cu6   S    
N1    H13   S    
C31   C42   S    
C26   O4    A    
C41   C42   A    
C44   H10   S    
C51   H14   S    
C59   H45   S    
C57   H35   S    
C58   H41   S    
C38   H7    S    
C37   H6    S    
C51   H16   S    
Cu6   O10   S    
C56   H32   S    
N10   C64   S    
C26   C50   S    
Cu3   Cu4   S    
C40   C46   A    
C53   H21   S    
C29   C36   S    
C33   C39   A    
C31   O14   A    
C18   C24   A    
C36   C37   A    
C63   H59   S    
C59   H44   S    
C18   C19   A    
N2    C54   S    
Cu1   O22   S    
C16   H4    S    
C5    C6    A    
Cu5   O9    S    
C56   H33   S    
C15   C16   A    
C31   O15   A    
C43   N6    S    
C9    H2    S    
C64   H62   S    
C34   O23   A    
C2    C50   A    
C62   H57   S    
Cu4   O6    S    
C11   C17   A    
C29   O10   A    
C63   H58   S    
C8    C9    A    
N3    C55   S    
C23   C24   S    
C23   O21   A    
C27   O6    A    
C9    C10   A    
C27   O5    A    
C11   N1    S    
C6    H12   S    
N1    C51   S    
C7    C30   S    
C13   C14   A    
C33   N4    S    
C26   O3    A    
C64   H63   S    
Cu2   O21   S    
Cu3   O7    S    
C12   C47   S    
C32   O16   A    
Cu1   O18   S    
O26   C53   S    
C44   C46   A    
C60   H48   S    
C4    C45   S    
C45   C47   A    
C2    C45   A    
C49   O27   S    
C53   H22   S    
Cu3   O5    S    
C3    N7    S    
Cu1   Cu2   S    
Cu6   O13   S    
C63   H60   S    
C59   H43   S    
N7    C60   S    
C55   H30   S    
N10   H61   S    
C16   C17   A    
C56   H34   S    
C58   H40   S    
C52   H19   S    
C1    O1    A    
C3    C4    S    
C35   C36   A    
C43   C44   A    
C34   O22   A    
C22   N3    S    
C37   C38   A    
C8    N10   S    
C60   H49   S    
Cu5   O11   S    
C19   O26   S    
C47   C48   A    
Cu4   O2    S    
C61   H53   S    
C54   H24   S    
Cu3   O24   S    
C52   H18   S    
C29   O9    A    
C54   H25   S    
C20   C21   A    
Cu5   O14   S    
N4    H31   S    
C6    C7    A    
N6    C59   S    
Cu4   O8    S    
C30   O11   A    
C27   C46   S    
C40   C41   A    
C4    N9    S    
C61   H52   S    
C23   O20   A    
C62   H55   S    
C64   H64   S    
C22   C24   A    
C42   C43   A    
O27   C57   S    
C28   O8    A    
C57   H37   S    
Cu6   O15   S    
C60   H47   S    
C20   C32   S    
N9    H54   S    
C25   O24   A    
C12   O19   A    
C14   C15   A    
Cu2   O19   S    
C3    H11   S    
C1    C10   S    
C15   O25   S    
N7    H46   S    
C57   H36   S    
Cu1   O20   S    
C21   N2    S    
C51   H15   S    
C18   H5    S    
C58   H39   S    
C13   H3    S    
O28   C63   S    
C4    N8    S    
C53   H20   S    
C40   H8    S    
O25   C52   S    
C12   O18   A    
C5    O28   S    
C19   C20   A    
C55   H29   S    
C2    C3    S    
C5    C10   A    
Cu2   O12   S    
C55   H28   S    
C25   C39   S    
C11   C13   A    
Cu6   O17   S    
C38   C39   A    
C30   O13   A    
C48   C49   A    
C32   O17   A    
N9    C62   S    
C52   H17   S    
C33   C35   A    
N5    H38   S    
C54   H26   S    
N8    C61   S    
C41   H9    S    
N4    C56   S    
C7    C8    A    
N6    H42   S    
C48   H1    S    
Cu4   O4    S    
C61   H51   S    
N5    C58   S    
C49   C50   A    
C17   C34   S    
N2    H23   S    
C1    O12   A    
N8    H50   S    
Cu2   O23   S    
C25   O2    A    
Cu1   O1    S    
C14   C28   S    
Cu5   O16   S    
C21   C22   A    
C28   O7    A    
C35   N5    S    
N3    H27   S    
Cu3   O3    S    
