data_mof_unit_39223.cif
_audit_creation_date              2012-12-10T17:06:43-0500
_audit_creation_method            fapswitch 2.2
_symmetry_space_group_name_H-M    P1
_symmetry_Int_Tables_number       1
_space_group_crystal_system       triclinic
_cell_length_a                    15.844021
_cell_length_b                    11.091453
_cell_length_c                    9.860862
_cell_angle_alpha                 111.626708
_cell_angle_beta                  98.155317
_cell_angle_gamma                 90.948498
_cell_volume                      1590.13589848

loop_
_atom_site_label
_atom_site_type_symbol
_atom_type_description
_atom_site_fract_x
_atom_site_fract_y
_atom_site_fract_z
_atom_type_partial_charge
C1    C     C_R   0.495389 0.254375 0.440448 0.863527
C2    C     C_R   0.504614 0.745629 0.559550 0.863474
C3    C     C_2   0.514325 0.067308 0.512091 0.386481
C4    C     C_2   0.485828 0.932663 0.487808 0.385895
C5    C     C_2   0.509821 0.505567 0.079853 0.132747
C6    C     C_2   0.490182 0.494424 0.920146 0.132753
C7    C     C_R   0.339937 0.499490 0.501012 0.793493
C8    C     C_R   0.660062 0.500489 0.498983 0.793724
C9    C     C_3   0.973277 0.406248 0.538849 0.542015
C10   C     C_3   0.026722 0.593677 0.461124 0.541991
C11   C     C_3   0.018040 0.383403 0.403317 -0.306920
C12   C     C_3   0.981958 0.616522 0.596656 -0.306929
C13   C     C_1   0.250439 0.498980 0.503253 -0.174593
C14   C     C_1   0.749560 0.500974 0.496734 -0.174575
C15   C     C_3   0.039055 0.519006 0.638807 -0.297845
C16   C     C_3   0.960944 0.480919 0.361167 -0.297833
C17   C     C_3   0.083110 0.498010 0.502510 0.072144
C18   C     C_3   0.916888 0.501915 0.497463 0.072147
C19   C     C_1   0.174889 0.498412 0.503631 0.002682
C20   C     C_1   0.825109 0.501525 0.496349 0.002693
C21   C     C_2   0.488314 0.115564 0.407782 -0.438643
C22   C     C_2   0.511718 0.884440 0.592194 -0.438763
Cu1   Cu    Cu3+1 0.514700 0.521810 0.644910 0.969339
Cu2   Cu    Cu3+1 0.485300 0.478190 0.355090 0.969210
H1    H     H_    0.927860 0.467112 0.248863 0.153107
H2    H     H_    0.072139 0.532815 0.751110 0.153079
N1    N     N_2   0.463210 0.445420 0.137360 -0.038744
N2    N     N_2   0.536790 0.554580 0.862640 -0.038629
O1    O     O_R   0.507840 0.332340 0.577400 -0.517680
O2    O     O_R   0.492160 0.667660 0.422600 -0.517680
O3    O     O_R   0.483020 0.295500 0.332650 -0.628806
O4    O     O_R   0.516980 0.704500 0.667350 -0.628815
O5    O     O_R   0.391490 0.518400 0.622350 -0.596931
O6    O     O_R   0.608510 0.481600 0.377650 -0.596901
O7    O     O_R   0.366660 0.481570 0.377600 -0.563214
O8    O     O_R   0.633340 0.518430 0.622400 -0.563274
H3    H     H_    0.034255 0.288175 0.326201 0.146030
H4    H     H_    0.965744 0.711751 0.673773 0.146027
O9    O     O_3   0.938045 0.309097 0.579230 -0.581771
C23   C     C_3   0.003291 0.233680 0.610062 0.069451
H5    H     H_    0.053255 0.294923 0.702446 0.143798
H6    H     H_    0.033269 0.183308 0.510479 0.138012
C24   C     C_3   0.964812 0.130805 0.655920 -0.817693
H7    H     H_    0.915223 0.066831 0.565344 0.243426
H8    H     H_    0.015560 0.070546 0.680420 0.207302
H9    H     H_    0.935175 0.178024 0.756374 0.248981
O10   O     O_3   0.061958 0.690820 0.420735 -0.581752
C25   C     C_3   0.996721 0.766266 0.389943 0.069432
H10   H     H_    0.966782 0.816677 0.489562 0.138023
H11   H     H_    0.946726 0.705039 0.297605 0.143781
C26   C     C_3   0.035201 0.869096 0.344018 -0.817588
H12   H     H_    0.064782 0.821835 0.243510 0.248892
H13   H     H_    0.984464 0.929399 0.319580 0.207274
H14   H     H_    0.084835 0.933036 0.434533 0.243509
O11   O     O_3   0.436380 0.854997 0.354455 -0.570186
C27   C     C_3   0.349282 0.882009 0.357028 0.021427
H15   H     H_    0.322370 0.885608 0.248379 0.159198
H16   H     H_    0.338667 0.977447 0.442638 0.115322
C28   C     C_3   0.299058 0.773639 0.378063 -0.702362
H17   H     H_    0.321812 0.770769 0.488521 0.219397
H18   H     H_    0.230096 0.791362 0.370231 0.220902
H19   H     H_    0.306995 0.678534 0.290996 0.277280
O12   O     O_3   0.563818 0.144972 0.645400 -0.570239
C29   C     C_3   0.650885 0.117795 0.642794 0.021914
H20   H     H_    0.661351 0.021747 0.558167 0.115207
H21   H     H_    0.677992 0.115438 0.751936 0.159666
C30   C     C_3   0.701004 0.225159 0.619752 -0.704348
H22   H     H_    0.693319 0.320827 0.706022 0.277361
H23   H     H_    0.769925 0.207237 0.627351 0.221428
H24   H     H_    0.677984 0.226934 0.508885 0.219227
H25   H     H_    0.544230 0.946771 0.700994 0.136529
H26   H     H_    0.455753 0.053257 0.299011 0.136479
H27   H     H_    0.433407 0.436133 0.850653 0.140281
H28   H     H_    0.566602 0.563841 0.149338 0.140384
O13   O     O_3   0.614293 0.604248 0.943284 -0.515984
C31   C     C_3   0.627523 0.731402 0.947402 0.228870
H29   H     H_    0.567770 0.783742 0.956833 0.139271
H30   H     H_    0.653191 0.728893 0.847508 0.169105
C32   C     C_3   0.693175 0.808022 0.082064 -0.906421
H31   H     H_    0.754348 0.760243 0.076245 0.256299
H32   H     H_    0.704951 0.908350 0.086058 0.209508
H33   H     H_    0.669189 0.813260 0.184495 0.252664
O14   O     O_3   0.385696 0.395811 0.056748 -0.516169
C33   C     C_3   0.372447 0.268649 0.052566 0.228735
H34   H     H_    0.346887 0.271128 0.152538 0.169224
H35   H     H_    0.432167 0.216243 0.042894 0.139196
C34   C     C_3   0.306664 0.192166 0.918066 -0.906417
H36   H     H_    0.330505 0.187037 0.815540 0.252592
H37   H     H_    0.294936 0.091804 0.913976 0.209523
H38   H     H_    0.245500 0.239979 0.924202 0.256276

loop_
_geom_bond_atom_site_label_1
_geom_bond_atom_site_label_2
_ccdc_geom_bond_type
C34   H36   S    
C1    C21   S    
C31   C32   S    
C9    O9    S    
C24   H7    S    
Cu1   O1    S    
C31   H30   S    
C5    C6    S    
C10   C17   S    
C1    O3    A    
C27   H15   S    
C2    O4    A    
C8    O8    A    
C5    H28   S    
C11   H3    S    
C5    N1    D    
C25   C26   S    
C11   C17   S    
O14   C33   S    
Cu1   O5    S    
C2    C22   S    
Cu1   Cu2   S    
C33   C34   S    
C23   H6    S    
C28   H17   S    
C7    O5    A    
C23   C24   S    
C6    N2    D    
C28   H18   S    
Cu2   O7    S    
C13   C19   T    
C21   H26   S    
C26   H12   S    
C29   C30   S    
C14   C20   T    
C31   H29   S    
O9    C23   S    
C32   H32   S    
C15   H2    S    
Cu2   O6    S    
C30   H22   S    
C30   H23   S    
C29   H21   S    
O13   C31   S    
C4    C22   D    
C11   C16   S    
O10   C25   S    
C12   C15   S    
Cu2   N1    S    
O11   C27   S    
C1    O1    A    
C8    O6    A    
Cu1   N2    S    
C33   H34   S    
C24   H8    S    
C10   C12   S    
C25   H10   S    
C9    C11   S    
C4    O11   S    
C32   H31   S    
C3    C21   D    
C3    C4    S    
C22   H25   S    
C6    H27   S    
C16   H1    S    
C15   C17   S    
C23   H5    S    
C28   H19   S    
C8    C14   S    
C7    O7    A    
C33   H35   S    
C32   H33   S    
C3    O12   S    
C27   C28   S    
C2    O2    A    
C30   H24   S    
Cu1   O4    S    
C26   H14   S    
N1    O14   S    
C9    C15   S    
Cu2   O3    S    
C10   C16   S    
C29   H20   S    
C25   H11   S    
C17   C19   S    
C27   H16   S    
C18   C20   S    
C12   H4    S    
C24   H9    S    
Cu2   O2    S    
O12   C29   S    
C9    C18   S    
C7    C13   S    
C16   C18   S    
Cu1   O8    S    
C34   H38   S    
C12   C18   S    
C10   O10   S    
C34   H37   S    
C26   H13   S    
N2    O13   S    
