data_mof_unit_10654.cif
_audit_creation_date              2012-12-10T20:55:07-0500
_audit_creation_method            fapswitch 2.2
_symmetry_space_group_name_H-M    P1
_symmetry_Int_Tables_number       1
_space_group_crystal_system       triclinic
_cell_length_a                    15.869915
_cell_length_b                    15.081644
_cell_length_c                    10.633709
_cell_angle_alpha                 90.951696
_cell_angle_beta                  90.915226
_cell_angle_gamma                 91.170026
_cell_volume                      2543.89836911

loop_
_atom_site_label
_atom_site_type_symbol
_atom_type_description
_atom_site_fract_x
_atom_site_fract_y
_atom_site_fract_z
_atom_type_partial_charge
C1    C     C_R   0.339001 0.499081 0.499399 0.914321
C2    C     C_R   0.661162 0.500822 0.499721 0.888555
C3    C     C_R   0.952792 0.430475 0.424403 -0.085566
C4    C     C_R   0.040981 0.427491 0.428507 -0.083695
C5    C     C_1   0.823695 0.504583 0.480589 -0.028364
C6    C     C_1   0.176373 0.497300 0.484505 -0.033057
C7    C     C_1   0.250949 0.497013 0.491977 -0.195042
C8    C     C_1   0.749220 0.502773 0.490081 -0.194440
C9    C     C_R   0.437707 0.951246 0.429380 0.017644
C10   C     C_R   0.565229 0.956920 0.563466 0.018225
C11   C     C_R   0.500953 0.905443 0.498133 -0.011594
C12   C     C_R   0.563951 0.050820 0.558945 -0.225867
C13   C     C_R   0.437819 0.045280 0.430660 -0.227959
C14   C     C_R   0.500243 0.095468 0.495561 0.053500
C15   C     C_1   0.500085 0.807123 0.499549 0.013076
C16   C     C_1   0.499773 0.192996 0.497626 0.045630
C17   C     C_R   0.511721 0.499471 0.260877 0.868731
C18   C     C_R   0.493942 0.500479 0.741357 0.876181
C19   C     C_R   0.584518 0.653518 0.107855 0.154209
C20   C     C_R   0.462128 0.661094 0.912931 0.166799
C21   C     C_R   0.568697 0.736631 0.050233 0.121327
C22   C     C_R   0.502148 0.742000 0.957073 0.087897
C23   C     C_R   0.499519 0.580602 0.946908 0.016433
C24   C     C_R   0.538870 0.577629 0.063298 -0.011868
C25   C     C_R   0.529635 0.497608 0.128691 -0.097608
C26   C     C_R   0.493032 0.500477 0.876556 -0.079932
C27   C     C_R   0.515665 0.417487 0.063307 -0.208228
C28   C     C_R   0.501928 0.418834 0.935866 -0.220294
C29   C     C_R   0.959292 0.581652 0.516840 0.139085
C30   C     C_R   0.048023 0.579591 0.518093 0.129769
C31   C     C_R   0.913018 0.506449 0.471272 0.022421
C32   C     C_R   0.087277 0.501293 0.477101 0.018982
H1    H     H_    0.512633 0.354446 0.110610 0.168729
H2    H     H_    0.495577 0.356159 0.884981 0.169948
H3    H     H_    0.388837 0.079648 0.379988 0.135694
H4    H     H_    0.613473 0.090229 0.605430 0.137979
N1    N     N_1   0.500000 0.270550 0.500000 -0.093068
N2    N     N_1   0.500000 0.729450 0.500000 -0.096468
O1    O     O_R   0.378020 0.573650 0.500040 -0.617575
O2    O     O_R   0.621980 0.573650 0.499960 -0.628833
O3    O     O_R   0.378020 0.426320 0.500100 -0.604540
O4    O     O_R   0.621980 0.426320 0.499900 -0.599153
O5    O     O_R   0.500000 0.573680 0.316780 -0.610955
O6    O     O_R   0.500000 0.573680 0.683220 -0.613943
O7    O     O_R   0.500000 0.426350 0.316830 -0.616215
O8    O     O_R   0.500000 0.426350 0.683170 -0.621767
Zn1   Zn    Zn3+2 0.500000 0.598370 0.500000 0.953121
Zn2   Zn    Zn3+2 0.500000 0.401630 0.500000 0.969927
C33   C     C_3   0.662670 0.639981 0.190737 -0.359259
C34   C     C_3   0.738388 0.616820 0.110504 -0.935616
H5    H     H_    0.725923 0.553371 0.058262 0.267713
H6    H     H_    0.751969 0.669763 0.042006 0.257885
H7    H     H_    0.794809 0.608916 0.172135 0.252338
H8    H     H_    0.678736 0.698388 0.251288 0.211187
H9    H     H_    0.653551 0.585047 0.256670 0.203832
C35   C     C_3   0.370005 0.657700 0.867665 -0.384633
C36   C     C_3   0.316783 0.581399 0.921118 -0.908884
H10   H     H_    0.328277 0.518146 0.870226 0.255069
H11   H     H_    0.330241 0.573893 0.023232 0.274853
H12   H     H_    0.248819 0.595723 0.909375 0.246072
H13   H     H_    0.338208 0.717204 0.903352 0.228893
H14   H     H_    0.365656 0.654806 0.763427 0.226179
C37   C     C_3   0.620663 0.818682 0.092616 -0.434701
C38   C     C_3   0.589258 0.857282 0.215845 -0.870285
H15   H     H_    0.524632 0.881661 0.202112 0.268313
H16   H     H_    0.588809 0.806708 0.289745 0.260362
H17   H     H_    0.630814 0.913710 0.247524 0.247059
H18   H     H_    0.688377 0.803152 0.102071 0.215533
H19   H     H_    0.619966 0.872553 0.024203 0.203685
C39   C     C_3   0.482681 0.833613 0.903441 -0.384610
C40   C     C_3   0.418616 0.843467 0.795756 -0.919185
H20   H     H_    0.425120 0.790592 0.723625 0.272922
H21   H     H_    0.353328 0.846715 0.830596 0.239735
H22   H     H_    0.430492 0.907898 0.749434 0.258080
H23   H     H_    0.465073 0.879132 0.981402 0.213354
H24   H     H_    0.541883 0.858701 0.862892 0.226331
C41   C     C_3   0.101505 0.659501 0.563728 -0.398831
C42   C     C_3   0.121454 0.654236 0.704271 -0.891965
H25   H     H_    0.062730 0.653470 0.759553 0.251341
H26   H     H_    0.156712 0.593062 0.724002 0.267439
H27   H     H_    0.161000 0.712532 0.734741 0.248360
H28   H     H_    0.161763 0.663290 0.512878 0.203537
H29   H     H_    0.071279 0.723178 0.541916 0.206748
C43   C     C_3   0.912920 0.662693 0.564087 -0.404789
C44   C     C_3   0.885439 0.720094 0.454308 -0.888006
H30   H     H_    0.940522 0.738123 0.396149 0.255727
H31   H     H_    0.837601 0.684164 0.394340 0.265937
H32   H     H_    0.857554 0.782177 0.490432 0.253506
H33   H     H_    0.857644 0.641132 0.618761 0.195823
H34   H     H_    0.950568 0.703785 0.632301 0.210676
C45   C     C_R   0.901624 0.353200 0.375411 0.153105
C46   C     C_R   0.901479 0.272405 0.439251 -0.129491
C47   C     C_R   0.851892 0.200634 0.394300 -0.136380
C48   C     C_R   0.802003 0.209135 0.285807 -0.107741
C49   C     C_R   0.801742 0.289384 0.221904 -0.135667
C50   C     C_R   0.851397 0.361232 0.266333 -0.156724
H35   H     H_    0.939261 0.265324 0.524068 0.123409
H36   H     H_    0.851870 0.138524 0.443857 0.130276
H37   H     H_    0.763457 0.153590 0.251385 0.122201
H38   H     H_    0.762953 0.295971 0.138061 0.129328
H39   H     H_    0.850578 0.423172 0.216218 0.127587
C51   C     C_R   0.085006 0.347906 0.380454 0.150199
C52   C     C_R   0.129784 0.294007 0.463565 -0.151432
C53   C     C_R   0.171686 0.219696 0.418025 -0.132402
C54   C     C_R   0.168913 0.198561 0.289534 -0.111612
C55   C     C_R   0.124219 0.251717 0.206372 -0.137955
C56   C     C_R   0.082412 0.326226 0.251484 -0.133473
H40   H     H_    0.132134 0.309625 0.563361 0.125591
H41   H     H_    0.206297 0.178482 0.482324 0.129140
H42   H     H_    0.201392 0.141011 0.254441 0.125004
H43   H     H_    0.122113 0.235287 0.106892 0.126868
H44   H     H_    0.048283 0.367160 0.186143 0.123891
C57   C     C_R   0.373286 0.903119 0.349029 0.114155
C58   C     C_R   0.361420 0.927513 0.222771 -0.193578
C59   C     C_R   0.304843 0.879950 0.143958 -0.134767
C60   C     C_R   0.258945 0.808033 0.190285 -0.107814
C61   C     C_R   0.268483 0.784569 0.316091 -0.120420
C62   C     C_R   0.324473 0.832396 0.395784 -0.125782
H45   H     H_    0.397684 0.981964 0.184210 0.123625
H46   H     H_    0.297140 0.898432 0.046622 0.127108
H47   H     H_    0.215767 0.770676 0.128829 0.122077
H48   H     H_    0.232650 0.728989 0.351450 0.119840
H49   H     H_    0.329925 0.813845 0.493464 0.125701
C63   C     C_R   0.633379 0.916184 0.640981 0.121663
C64   C     C_R   0.659732 0.956309 0.756412 -0.194894
C65   C     C_R   0.721565 0.917696 0.831487 -0.167018
C66   C     C_R   0.755620 0.836928 0.795307 -0.118562
C67   C     C_R   0.730795 0.797090 0.681076 -0.132829
C68   C     C_R   0.673228 0.838164 0.601779 -0.126283
H50   H     H_    0.630812 0.016142 0.790967 0.127154
H51   H     H_    0.741034 0.949037 0.919842 0.129539
H52   H     H_    0.801239 0.805309 0.855565 0.118931
H53   H     H_    0.755978 0.734229 0.653411 0.142557
H54   H     H_    0.660244 0.808300 0.510277 0.126000

loop_
_geom_bond_atom_site_label_1
_geom_bond_atom_site_label_2
_ccdc_geom_bond_type
O2    Zn1   S    
C6    C32   S    
C54   H42   S    
C47   C48   A    
C61   C62   A    
C56   H44   S    
C49   C50   A    
C18   C26   S    
C20   C35   S    
C67   C68   A    
C58   C59   A    
C44   H30   S    
C27   H1    S    
C65   C66   A    
C65   H51   S    
C19   C21   A    
C17   O7    A    
C13   H3    S    
C10   C63   S    
C53   H41   S    
C42   H26   S    
O7    Zn2   S    
C55   C56   A    
C41   H29   S    
C33   H8    S    
C35   C36   S    
C3    C45   S    
C23   C26   A    
C9    C13   A    
C66   H52   S    
C52   C53   A    
C45   C50   A    
C30   C41   S    
C11   C15   S    
C64   H50   S    
C37   H19   S    
C4    C51   S    
C63   C68   A    
C34   H6    S    
C23   C24   A    
C39   C40   S    
C13   C14   A    
C12   H4    S    
C58   H45   S    
O6    Zn1   S    
C41   C42   S    
C16   N1    T    
C57   C62   A    
C28   H2    S    
C1    C7    S    
C21   C22   A    
C48   C49   A    
C43   H34   S    
C18   O8    A    
C53   C54   A    
C46   H35   S    
C55   H43   S    
C44   H31   S    
O8    Zn2   S    
C34   H7    S    
C60   H47   S    
C38   H17   S    
C43   C44   S    
C29   C43   S    
C45   C46   A    
C40   H21   S    
C42   H25   S    
C36   H12   S    
C48   H37   S    
C33   H9    S    
C37   C38   S    
C38   H16   S    
C61   H48   S    
C17   O5    A    
C15   N2    T    
C29   C30   A    
C18   O6    A    
C5    C8    T    
C19   C33   S    
C20   C23   A    
C34   H5    S    
C51   C56   A    
O4    Zn2   S    
C24   C25   A    
N1    Zn2   S    
C3    C31   A    
C9    C11   A    
N2    Zn1   S    
C4    C32   A    
C10   C12   A    
C1    O3    A    
C12   C14   A    
C59   H46   S    
C39   H24   S    
C64   C65   A    
C35   H14   S    
C43   H33   S    
C3    C4    A    
C39   H23   S    
O1    Zn1   S    
C57   C58   A    
C44   H32   S    
C37   H18   S    
C49   H38   S    
C2    C8    S    
C20   C22   A    
C40   H22   S    
C6    C7    T    
C25   C27   A    
C54   C55   A    
C26   C28   A    
C17   C25   S    
C38   H15   S    
C19   C24   A    
C9    C57   S    
C40   H20   S    
C29   C31   A    
C67   H53   S    
C30   C32   A    
C42   H27   S    
C36   H10   S    
C41   H28   S    
C2    O4    A    
C46   C47   A    
O3    Zn2   S    
C60   C61   A    
C14   C16   S    
C62   H49   S    
C51   C52   A    
C21   C37   S    
C36   H11   S    
C10   C11   A    
C1    O1    A    
C68   H54   S    
C2    O2    A    
C33   C34   S    
C27   C28   A    
C35   H13   S    
C52   H40   S    
C59   C60   A    
C50   H39   S    
O5    Zn1   S    
C47   H36   S    
C22   C39   S    
C66   C67   A    
C63   C64   A    
C5    C31   S    
