data_mof_unit_43859.cif
_audit_creation_date              2012-12-10T20:35:51-0500
_audit_creation_method            fapswitch 2.2
_symmetry_space_group_name_H-M    P1
_symmetry_Int_Tables_number       1
_space_group_crystal_system       triclinic
_cell_length_a                    15.735998
_cell_length_b                    10.733396
_cell_length_c                    9.927449
_cell_angle_alpha                 90.125998
_cell_angle_beta                  92.608582
_cell_angle_gamma                 90.695947
_cell_volume                      1674.88563374

loop_
_atom_site_label
_atom_site_type_symbol
_atom_type_description
_atom_site_fract_x
_atom_site_fract_y
_atom_site_fract_z
_atom_type_partial_charge
C1    C     C_R   0.501297 0.260527 0.499813 0.902926
C2    C     C_3   0.960017 0.490670 0.658462 0.235152
C3    C     C_3   0.917431 0.511382 0.515938 0.140907
C4    C     C_3   0.946498 0.638814 0.458697 -0.370376
C5    C     C_3   0.043906 0.643357 0.448669 -0.469057
C6    C     C_1   0.825991 0.508519 0.518367 -0.046859
C7    C     C_1   0.173336 0.513593 0.485762 -0.040871
C8    C     C_1   0.248877 0.508228 0.488912 -0.192616
C9    C     C_R   0.542343 0.064582 0.607380 0.115962
C10   C     C_R   0.508494 0.129172 0.496718 -0.164632
C11   C     C_R   0.483598 0.065839 0.378143 -0.328500
C12   C     C_R   0.338158 0.501442 0.496915 0.899400
C13   C     C_R   0.481095 0.937055 0.376283 0.434297
C14   C     C_R   0.504985 0.872456 0.495575 -0.204374
C15   C     C_R   0.541236 0.936878 0.606265 0.057864
C16   C     C_3   0.519285 0.930302 0.750684 -0.466921
C17   C     C_3   0.520675 0.071369 0.752094 -0.440273
C18   C     C_R   0.426111 0.505260 0.065118 0.138570
C19   C     C_R   0.574152 0.503714 0.076850 -0.122829
C20   C     C_R   0.574161 0.503106 0.933409 -0.141532
C21   C     C_R   0.425888 0.508409 0.923818 0.145129
C22   C     C_3   0.349989 0.424102 0.911034 -0.557039
C23   C     C_R   0.499284 0.739920 0.499458 0.906966
C24   C     C_3   0.350926 0.420140 0.065069 0.284087
C25   C     C_R   0.661616 0.500800 0.503139 0.891057
C26   C     C_3   0.059102 0.478102 0.644493 0.766299
C27   C     C_3   0.039455 0.416549 0.393161 0.362721
C28   C     C_3   0.944320 0.403793 0.422888 -0.510559
C29   C     C_1   0.750597 0.504844 0.512002 -0.208052
C30   C     C_3   0.081739 0.515427 0.494215 0.083555
H1    H     H_    0.934702 0.399273 0.694619 0.049562
H2    H     H_    0.459078 0.115735 0.290454 0.213988
H3    H     H_    0.454786 0.889597 0.762297 0.212931
H4    H     H_    0.571203 0.888839 0.814983 0.201666
H5    H     H_    0.573585 0.111697 0.816888 0.200146
H6    H     H_    0.634291 0.505141 0.133805 0.147823
H7    H     H_    0.634085 0.503730 0.884249 0.144110
H8    H     H_    0.364462 0.333678 0.862673 0.230249
H9    H     H_    0.297846 0.466734 0.114149 0.074007
H10   H     H_    0.904702 0.403302 0.326818 0.219050
H11   H     H_    0.071218 0.725955 0.500977 0.134582
H12   H     H_    0.059326 0.663612 0.342674 0.243559
H13   H     H_    0.926277 0.716513 0.523873 0.201596
N1    N     N_R   0.499430 0.499140 0.142800 -0.081181
N2    N     N_R   0.499430 0.499180 0.857150 -0.090398
O1    O     O_R   0.500010 0.316790 0.614690 -0.620301
O2    O     O_R   0.500000 0.316760 0.385350 -0.589094
O3    O     O_R   0.377150 0.500020 0.614720 -0.607266
O4    O     O_R   0.377140 0.499990 0.385380 -0.610679
O5    O     O_R   0.500000 0.683240 0.614650 -0.623169
O6    O     O_R   0.499990 0.683210 0.385310 -0.590268
O7    O     O_R   0.622860 0.500010 0.614620 -0.625851
O8    O     O_R   0.622850 0.499980 0.385280 -0.633236
Zn1   Zn    Zn3+2 0.500010 0.500020 0.653130 0.943749
Zn2   Zn    Zn3+2 0.499990 0.499980 0.346870 0.982753
O9    O     O_3   0.107846 0.541992 0.751470 -0.632475
C31   C     C_3   0.120316 0.672155 0.737876 0.121737
H14   H     H_    0.060071 0.721493 0.714831 0.197156
H15   H     H_    0.168074 0.691854 0.661858 0.144344
C32   C     C_3   0.157290 0.727368 0.869325 -0.874392
H16   H     H_    0.214602 0.675347 0.904779 0.258249
H17   H     H_    0.175994 0.826197 0.853379 0.211706
H18   H     H_    0.108827 0.725179 0.947001 0.258633
O10   O     O_3   0.940784 0.590707 0.745709 -0.618643
C33   C     C_3   0.891544 0.549877 0.853016 0.114586
H19   H     H_    0.924692 0.475456 0.912063 0.133886
H20   H     H_    0.828413 0.514305 0.813846 0.141268
C34   C     C_3   0.877619 0.658770 0.947324 -0.822639
H21   H     H_    0.843721 0.734441 0.891819 0.249365
H22   H     H_    0.838804 0.627662 0.031965 0.201196
H23   H     H_    0.939808 0.695092 0.988997 0.256960
H24   H     H_    0.915872 0.653271 0.356649 0.193214
O11   O     O_3   0.438541 0.877266 0.269369 -0.602849
C35   C     C_3   0.491899 0.871748 0.159087 0.121587
H25   H     H_    0.547877 0.812212 0.183979 0.154788
H26   H     H_    0.514957 0.965837 0.129168 0.128754
C36   C     C_3   0.441507 0.814277 0.039714 -0.837153
H27   H     H_    0.405416 0.886896 0.983358 0.235350
H28   H     H_    0.485188 0.768044 0.971268 0.209181
H29   H     H_    0.394936 0.744705 0.074904 0.265298
H30   H     H_    0.457128 0.112289 0.766761 0.207201
O12   O     O_3   0.078167 0.348035 0.653032 -0.689838
C37   C     C_3   0.088657 0.302036 0.785999 0.149595
H31   H     H_    0.043897 0.344688 0.855648 0.143632
H32   H     H_    0.155363 0.319225 0.823164 0.181402
C38   C     C_3   0.072813 0.162047 0.784763 -0.917790
H33   H     H_    0.117622 0.115858 0.717849 0.265930
H34   H     H_    0.082606 0.124580 0.888445 0.212744
H35   H     H_    0.006487 0.141196 0.747723 0.255149
H36   H     H_    0.293667 0.472325 0.865500 0.188089
O13   O     O_3   0.371121 0.300776 0.115741 -0.564614
C39   C     C_3   0.295871 0.227194 0.120589 0.095592
H37   H     H_    0.239933 0.265537 0.062410 0.111929
H38   H     H_    0.278788 0.217265 0.227427 0.149309
C40   C     C_3   0.311004 0.099051 0.062225 -0.847868
H39   H     H_    0.361164 0.051902 0.123514 0.288461
H40   H     H_    0.251705 0.041954 0.063408 0.213903
H41   H     H_    0.330862 0.107392 0.956654 0.242724
O14   O     O_3   0.042103 0.458924 0.258481 -0.602275
C41   C     C_3   0.106511 0.403373 0.186809 0.028367
H42   H     H_    0.082937 0.313039 0.143726 0.141410
H43   H     H_    0.165847 0.388191 0.249499 0.133250
C42   C     C_3   0.126478 0.491683 0.073770 -0.811482
H44   H     H_    0.157445 0.577199 0.117072 0.246368
H45   H     H_    0.169291 0.448077 0.003231 0.202029
H46   H     H_    0.066889 0.517440 0.017201 0.293067
H47   H     H_    0.068939 0.322857 0.406683 0.100370
H48   H     H_    0.932422 0.312272 0.471701 0.145511

loop_
_geom_bond_atom_site_label_1
_geom_bond_atom_site_label_2
_ccdc_geom_bond_type
C5    H12   S    
C18   C21   A    
O11   C35   S    
C19   C20   A    
C12   O3    A    
C3    C6    S    
C12   O4    A    
C40   H41   S    
C7    C8    T    
C36   H27   S    
O3    Zn1   S    
C27   O14   S    
O5    Zn1   S    
C35   H26   S    
C32   H18   S    
C18   C24   S    
C3    C28   S    
C25   O8    A    
C19   H6    S    
C38   H34   S    
C1    O1    A    
C31   H15   S    
C28   H10   S    
C15   C16   S    
C22   H8    S    
C24   H9    S    
O9    C31   S    
C32   H17   S    
C41   H42   S    
C42   H44   S    
C16   H4    S    
C37   H31   S    
O7    Zn1   S    
C34   H21   S    
C33   H20   S    
C35   C36   S    
C9    C10   A    
O6    Zn2   S    
C20   N2    A    
C36   H28   S    
C26   O12   S    
C7    C30   S    
C21   C22   S    
C27   C30   S    
C41   H43   S    
C2    O10   S    
C21   N2    A    
O8    Zn2   S    
C25   C29   S    
C35   H25   S    
C42   H45   S    
O13   C39   S    
C38   H33   S    
C1    O2    A    
C31   C32   S    
O4    Zn2   S    
O12   C37   S    
C39   C40   S    
C32   H16   S    
C14   C23   S    
C18   N1    A    
C16   H3    S    
C23   O6    A    
O14   C41   S    
C27   H47   S    
C8    C12   S    
C33   C34   S    
O1    Zn1   S    
C39   H38   S    
C22   H36   S    
C2    C26   S    
C9    C17   S    
C37   H32   S    
C13   O11   S    
C11   H2    S    
C26   C30   S    
C22   C24   S    
C3    C4    S    
C24   O13   S    
C4    H24   S    
C19   N1    A    
O2    Zn2   S    
C5    C30   S    
C36   H29   S    
C5    H11   S    
C1    C10   S    
C4    C5    S    
C23   O5    A    
C38   H35   S    
C26   O9    S    
C6    C29   T    
N2    Zn1   S    
C40   H40   S    
C4    H13   S    
O10   C33   S    
C2    C3    S    
C9    C15   A    
C25   O7    A    
C20   H7    S    
C11   C13   A    
N1    Zn2   S    
C31   H14   S    
C16   C17   S    
C28   H48   S    
C34   H23   S    
C39   H37   S    
C42   H46   S    
C17   H30   S    
C41   C42   S    
C10   C11   A    
C37   C38   S    
C34   H22   S    
C33   H19   S    
C40   H39   S    
C14   C15   A    
C2    H1    S    
C17   H5    S    
C13   C14   A    
C27   C28   S    
