data_mof_unit_9444.cif
_audit_creation_date              2012-12-10T19:54:22-0500
_audit_creation_method            fapswitch 2.2
_symmetry_space_group_name_H-M    P1
_symmetry_Int_Tables_number       1
_space_group_crystal_system       triclinic
_cell_length_a                    15.707262
_cell_length_b                    14.773183
_cell_length_c                    14.238147
_cell_angle_alpha                 89.333253
_cell_angle_beta                  88.583514
_cell_angle_gamma                 91.684762
_cell_volume                      3301.21858933

loop_
_atom_site_label
_atom_site_type_symbol
_atom_type_description
_atom_site_fract_x
_atom_site_fract_y
_atom_site_fract_z
_atom_type_partial_charge
C1    C     C_R   0.505806 0.327392 0.500379 0.902116
C2    C     C_R   0.501363 0.672767 0.499257 0.952706
C3    C     C_R   0.541585 0.183644 0.583883 0.474281
C4    C     C_R   0.481991 0.822936 0.426723 0.457012
C5    C     C_R   0.529684 0.232916 0.499861 -0.231482
C6    C     C_R   0.517839 0.769086 0.496236 -0.214585
C7    C     C_R   0.548092 0.192999 0.413008 -0.343977
C8    C     C_R   0.577768 0.805699 0.557306 -0.324116
C9    C     C_R   0.571829 0.103682 0.408518 0.499317
C10   C     C_R   0.601730 0.896632 0.551212 0.471828
C11   C     C_R   0.567225 0.050673 0.491506 -0.061931
C12   C     C_R   0.560023 0.952491 0.486963 -0.046697
C13   C     C_R   0.434378 0.456380 0.107673 -0.369681
C14   C     C_R   0.546226 0.566983 0.892260 -0.369023
C15   C     C_R   0.437075 0.453669 0.206953 0.618341
C16   C     C_R   0.548337 0.563553 0.792840 0.633089
C17   C     C_R   0.563981 0.545040 0.201302 0.009352
C18   C     C_R   0.454050 0.434853 0.798860 -0.015704
C19   C     C_R   0.565919 0.542705 0.102369 -0.243358
C20   C     C_R   0.456597 0.433018 0.897715 -0.235245
C21   C     C_R   0.500203 0.499854 0.053276 0.070957
C22   C     C_R   0.500979 0.500318 0.946713 0.073296
C23   C     C_R   0.337900 0.499181 0.501057 0.916431
C24   C     C_R   0.661952 0.499718 0.498934 0.868066
C25   C     C_3   0.969045 0.406350 0.517096 -0.072267
C26   C     C_3   0.029291 0.575147 0.480845 -0.084540
C27   C     C_3   0.030097 0.432786 0.433525 -0.428868
C28   C     C_3   0.968612 0.548746 0.564474 -0.422347
C29   C     C_1   0.248932 0.496008 0.503422 -0.133033
C30   C     C_1   0.750457 0.496063 0.496397 -0.167939
C31   C     C_3   0.022246 0.464744 0.583769 0.507746
C32   C     C_3   0.976123 0.516847 0.414352 0.496087
C33   C     C_3   0.082724 0.491800 0.501578 0.050047
C34   C     C_3   0.915982 0.489898 0.496664 0.060260
C35   C     C_1   0.173582 0.493376 0.503853 0.081784
C36   C     C_1   0.825470 0.492637 0.495304 0.081549
C37   C     C_R   0.554560 0.091498 0.578705 -0.258282
C38   C     C_R   0.500876 0.915090 0.425052 -0.254162
H1    H     H_    0.057019 0.385764 0.381086 0.158525
H2    H     H_    0.941753 0.595325 0.617360 0.157150
H3    H     H_    0.618766 0.575663 0.064251 0.186675
H4    H     H_    0.422917 0.378850 0.936002 0.189150
H5    H     H_    0.551730 0.051663 0.643106 0.214057
H6    H     H_    0.466579 0.957875 0.377700 0.193381
H7    H     H_    0.545180 0.231117 0.347749 0.195530
H8    H     H_    0.608049 0.762968 0.608050 0.214592
H9    H     H_    0.380082 0.424933 0.074574 0.154846
H10   H     H_    0.579602 0.622429 0.925506 0.152355
N1    N     N_R   0.500000 0.499980 0.252470 -0.176959
N2    N     N_R   0.500000 0.500020 0.747530 -0.178711
O1    O     O_R   0.500010 0.369070 0.579480 -0.628442
O2    O     O_R   0.499990 0.630930 0.420520 -0.653047
O3    O     O_R   0.500010 0.369060 0.420520 -0.620032
O4    O     O_R   0.499990 0.630940 0.579480 -0.563239
O5    O     O_R   0.376780 0.500000 0.579460 -0.652852
O6    O     O_R   0.623220 0.500000 0.420540 -0.630334
O7    O     O_R   0.376780 0.499990 0.420510 -0.549238
O8    O     O_R   0.623220 0.500010 0.579490 -0.627651
Zn1   Zn    Zn3+2 0.500000 0.500010 0.606140 0.962757
Zn2   Zn    Zn3+2 0.500000 0.499990 0.393860 0.966682
C39   C     C_2   0.630985 0.599419 0.247725 0.419890
H11   H     H_    0.619853 0.627916 0.315976 0.105378
O9    O     O_2   0.700005 0.615199 0.208608 -0.591787
C40   C     C_2   0.399746 0.365736 0.752787 0.505221
H12   H     H_    0.378473 0.375259 0.682374 0.119952
O10   O     O_2   0.376334 0.296300 0.794449 -0.571334
C41   C     C_2   0.936559 0.311505 0.537088 0.367973
H13   H     H_    0.981138 0.259263 0.553438 0.078619
O11   O     O_2   0.860522 0.292491 0.534984 -0.601753
C42   C     C_2   0.060575 0.670082 0.459423 0.414745
H14   H     H_    0.015036 0.722086 0.445665 0.068126
O12   O     O_2   0.136646 0.689413 0.457139 -0.553717
O13   O     O_3   0.944528 0.546474 0.327629 -0.629797
C43   C     C_3   0.009492 0.543941 0.257628 0.079138
H15   H     H_    0.023734 0.472415 0.241157 0.147748
H16   H     H_    0.068713 0.579995 0.280318 0.151190
C44   C     C_3   0.978941 0.590137 0.168516 -0.289267
H17   H     H_    0.919393 0.555499 0.145387 0.247911
H18   H     H_    0.964849 0.661849 0.183833 0.232092
C45   C     C_3   0.045980 0.587497 0.089206 -0.975624
H19   H     H_    0.106162 0.621804 0.110695 0.275580
H20   H     H_    0.022518 0.623043 0.026213 0.270263
H21   H     H_    0.058789 0.516316 0.070434 0.269185
O14   O     O_3   0.051528 0.437100 0.672261 -0.641451
C46   C     C_3   0.982084 0.419840 0.735999 0.081406
H22   H     H_    0.990386 0.352100 0.768641 0.165404
H23   H     H_    0.918314 0.417473 0.702979 0.132108
C47   C     C_3   0.982445 0.490945 0.813248 -0.325937
H24   H     H_    0.043680 0.489258 0.850645 0.238461
H25   H     H_    0.976660 0.559420 0.781413 0.222225
C48   C     C_3   0.908840 0.473648 0.883839 -0.977247
H26   H     H_    0.846863 0.476615 0.848118 0.260560
H27   H     H_    0.910570 0.526164 0.938928 0.273672
H28   H     H_    0.914126 0.406134 0.918002 0.273428
O15   O     O_3   0.534535 0.222423 0.671622 -0.611590
C49   C     C_3   0.613640 0.264390 0.694487 0.148468
H29   H     H_    0.599961 0.319851 0.744155 0.166974
H30   H     H_    0.647899 0.296863 0.632584 0.136035
C50   C     C_3   0.671420 0.197266 0.742823 -0.378391
H31   H     H_    0.636451 0.164521 0.803580 0.243636
H32   H     H_    0.689852 0.143933 0.692590 0.228166
C51   C     C_3   0.752269 0.244750 0.777263 -0.945059
H33   H     H_    0.788446 0.277639 0.717493 0.289378
H34   H     H_    0.793374 0.194351 0.810680 0.266823
H35   H     H_    0.736038 0.296873 0.829862 0.260344
O16   O     O_3   0.422703 0.787114 0.365975 -0.617579
C52   C     C_3   0.461858 0.772224 0.276856 0.124104
H36   H     H_    0.446927 0.701009 0.257312 0.176371
H37   H     H_    0.532932 0.780370 0.275110 0.101546
C53   C     C_3   0.424840 0.834718 0.202944 -0.353641
H38   H     H_    0.354320 0.825642 0.203735 0.243625
H39   H     H_    0.440983 0.906359 0.219560 0.227918
C54   C     C_3   0.460086 0.814055 0.104861 -0.932667
H40   H     H_    0.530468 0.824257 0.102013 0.265596
H41   H     H_    0.432102 0.860225 0.052664 0.275480
H42   H     H_    0.443578 0.743029 0.085909 0.267227
O17   O     O_3   0.589238 0.067777 0.320764 -0.656558
C55   C     C_3   0.675109 0.041318 0.313833 0.070629
H43   H     H_    0.682345 0.002184 0.248114 0.175138
H44   H     H_    0.691863 0.994609 0.371678 0.114852
C56   C     C_3   0.737545 0.123447 0.308056 -0.363370
H45   H     H_    0.721555 0.167368 0.247483 0.235588
H46   H     H_    0.732403 0.163763 0.373253 0.233011
C57   C     C_3   0.829355 0.093700 0.296391 -0.924948
H47   H     H_    0.846855 0.050997 0.357304 0.260674
H48   H     H_    0.872912 0.154287 0.292634 0.275609
H49   H     H_    0.837440 0.054725 0.230687 0.261364
O18   O     O_3   0.659970 0.930229 0.614463 -0.655116
C58   C     C_3   0.737066 0.955101 0.566448 0.044546
H50   H     H_    0.730752 0.021553 0.530298 0.158638
H51   H     H_    0.755967 0.903179 0.514112 0.128474
C59   C     C_3   0.807789 0.964668 0.637705 -0.315496
H52   H     H_    0.788856 0.013294 0.692850 0.231789
H53   H     H_    0.817525 0.897891 0.671953 0.225778
C60   C     C_3   0.891318 0.998449 0.590651 -0.947428
H54   H     H_    0.912112 0.950338 0.535872 0.261742
H55   H     H_    0.941481 0.004111 0.644033 0.269632
H56   H     H_    0.883435 0.066250 0.557930 0.279607
O19   O     O_3   0.372248 0.410390 0.259082 -0.620388
C61   C     C_3   0.371829 0.315667 0.244466 0.075320
H57   H     H_    0.385727 0.282068 0.312354 0.176795
H58   H     H_    0.420523 0.292718 0.192033 0.118556
C62   C     C_3   0.283228 0.283830 0.214436 -0.361140
H59   H     H_    0.235009 0.303766 0.268227 0.229771
H60   H     H_    0.268197 0.316961 0.146614 0.221771
C63   C     C_3   0.278010 0.181250 0.202979 -0.921500
H61   H     H_    0.324550 0.159960 0.148117 0.272213
H62   H     H_    0.212956 0.160322 0.181422 0.266733
H63   H     H_    0.291518 0.146671 0.270476 0.265430
O20   O     O_3   0.594350 0.628392 0.740382 -0.625227
C64   C     C_3   0.682923 0.622680 0.755938 0.050073
H64   H     H_    0.715061 0.608294 0.687598 0.172970
H65   H     H_    0.700408 0.567468 0.805595 0.114534
C65   C     C_3   0.717875 0.713613 0.790987 -0.342999
H66   H     H_    0.703116 0.768172 0.740106 0.246486
H67   H     H_    0.686978 0.729275 0.859662 0.224134
C66   C     C_3   0.814176 0.712252 0.802513 -0.969290
H68   H     H_    0.830433 0.660223 0.855499 0.277490
H69   H     H_    0.837666 0.779447 0.826695 0.269788
H70   H     H_    0.846583 0.697324 0.734442 0.256979

loop_
_geom_bond_atom_site_label_1
_geom_bond_atom_site_label_2
_ccdc_geom_bond_type
C25   C31   S    
C62   C63   S    
C26   C32   S    
C66   H68   S    
O5    Zn1   S    
C60   H56   S    
C51   H33   S    
C9    O17   S    
O13   C43   S    
C47   H25   S    
O15   C49   S    
C25   C41   S    
C61   C62   S    
C24   O6    A    
C18   C40   S    
O18   C58   S    
C55   H44   S    
C60   H54   S    
C44   H17   S    
C27   C33   S    
C15   N1    A    
N1    Zn2   S    
C43   H16   S    
C1    C5    S    
N2    Zn1   S    
C23   C29   S    
C57   H48   S    
C19   C21   A    
C61   H58   S    
C54   H40   S    
C63   H62   S    
C46   C47   S    
O16   C52   S    
C28   H2    S    
C62   H59   S    
C49   C50   S    
C62   H60   S    
C51   H35   S    
C60   H55   S    
C64   C65   S    
C11   C37   A    
C1    O3    A    
C53   H38   S    
C56   C57   S    
O2    Zn2   S    
C17   C39   S    
C55   H43   S    
C27   H1    S    
C59   H52   S    
C43   C44   S    
C49   H30   S    
C52   H36   S    
C31   C33   S    
C42   H14   S    
C65   H67   S    
C25   C34   S    
C58   C59   S    
C46   H23   S    
C28   C34   S    
C66   H69   S    
C21   C22   S    
C52   H37   S    
C2    C6    S    
C45   H21   S    
C10   O18   S    
C10   C12   A    
O3    Zn2   S    
C15   O19   S    
O4    Zn1   S    
C44   H18   S    
C43   H15   S    
C63   H61   S    
C41   H13   S    
C24   O8    A    
C61   H57   S    
C65   C66   S    
C4    C6    A    
C2    O4    A    
C17   N1    A    
C32   O13   S    
C5    C7    A    
C17   C19   A    
O7    Zn2   S    
C6    C8    A    
O8    Zn1   S    
C46   H22   S    
C4    O16   S    
C31   O14   S    
O6    Zn2   S    
C41   O11   D    
C55   C56   S    
C32   C34   S    
C37   H5    S    
C38   H6    S    
C48   H27   S    
C63   H63   S    
C9    C11   A    
C26   C33   S    
C50   H31   S    
C47   C48   S    
C64   H64   S    
C49   H29   S    
C39   O9    D    
C65   H66   S    
C13   C21   A    
O14   C46   S    
C51   H34   S    
C1    O1    A    
C53   C54   S    
C56   H45   S    
C2    O2    A    
C57   H49   S    
C59   H53   S    
C50   H32   S    
C4    C38   A    
C66   H70   S    
C13   C15   A    
C26   C42   S    
C52   C53   S    
C14   C16   A    
C24   C30   S    
O1    Zn1   S    
C7    H7    S    
C48   H26   S    
C3    O15   S    
C18   N2    A    
C13   H9    S    
C58   H50   S    
C44   C45   S    
C23   O7    A    
C27   C32   S    
C28   C31   S    
C20   C22   A    
C45   H19   S    
C3    C5    A    
C18   C20   A    
C20   H4    S    
O19   C61   S    
C23   O5    A    
C25   C27   S    
C29   C35   T    
C26   C28   S    
C30   C36   T    
C40   H12   S    
C54   H42   S    
O17   C55   S    
C48   H28   S    
C14   C22   A    
C59   C60   S    
C33   C35   S    
C45   H20   S    
C34   C36   S    
C64   H65   S    
C12   C38   A    
C39   H11   S    
C16   N2    A    
C53   H39   S    
C56   H46   S    
C7    C9    A    
C50   C51   S    
C47   H24   S    
C3    C37   A    
C8    C10   A    
C14   H10   S    
O20   C64   S    
C42   O12   D    
C8    H8    S    
C54   H41   S    
C16   O20   S    
C19   H3    S    
C11   C12   S    
C40   O10   D    
C57   H47   S    
C58   H51   S    
