data_mof_unit_35707.cif
_audit_creation_date              2012-12-10T18:43:11-0500
_audit_creation_method            fapswitch 2.2
_symmetry_space_group_name_H-M    P1
_symmetry_Int_Tables_number       1
_space_group_crystal_system       triclinic
_cell_length_a                    10.718115
_cell_length_b                    9.853427
_cell_length_c                    10.659201
_cell_angle_alpha                 91.021223
_cell_angle_beta                  89.845035
_cell_angle_gamma                 90.035188
_cell_volume                      1125.53685869

loop_
_atom_site_label
_atom_site_type_symbol
_atom_type_description
_atom_site_fract_x
_atom_site_fract_y
_atom_site_fract_z
_atom_type_partial_charge
C1    C     C_R   0.259889 0.499944 0.500826 0.863227
C2    C     C_R   0.935899 0.378672 0.525182 -0.152023
C3    C     C_R   0.872448 0.500633 0.507485 -0.023262
C4    C     C_R   0.127365 0.500159 0.504062 -0.023097
C5    C     C_R   0.936113 0.622748 0.490538 -0.154550
C6    C     C_R   0.063825 0.622476 0.488669 -0.179860
C7    C     C_R   0.585573 0.073403 0.568247 -0.199663
C8    C     C_R   0.415105 0.070907 0.430686 -0.195032
C9    C     C_R   0.585520 0.928787 0.569537 0.444415
C10   C     C_R   0.414961 0.926129 0.429746 0.455386
C11   C     C_2   0.651031 0.288513 0.870925 1.002310
C12   C     C_R   0.740001 0.500108 0.503274 0.943395
C13   C     C_2   0.717317 0.384544 0.135545 0.947985
C14   C     C_R   0.501176 0.498392 0.262191 0.974342
C15   C     C_R   0.510023 0.501515 0.737404 0.954375
C16   C     C_2   0.593819 0.409448 0.932547 -0.069495
C17   C     C_2   0.601830 0.426603 0.069320 -0.045579
C18   C     C_2   0.538797 0.509301 0.868422 -0.418156
C19   C     C_2   0.507541 0.491464 0.129119 -0.378790
C20   C     C_R   0.063758 0.378398 0.523280 -0.188838
H1    H     H_    0.517052 0.606014 0.914093 0.181256
H2    H     H_    0.857716 0.438764 0.250776 0.337592
H3    H     H_    0.726853 0.923847 0.682802 0.311520
H4    H     H_    0.275721 0.916802 0.313887 0.314745
H5    H     H_    0.425031 0.526871 0.080766 0.145824
H6    H     H_    0.112344 0.283350 0.536589 0.165862
H7    H     H_    0.887162 0.283779 0.539456 0.179095
H8    H     H_    0.887711 0.717798 0.476644 0.185742
H9    H     H_    0.112297 0.717405 0.473878 0.189285
H10   H     H_    0.654254 0.129896 0.621395 0.177608
H11   H     H_    0.347797 0.125710 0.375588 0.148562
H12   H     H_    0.668227 0.084737 0.865966 0.335223
N1    N     N_R   0.500000 0.857200 0.500000 -0.103621
N2    N     N_R   0.500000 0.142810 0.500000 -0.099942
O1    O     O_R   0.316770 0.614620 0.499990 -0.584351
O2    O     O_R   0.621638 0.158994 0.913477 -0.761414
O3    O     O_2   0.762748 0.272439 0.115672 -0.593434
O4    O     O_R   0.776398 0.475984 0.217435 -0.820583
O5    O     O_3   0.670541 0.858195 0.639843 -0.733445
O6    O     O_3   0.330620 0.852797 0.358542 -0.739191
O7    O     O_R   0.683230 0.614620 0.500010 -0.578046
O8    O     O_R   0.316800 0.385290 0.500000 -0.637488
O9    O     O_R   0.683200 0.385290 0.500000 -0.616197
O10   O     O_R   0.500000 0.614630 0.319080 -0.557129
O11   O     O_R   0.500000 0.614630 0.680920 -0.583782
O12   O     O_R   0.500030 0.385300 0.319080 -0.614196
O13   O     O_R   0.499970 0.385300 0.680920 -0.603655
O14   O     O_2   0.726532 0.302766 0.785968 -0.661744
Zn1   Zn    Zn3+2 0.500000 0.653120 0.500000 1.067796
Zn2   Zn    Zn3+2 0.500000 0.346880 0.500000 0.991019

loop_
_geom_bond_atom_site_label_1
_geom_bond_atom_site_label_2
_ccdc_geom_bond_type
O10   Zn1   S    
O1    Zn1   S    
C15   C18   S    
O9    Zn2   S    
C2    H7    S    
C13   C17   S    
C12   O9    A    
C18   H1    S    
C11   C16   S    
O12   Zn2   S    
C13   O3    D    
O11   Zn1   S    
O13   Zn2   S    
C1    C4    S    
C2    C3    A    
C11   O14   D    
C14   O12   A    
C7    H10   S    
C8    N2    A    
C9    N1    A    
C13   O4    S    
C12   O7    A    
C20   H6    S    
O8    Zn2   S    
H3    O5    S    
H12   O2    S    
C14   O10   A    
C11   O2    S    
H4    O6    S    
C10   N1    A    
C5    C6    A    
C19   H5    S    
C7    N2    A    
N2    Zn2   S    
C4    C6    A    
C15   O11   A    
N1    Zn1   S    
C5    H8    S    
C1    O8    A    
C9    O5    S    
C6    H9    S    
C1    O1    A    
C16   C18   D    
O7    Zn1   S    
C7    C9    A    
C15   O13   A    
C10   O6    S    
C3    C12   S    
C17   C19   D    
C8    H11   S    
C2    C20   A    
C14   C19   S    
C8    C10   A    
C16   C17   S    
C3    C5    A    
H2    O4    S    
C4    C20   A    
