data_mof_unit_47812.cif
_audit_creation_date              2013-03-05T16:43:53-0500
_audit_creation_method            fapswitch 2.2
_symmetry_space_group_name_H-M    P1
_symmetry_Int_Tables_number       1
_space_group_crystal_system       triclinic
_cell_length_a                    9.918273
_cell_length_b                    10.678966
_cell_length_c                    16.859032
_cell_angle_alpha                 91.993337
_cell_angle_beta                  85.934892
_cell_angle_gamma                 89.521668
_cell_volume                      1779.98138207

loop_
_atom_site_label
_atom_site_type_symbol
_atom_site_description
_atom_site_fract_x
_atom_site_fract_y
_atom_site_fract_z
_atom_type_partial_charge
O1    O     O_R   0.385310 0.683210 0.499990 -0.620615
O2    O     O_R   0.614650 0.683240 0.500000 -0.579015
C1    C     C_R   0.500113 0.739580 0.496541 0.911699
O3    O     O_R   0.371780 0.500000 0.615800 -0.614964
O4    O     O_R   0.601120 0.500040 0.615800 -0.618939
C2    C     C_R   0.481489 0.496005 0.652696 0.921462
Zn1   Zn    Zn3+2 0.346870 0.499980 0.499990 1.024160
Zn2   Zn    Zn3+2 0.653130 0.500020 0.500010 0.987887
O5    O     O_R   0.385350 0.316760 0.500000 -0.582202
O6    O     O_R   0.614690 0.316790 0.500010 -0.627401
O7    O     O_R   0.398880 0.499960 0.384200 -0.575612
O8    O     O_R   0.628220 0.500000 0.384200 -0.627199
C3    C     C_R   0.500632 0.260033 0.497756 0.867393
C4    C     C_R   0.518303 0.494241 0.347597 0.851311
C5    C     C_R   0.467903 0.486885 0.738722 -0.116212
C6    C     C_R   0.572965 0.525228 0.783634 -0.206973
C7    C     C_R   0.557326 0.528666 0.865898 0.347705
C8    C     C_R   0.436350 0.484597 0.903996 -0.095537
C9    C     C_R   0.330319 0.439825 0.858957 -0.029642
C10   C     C_R   0.348029 0.442427 0.776152 -0.154681
C11   C     C_R   0.458091 0.327748 0.156230 -0.042779
C12   C     C_R   0.453861 0.359138 0.236729 -0.110650
C13   C     C_R   0.620481 0.521240 0.211840 -0.184877
C14   C     C_R   0.624315 0.490318 0.131055 -0.080999
C15   C     C_R   0.538136 0.397798 0.103384 0.152085
C16   C     C_2   0.428631 0.477822 0.990449 -0.004424
C17   C     C_2   0.511070 0.393213 0.020305 -0.266371
C18   C     C_R   0.529683 0.459916 0.263959 -0.031712
H1    H     H_    0.665609 0.556738 0.754735 0.212368
H2    H     H_    0.390015 0.306192 0.277473 0.207633
H3    H     H_    0.683013 0.596197 0.233110 0.162527
H4    H     H_    0.571488 0.328423 0.980933 0.177971
H5    H     H_    0.392052 0.255732 0.134758 0.174935
H6    H     H_    0.269057 0.407683 0.740372 0.195257
H7    H     H_    0.687799 0.543407 0.089922 0.203599
C19   C     C_R   0.378946 0.936690 0.493499 0.111113
C20   C     C_R   0.500210 0.870358 0.483386 -0.109755
C21   C     C_R   0.620503 0.932205 0.461215 -0.152226
H8    H     H_    0.714930 0.881433 0.448133 0.193225
C22   C     C_R   0.620786 0.062006 0.462628 -0.180434
H9    H     H_    0.715276 0.110047 0.450045 0.193177
C23   C     C_R   0.500837 0.127802 0.486324 -0.131267
C24   C     C_R   0.378600 0.064867 0.495279 0.148594
C25   C     C_3   0.273602 0.072468 0.564028 -0.276685
C26   C     C_3   0.273312 0.930445 0.560386 -0.501821
H10   H     H_    0.313862 0.112644 0.619297 0.153830
H11   H     H_    0.313265 0.888580 0.613587 0.215308
H12   H     H_    0.179864 0.887277 0.539645 0.262167
C27   C     C_R   0.921981 0.575079 0.552934 0.184310
N1    N     N_R   0.857140 0.500860 0.500530 -0.153629
C28   C     C_R   0.934728 0.439474 0.441389 -0.190515
H13   H     H_    0.885790 0.387763 0.395344 0.190773
C29   C     C_R   0.078244 0.439622 0.440698 0.372005
N2    N     N_R   0.142780 0.500820 0.500530 -0.158844
C30   C     C_R   0.064163 0.575522 0.553143 0.007613
C31   C     C_3   0.057675 0.573512 0.642261 -0.348863
C32   C     C_3   0.902859 0.574647 0.641586 0.040873
H14   H     H_    0.097197 0.483536 0.662971 0.186145
H15   H     H_    0.855339 0.487799 0.664324 0.118623
C33   C     C_2   0.141677 0.131739 0.545158 1.071036
O9    O     O_2   0.081848 0.093436 0.488238 -0.590159
O10   O     O_R   0.087360 0.230480 0.594185 -0.816730
H16   H     H_    0.998007 0.262399 0.576673 0.326914
N3    N     N_R   0.153642 0.375363 0.376298 0.214544
O11   O     O_R   0.131108 0.402186 0.303688 -0.387195
O12   O     O_R   0.214784 0.270663 0.388744 -0.390862
C34   C     C_2   0.119299 0.687235 0.681053 1.067713
O13   O     O_2   0.206728 0.673106 0.727514 -0.603644
O14   O     O_R   0.072988 0.807857 0.667019 -0.765266
H17   H     H_    0.113275 0.874322 0.702392 0.353796
N4    N     N_R   0.835923 0.689428 0.675783 0.243307
O15   O     O_R   0.767701 0.761886 0.632326 -0.344567
O16   O     O_R   0.839794 0.717192 0.751365 -0.306406
C35   C     C_2   0.201559 0.388614 0.895125 0.966902
O17   O     O_2   0.194371 0.350440 0.962810 -0.609008
O18   O     O_R   0.087909 0.381978 0.850535 -0.764502
H18   H     H_    0.006684 0.345126 0.880981 0.374565
C36   C     C_2   0.341330 0.571199 0.038815 1.036115
O19   O     O_2   0.294466 0.660787 0.006320 -0.569456
O20   O     O_R   0.309517 0.556390 0.120026 -0.769628
H19   H     H_    0.249091 0.626164 0.145096 0.360789
N5    N     N_R   0.663945 0.579224 0.910271 0.208020
O21   O     O_R   0.789427 0.551277 0.888624 -0.338115
O22   O     O_R   0.637247 0.666808 0.964829 -0.369070

loop_
_geom_bond_atom_site_label_1
_geom_bond_atom_site_label_2
_geom_bond_distance
_ccdc_geom_bond_type
C30   C31   1.500170 S    
C9    C10   1.395885 A    
C8    C16   1.458443 S    
C29   N2    1.380935 A    
Zn1   O7    1.983437 S    
C16   C17   1.347569 D    
O10   H16   1.013813 S    
C35   O18   1.399473 S    
C19   C20   1.387700 A    
C8    C9    1.416847 A    
O1    C1    1.291036 A    
C21   H8    1.083361 S    
C29   N3    1.425980 S    
C36   O20   1.397773 S    
C32   H15   1.111606 S    
C11   H5    1.083592 S    
C5    C6    1.387173 A    
C27   C32   1.493352 S    
C31   C32   1.536298 S    
C33   O10   1.397157 S    
C7    N5    1.436318 S    
O5    C3    1.287040 A    
C2    C5    1.453753 S    
C6    C7    1.383739 A    
C13   C14   1.388008 A    
C10   H6    1.082274 S    
C22   C23   1.402770 A    
C12   C18   1.400923 A    
C11   C12   1.384191 A    
O3    Zn1   1.985305 S    
C3    C23   1.418493 S    
C25   H10   1.113343 S    
N1    C28   1.361384 A    
C26   H11   1.112066 S    
C5    C10   1.400379 A    
C14   H7    1.081742 S    
C35   O17   1.222584 D    
C34   O13   1.220901 D    
C14   C15   1.401071 A    
O3    C2    1.292205 A    
N4    O16   1.301502 A    
C36   O19   1.223362 D    
C6    H1    1.071458 S    
C27   C30   1.410497 A    
C32   N4    1.469206 S    
C28   H13   1.082238 S    
C33   O9    1.223826 D    
C28   C29   1.422665 A    
C13   H3    1.083442 S    
C24   C25   1.501805 S    
C20   C21   1.402316 A    
Zn2   O8    1.985305 S    
C7    C8    1.412404 A    
C19   C26   1.487488 S    
C16   C36   1.495955 S    
C13   C18   1.396289 A    
O18   H18   1.013936 S    
C22   H9    1.083472 S    
O8    C4    1.291103 A    
N5    O21   1.301162 A    
N5    O22   1.300923 A    
C23   C24   1.392500 A    
Zn2   N1    2.024161 S    
C25   C26   1.515794 S    
C26   H12   1.111618 S    
C34   O14   1.397476 S    
Zn1   O5    1.990354 S    
C11   C15   1.392709 A    
N2    C30   1.368761 A    
C12   H2    1.078817 S    
C17   H4    1.087712 S    
O1    Zn1   1.996626 S    
C9    C35   1.492063 S    
O2    Zn2   1.990353 S    
O20   H19   1.013780 S    
O6    C3    1.290155 A    
O4    Zn2   1.983437 S    
C15   C17   1.443953 S    
C31   C34   1.513254 S    
N3    O11   1.301012 A    
O2    C1    1.286978 A    
N4    O15   1.301660 A    
C21   C22   1.385549 A    
O4    C2    1.301809 A    
C25   C33   1.507691 S    
O7    C4    1.296167 A    
C31   H14   1.111424 S    
O14   H17   1.013979 S    
C1    C20   1.421677 S    
Zn2   O6    1.996627 S    
C27   N1    1.364801 A    
C19   C24   1.368047 A    
Zn1   N2    2.023539 S    
C4    C18   1.440878 S    
N3    O12   1.298044 A    
