data_mof_unit_24652.cif
_audit_creation_date              2012-10-26T19:21:52-0400
_audit_creation_method            fapswitch 2.2
_symmetry_space_group_name_H-M    P1
_symmetry_Int_Tables_number       1
_space_group_crystal_system       triclinic
_cell_length_a                    23.51773
_cell_length_b                    10.916805
_cell_length_c                    9.840009
_cell_angle_alpha                 110.0937
_cell_angle_beta                  97.52103
_cell_angle_gamma                 92.193648
_cell_volume                      2342.70595326

loop_
_atom_site_label
_atom_site_type_symbol
_atom_type_description
_atom_site_fract_x
_atom_site_fract_y
_atom_site_fract_z
_atom_type_partial_charge
C1    C     C_R   0.492882 0.253909 0.442760 0.560624
C2    C     C_R   0.711874 0.556019 0.625396 0.253285
C3    C     C_R   0.240271 0.423445 0.554781 -0.051255
C4    C     C_R   0.770833 0.554839 0.617879 -0.029315
C5    C     C_R   0.210159 0.508299 0.498159 0.181889
C6    C     C_R   0.790331 0.506904 0.482512 0.187290
C7    C     C_2   0.483154 0.114066 0.416751 -0.096077
C8    C     C_2   0.498051 0.885037 0.585770 -0.092338
C9    C     C_2   0.467767 0.070350 0.520835 0.228393
C10   C     C_2   0.466040 0.927308 0.489512 0.230959
C11   C     C_2   0.503154 0.522069 0.087083 0.373151
C12   C     C_R   0.502238 0.745880 0.557728 0.547596
C13   C     C_2   0.488782 0.511082 0.928777 0.382775
C14   C     C_R   0.391421 0.500278 0.501447 0.566501
C15   C     C_R   0.608973 0.500534 0.498539 0.543222
C16   C     C_R   0.883747 0.626501 0.526380 0.427604
C17   C     C_R   0.114736 0.392292 0.425395 0.429686
C18   C     C_R   0.874959 0.392883 0.426288 0.417761
C19   C     C_R   0.124939 0.623412 0.550858 0.414126
C20   C     C_R   0.934355 0.391396 0.425885 -0.014663
C21   C     C_R   0.065110 0.625974 0.540851 -0.013358
C22   C     C_R   0.969416 0.510460 0.478879 -0.075334
C23   C     C_R   0.240224 0.589372 0.442507 -0.070241
C24   C     C_R   0.029699 0.507599 0.482237 -0.075366
C25   C     C_R   0.944296 0.631699 0.528697 0.019055
C26   C     C_R   0.054636 0.386809 0.428392 0.020604
C27   C     C_R   0.959006 0.272319 0.377153 -0.077013
C28   C     C_R   0.040595 0.745202 0.588372 -0.079831
C29   C     C_R   0.018322 0.267326 0.379271 0.243618
C30   C     C_R   0.981056 0.751011 0.579799 0.238887
C31   C     C_3   0.320350 0.206071 0.464528 -0.087919
C32   C     C_3   0.694697 0.741060 0.803526 -0.091583
C33   C     C_3   0.382925 0.867136 0.320499 -0.128625
C34   C     C_R   0.750535 0.456152 0.353670 -0.067896
C35   C     C_3   0.423035 0.109231 0.729958 -0.087033
C36   C     C_3   0.393018 0.536230 0.911311 -0.084046
C37   C     C_3   0.595725 0.620990 0.182031 -0.095708
C38   C     C_R   0.299612 0.587993 0.446860 -0.199033
C39   C     C_R   0.691710 0.452856 0.360068 -0.203995
C40   C     C_R   0.329557 0.503316 0.503455 0.011694
C41   C     C_R   0.671578 0.502788 0.495235 0.002689
C42   C     C_R   0.299354 0.416307 0.551460 0.224097
Cu1   Cu    Cu3+1 0.509980 0.521810 0.644910 1.055172
Cu2   Cu    Cu3+1 0.490020 0.478190 0.355090 1.001825
H1    H     H_    0.931626 0.181493 0.338678 0.231690
H2    H     H_    0.801628 0.592273 0.717835 0.155726
H3    H     H_    0.520518 0.954187 0.688797 0.075425
H4    H     H_    0.488232 0.045263 0.309819 0.096824
H5    H     H_    0.009497 0.913711 0.305588 0.382550
H6    H     H_    0.993998 0.107761 0.676089 0.384960
H7    H     H_    0.342793 0.220701 0.377708 0.115592
H8    H     H_    0.274160 0.171696 0.421118 0.149895
H9    H     H_    0.340213 0.127217 0.494843 0.135801
H10   H     H_    0.665693 0.769967 0.722907 0.116473
H11   H     H_    0.739163 0.787663 0.819369 0.149858
H12   H     H_    0.068377 0.835526 0.630567 0.230966
H13   H     H_    0.678511 0.779034 0.909909 0.143774
H14   H     H_    0.382122 0.955258 0.288507 0.101376
H15   H     H_    0.358165 0.878584 0.412382 0.095939
H16   H     H_    0.360820 0.783673 0.225053 0.140393
H17   H     H_    0.447523 0.065222 0.803032 0.102471
H18   H     H_    0.388062 0.037396 0.654364 0.087296
H19   H     H_    0.401975 0.191601 0.800343 0.186639
H20   H     H_    0.390734 0.546885 0.026832 0.102978
H21   H     H_    0.350169 0.492538 0.848425 0.178121
H22   H     H_    0.400430 0.634422 0.902523 0.124306
H23   H     H_    0.565112 0.594172 0.917894 0.187932
H24   H     H_    0.613254 0.693023 0.138115 0.110369
H25   H     H_    0.606726 0.520943 0.118706 0.088544
H26   H     H_    0.618464 0.650086 0.295856 0.157876
H27   H     H_    0.448919 0.366546 0.063059 0.189035
H28   H     H_    0.217543 0.653129 0.395151 0.163603
H29   H     H_    0.765261 0.418440 0.248488 0.160003
H30   H     H_    0.322230 0.652125 0.404797 0.125708
H31   H     H_    0.661969 0.410223 0.258946 0.135318
H32   H     H_    0.217424 0.359007 0.596075 0.167233
N1    N     N_R   0.851073 0.508815 0.476674 -0.402838
N2    N     N_R   0.148579 0.508099 0.491963 -0.399264
N3    N     N_2   0.475010 0.445410 0.137370 -0.331270
N4    N     N_2   0.524990 0.554590 0.862630 -0.327794
O1    O     O_R   0.505330 0.332340 0.577400 -0.401916
O2    O     O_2   0.139385 0.284801 0.352383 -0.408113
O3    O     O_2   0.841242 0.278916 0.379329 -0.467793
O4    O     O_2   0.159342 0.735580 0.619512 -0.483704
O5    O     O_2   0.065081 0.074736 0.186226 -0.193277
O6    O     O_2   0.091599 0.106339 0.446841 -0.233445
O7    O     O_3   0.990339 0.994962 0.315663 -0.488066
O8    O     O_2   0.913551 0.920864 0.510448 -0.203945
O9    O     O_2   0.929643 0.937427 0.768272 -0.201033
O10   O     O_3   0.012133 0.025419 0.666810 -0.492744
O11   O     O_3   0.326863 0.320849 0.589966 -0.550189
O12   O     O_R   0.494670 0.667660 0.422600 -0.378014
O13   O     O_3   0.694153 0.603769 0.761004 -0.553343
O14   O     O_3   0.439862 0.838475 0.354282 -0.534756
O15   O     O_3   0.460830 0.159883 0.657673 -0.523660
O16   O     O_3   0.435258 0.453205 0.852380 -0.511738
O17   O     O_3   0.536235 0.632581 0.185550 -0.520175
O18   O     O_R   0.488470 0.295500 0.332650 -0.524515
O19   O     O_R   0.511530 0.704500 0.667350 -0.530625
O20   O     O_R   0.426310 0.518390 0.622390 -0.431315
O21   O     O_R   0.573690 0.481610 0.377610 -0.509669
O22   O     O_R   0.409450 0.481550 0.377650 -0.513414
O23   O     O_R   0.590550 0.518450 0.622350 -0.455733
O24   O     O_2   0.857075 0.736724 0.574233 -0.402968
S1    S     S_3+6 0.043573 0.108528 0.330875 0.075831
S2    S     S_3+6 0.956865 0.910981 0.632159 0.082935

loop_
_geom_bond_atom_site_label_1
_geom_bond_atom_site_label_2
_ccdc_geom_bond_type
C3    C42   A    
C33   H14   S    
C37   H25   S    
C27   C29   A    
H5    O7    S    
C31   H8    S    
C33   O14   S    
H27   N3    S    
C28   H12   S    
C39   C41   A    
C4    H2    S    
C17   C26   A    
C19   C21   A    
Cu1   O19   S    
C42   O11   S    
C36   H22   S    
C14   O22   A    
C10   O14   S    
C2    C41   A    
C1    O1    A    
C37   H24   S    
C16   C25   A    
C17   O2    S    
C12   O19   A    
Cu2   O18   S    
H6    O10   S    
C22   C25   A    
C5    C23   A    
O9    S2    D    
C39   H31   S    
C9    C10   S    
C9    O15   S    
C32   H11   S    
Cu2   O12   S    
C37   O17   S    
C27   H1    S    
C40   C42   A    
C32   O13   S    
C13   N4    D    
C33   H15   S    
C37   H26   S    
C30   S2    S    
C29   S1    S    
C32   H13   S    
O5    S1    D    
C32   H10   S    
C16   O24   S    
Cu2   N3    S    
C13   O16   S    
C34   C39   A    
Cu1   O20   S    
C15   C41   S    
C4    C6    A    
C31   H7    S    
Cu2   O22   S    
C36   H21   S    
C6    N1    S    
Cu1   N4    S    
C15   O21   A    
C6    C34   A    
C19   N2    A    
C2    C4    A    
Cu1   Cu2   S    
O8    S2    D    
C36   O16   S    
O7    S1    S    
C8    C12   S    
C18   O3    S    
C35   H17   S    
C31   H9    S    
C3    H32   S    
O10   S2    S    
C11   N3    D    
C21   C28   A    
C20   C22   A    
C33   H16   S    
C31   O11   S    
Cu1   O1    S    
C22   C24   A    
O6    S1    D    
C19   O4    S    
C38   H30   S    
C25   C30   A    
C7    C9    D    
C1    C7    S    
C23   H28   S    
C12   O12   A    
C2    O13   S    
H23   N4    S    
C24   C26   A    
C3    C5    A    
C1    O18   A    
Cu2   O21   S    
C14   O20   A    
C20   C27   A    
C35   O15   S    
C23   C38   A    
C11   O17   S    
C7    H4    S    
C28   C30   A    
C8    H3    S    
C38   C40   A    
C11   C13   S    
C18   N1    A    
C17   N2    A    
C35   H18   S    
C18   C20   A    
Cu1   O23   S    
C34   H29   S    
C14   C40   S    
C26   C29   A    
C8    C10   D    
C21   C24   A    
C16   N1    A    
C35   H19   S    
C15   O23   A    
C5    N2    S    
C36   H20   S    
