data_mof_unit_5243.cif
_audit_creation_date              2012-12-10T17:46:25-0500
_audit_creation_method            fapswitch 2.2
_symmetry_space_group_name_H-M    P1
_symmetry_Int_Tables_number       1
_space_group_crystal_system       triclinic
_cell_length_a                    20.533702
_cell_length_b                    21.188327
_cell_length_c                    14.84273
_cell_angle_alpha                 90.003075
_cell_angle_beta                  128.444759
_cell_angle_gamma                 89.995644
_cell_volume                      5057.72035349

loop_
_atom_site_label
_atom_site_type_symbol
_atom_type_description
_atom_site_fract_x
_atom_site_fract_y
_atom_site_fract_z
_atom_type_partial_charge
C1    C     C_R   0.598985 0.910081 0.625793 0.789269
C2    C     C_R   0.709220 0.192383 0.121339 -0.201597
C3    C     C_R   0.687394 0.747277 0.921000 0.064418
C4    C     C_R   0.253311 0.700739 0.002275 0.074731
C5    C     C_R   0.812626 0.247316 0.078948 0.064443
C6    C     C_R   0.746791 0.700752 0.997762 0.074701
C7    C     C_R   0.187404 0.247298 0.921029 0.064435
C8    C     C_R   0.370837 0.768095 0.064166 -0.146991
C9    C     C_R   0.704999 0.171927 0.028993 -0.209703
C10   C     C_R   0.629033 0.767915 0.935565 -0.146965
C11   C     C_R   0.295188 0.172010 0.971171 -0.209753
C12   C     C_R   0.870867 0.268053 0.064223 -0.146990
C13   C     C_R   0.635481 0.750009 0.030685 -0.192337
C14   C     C_R   0.205051 0.671903 0.029036 -0.209699
C15   C     C_R   0.129071 0.267964 0.935633 -0.146962
C16   C     C_R   0.795232 0.672029 0.971206 -0.209759
C17   C     C_2   0.351266 0.963053 0.007145 0.308295
C18   C     C_2   0.648530 0.962777 0.992703 0.308460
C19   C     C_2   0.851314 0.462983 0.007179 0.308327
C20   C     C_2   0.148584 0.462865 0.992738 0.308413
C21   C     C_2   0.309360 0.834150 0.442455 0.418975
C22   C     C_2   0.711288 0.157320 0.586627 0.381086
C23   C     C_2   0.691395 0.834535 0.558329 0.417733
C24   C     C_R   0.291049 0.192513 0.878920 -0.201601
C25   C     C_2   0.288445 0.157154 0.413114 0.380167
C26   C     C_2   0.809225 0.334222 0.442315 0.418815
C27   C     C_2   0.211226 0.657359 0.586563 0.381107
C28   C     C_2   0.191274 0.334468 0.558201 0.417907
C29   C     C_2   0.788392 0.657124 0.413056 0.380144
C30   C     C_2   0.715223 0.991174 0.524416 0.407986
C31   C     C_2   0.284838 0.990857 0.475588 0.407986
C32   C     C_2   0.215216 0.491127 0.524418 0.407915
C33   C     C_2   0.784831 0.490897 0.475591 0.408035
C34   C     C_R   0.864343 0.250194 0.969024 -0.192352
C35   C     C_R   0.209294 0.692344 0.121408 -0.201617
C36   C     C_R   0.135530 0.250065 0.030764 -0.192341
C37   C     C_R   0.791115 0.692547 0.878979 -0.201585
C38   C     C_R   0.320832 0.994519 0.666924 -0.217141
C39   C     C_R   0.679126 0.994596 0.332984 -0.217019
C40   C     C_R   0.820841 0.494515 0.666942 -0.217120
C41   C     C_R   0.396257 0.086660 0.368126 0.792360
C42   C     C_R   0.179136 0.494598 0.333001 -0.217049
C43   C     C_R   0.349252 0.994999 0.602792 0.140295
C44   C     C_R   0.650756 0.995119 0.397183 0.140060
C45   C     C_R   0.849252 0.495009 0.602798 0.140219
C46   C     C_R   0.150756 0.495105 0.397188 0.140139
C47   C     C_R   0.488355 0.004999 0.775402 0.059075
C48   C     C_R   0.511609 0.004962 0.224593 0.058806
C49   C     C_R   0.988361 0.504998 0.775402 0.059020
C50   C     C_R   0.011615 0.504966 0.224594 0.058849
C51   C     C_R   0.462537 0.997236 0.845237 -0.007253
C52   C     C_R   0.401060 0.910059 0.374254 0.789487
C53   C     C_R   0.537387 0.997228 0.154704 -0.007367
C54   C     C_R   0.962553 0.497235 0.845249 -0.007292
C55   C     C_R   0.037402 0.497232 0.154716 -0.007337
C56   C     C_R   0.376197 0.995077 0.786175 0.086790
C57   C     C_R   0.623726 0.995071 0.213733 0.086822
C58   C     C_R   0.876214 0.495064 0.786193 0.086804
C59   C     C_R   0.123742 0.495086 0.213751 0.086810
C60   C     C_R   0.517408 0.993069 0.969647 0.034563
C61   C     C_R   0.482490 0.993092 0.030278 0.034364
C62   C     C_R   0.017430 0.493080 0.969663 0.034518
C63   C     C_R   0.603731 0.086665 0.631864 0.792281
C64   C     C_R   0.982512 0.493086 0.030293 0.034398
C65   C     C_R   0.394543 0.986310 0.963326 -0.017398
C66   C     C_R   0.605335 0.986193 0.036563 -0.017458
C67   C     C_R   0.894570 0.486276 0.963348 -0.017406
C68   C     C_R   0.105363 0.486235 0.036587 -0.017438
C69   C     C_R   0.343729 0.990729 0.844573 -0.254409
C70   C     C_R   0.656171 0.990657 0.155306 -0.254731
C71   C     C_R   0.843751 0.490697 0.844597 -0.254437
C72   C     C_R   0.156193 0.490692 0.155331 -0.254687
C73   C     C_R   0.668954 0.133334 0.712610 -0.152896
C74   C     C_R   0.098981 0.410079 0.625788 0.789307
C75   C     C_R   0.353280 0.850905 0.315975 -0.159386
C76   C     C_R   0.331006 0.133309 0.287347 -0.152922
C77   C     C_R   0.646868 0.850973 0.684164 -0.159325
C78   C     C_R   0.168945 0.633341 0.712598 -0.152894
C79   C     C_R   0.853255 0.350917 0.315953 -0.159372
C80   C     C_R   0.830996 0.633302 0.287334 -0.152925
C81   C     C_R   0.146852 0.350965 0.684150 -0.159333
C82   C     C_R   0.789626 0.198877 0.784565 -0.140389
C83   C     C_R   0.258876 0.765726 0.276157 -0.149633
C84   C     C_R   0.210200 0.198740 0.215212 -0.140466
C85   C     C_R   0.896255 0.586658 0.368123 0.792344
C86   C     C_R   0.741623 0.765990 0.724362 -0.149678
C87   C     C_R   0.289577 0.698921 0.784500 -0.140372
C88   C     C_R   0.758787 0.265776 0.276065 -0.149632
C89   C     C_R   0.710153 0.698698 0.215146 -0.140482
C90   C     C_R   0.241545 0.265945 0.724282 -0.149679
C91   C     C_R   0.723539 0.161811 0.696152 -0.010891
C92   C     C_R   0.306671 0.818166 0.342791 -0.017864
C93   C     C_R   0.276306 0.161704 0.303676 -0.010626
C94   C     C_R   0.693772 0.818396 0.657674 -0.017530
C95   C     C_R   0.223501 0.661841 0.696106 -0.010924
C96   C     C_R   0.901053 0.410063 0.374246 0.789455
C97   C     C_R   0.806592 0.318209 0.342709 -0.017818
C98   C     C_R   0.776271 0.661678 0.303632 -0.010598
C99   C     C_R   0.193704 0.318358 0.657602 -0.017582
C100  C     C_R   0.679516 0.146453 0.813826 -0.233148
C101  C     C_R   0.357050 0.825458 0.232021 -0.222021
C102  C     C_R   0.320526 0.146481 0.186209 -0.233216
C103  C     C_R   0.642940 0.825419 0.767910 -0.222114
C104  C     C_R   0.179527 0.646448 0.813832 -0.233126
C105  C     C_R   0.857056 0.325448 0.232038 -0.222051
C106  C     C_R   0.820533 0.646483 0.186210 -0.233228
C107  C     C_R   0.103729 0.586666 0.631862 0.792290
C108  C     C_R   0.142958 0.325436 0.767940 -0.222080
C109  C     C_R   0.744237 0.185078 0.901420 0.090751
C110  C     C_R   0.311525 0.771604 0.167589 0.087664
C111  C     C_R   0.255771 0.185061 0.098553 0.090742
C112  C     C_R   0.688586 0.771623 0.832463 0.087669
C113  C     C_R   0.244236 0.685087 0.901408 0.090754
C114  C     C_R   0.811509 0.271605 0.167584 0.087664
C115  C     C_R   0.755766 0.685048 0.098534 0.090736
C116  C     C_R   0.188581 0.271628 0.832471 0.087669
C117  C     C_R   0.799797 0.211033 0.885343 0.099549
C118  C     C_R   0.364299 0.750246 0.968952 -0.192356
C119  C     C_R   0.259665 0.743281 0.188205 0.114608
C120  C     C_R   0.200105 0.210939 0.114502 0.099556
C121  C     C_R   0.740670 0.743442 0.812110 0.114629
C122  C     C_R   0.299766 0.711068 0.885293 0.099546
C123  C     C_R   0.759606 0.243311 0.188151 0.114611
C124  C     C_R   0.700071 0.710902 0.114447 0.099552
C125  C     C_R   0.240621 0.243418 0.812067 0.114630
C126  C     C_R   0.753294 0.200740 0.002271 0.074718
C127  C     C_R   0.312626 0.747331 0.078931 0.064456
C128  C     C_R   0.246781 0.200757 0.997768 0.074712
Cu1   Cu    Cu3+1 0.526640 1.000000 0.436960 0.928317
Cu2   Cu    Cu3+1 0.473360 0.000000 0.563040 0.928440
Cu3   Cu    Cu3+1 0.026640 0.500000 0.436960 0.928335
Cu4   Cu    Cu3+1 0.973360 0.500000 0.563040 0.928424
H1    H     H_    0.409018 0.768591 0.959410 0.149845
H2    H     H_    0.664304 0.132475 0.981647 0.127101
H3    H     H_    0.576540 0.797235 0.873535 0.173325
H4    H     H_    0.335916 0.132575 0.018551 0.127077
H5    H     H_    0.923327 0.297414 0.126190 0.173322
H6    H     H_    0.164370 0.632443 0.981704 0.127073
H7    H     H_    0.076589 0.297299 0.873624 0.173310
H8    H     H_    0.835976 0.632604 0.018601 0.127099
H9    H     H_    0.276859 0.986256 0.795688 0.146458
H10   H     H_    0.723035 0.986153 0.204165 0.146395
H11   H     H_    0.776883 0.486210 0.795717 0.146445
H12   H     H_    0.670881 0.169191 0.138530 0.148061
H13   H     H_    0.223060 0.486204 0.204196 0.146411
H14   H     H_    0.448607 0.016409 0.187773 0.141560
H15   H     H_    0.551367 0.016464 0.812288 0.141256
H16   H     H_    0.948609 0.516410 0.187760 0.141508
H17   H     H_    0.051367 0.516468 0.812272 0.141304
H18   H     H_    0.254564 0.992396 0.623459 0.192854
H19   H     H_    0.745386 0.992509 0.376388 0.193083
H20   H     H_    0.754575 0.492389 0.623487 0.192892
H21   H     H_    0.245397 0.492512 0.376416 0.193040
H22   H     H_    0.291951 0.983244 0.975894 0.083687
H23   H     H_    0.590642 0.768259 0.040074 0.149792
H24   H     H_    0.707958 0.982781 0.024071 0.083644
H25   H     H_    0.791974 0.483132 0.975905 0.083691
H26   H     H_    0.207976 0.482925 0.024067 0.083634
H27   H     H_    0.394910 0.849533 0.216245 0.212824
H28   H     H_    0.634966 0.126795 0.821575 0.151745
H29   H     H_    0.604858 0.849370 0.783426 0.212677
H30   H     H_    0.365168 0.126898 0.178569 0.151791
H31   H     H_    0.894958 0.349498 0.216311 0.212802
H32   H     H_    0.135001 0.626767 0.821612 0.151729
H33   H     H_    0.104920 0.349413 0.783508 0.212702
H34   H     H_    0.329486 0.169379 0.861839 0.148019
H35   H     H_    0.865196 0.626919 0.178596 0.151799
H36   H     H_    0.365268 0.852843 0.521178 0.088052
H37   H     H_    0.649771 0.151350 0.505273 0.095694
H38   H     H_    0.635491 0.853064 0.479393 0.088260
H39   H     H_    0.349939 0.151234 0.494529 0.095908
H40   H     H_    0.865132 0.352882 0.521079 0.088075
H41   H     H_    0.149704 0.651376 0.505222 0.095697
H42   H     H_    0.135371 0.353027 0.479303 0.088239
H43   H     H_    0.849884 0.651214 0.494481 0.095906
H44   H     H_    0.331726 0.720699 0.772879 0.175574
H45   H     H_    0.909086 0.268520 0.959511 0.149836
H46   H     H_    0.721554 0.241417 0.294118 0.178216
H47   H     H_    0.667875 0.720380 0.226619 0.175439
H48   H     H_    0.278905 0.241658 0.706370 0.178063
H49   H     H_    0.831798 0.220637 0.772971 0.175548
H50   H     H_    0.221681 0.741343 0.294251 0.178252
H51   H     H_    0.167943 0.220439 0.226709 0.175461
H52   H     H_    0.779019 0.741726 0.706491 0.178035
H53   H     H_    0.703211 0.002768 0.582919 0.129037
H54   H     H_    0.296679 0.002910 0.417059 0.128791
H55   H     H_    0.203228 0.502787 0.582923 0.129017
H56   H     H_    0.170985 0.669131 0.138633 0.148061
H57   H     H_    0.796693 0.502893 0.417065 0.128807
H58   H     H_    0.090713 0.268334 0.040182 0.149798
H59   H     H_    0.829582 0.669434 0.861933 0.148021
H60   H     H_    0.423287 0.797469 0.126116 0.173311
N1    N     N_R   0.433280 0.000000 0.657760 -0.233260
N2    N     N_R   0.566720 1.000000 0.342240 -0.233334
N3    N     N_R   0.933280 0.500000 0.657760 -0.233274
N4    N     N_R   0.066720 0.500000 0.342240 -0.233317
O1    O     O_R   0.600040 0.935040 0.546740 -0.631984
O2    O     O_R   0.444990 0.064930 0.346780 -0.575326
O3    O     O_R   0.444990 0.935070 0.346780 -0.550814
O4    O     O_R   0.555010 0.064930 0.653220 -0.575298
O5    O     O_R   0.055010 0.435070 0.653220 -0.550778
O6    O     O_R   0.944990 0.564930 0.346780 -0.575333
O7    O     O_R   0.944990 0.435070 0.346780 -0.550806
O8    O     O_R   0.055010 0.564930 0.653220 -0.575291
O9    O     O_2   0.378623 0.918077 0.072226 -0.571131
O10   O     O_2   0.620960 0.917875 0.927438 -0.571093
O11   O     O_2   0.878721 0.418023 0.072298 -0.571137
O12   O     O_R   0.399960 0.064960 0.453260 -0.626871
O13   O     O_2   0.121079 0.417940 0.927528 -0.571074
O14   O     O_2   0.249378 0.824173 0.439287 -0.500120
O15   O     O_2   0.770116 0.162186 0.585645 -0.527072
O16   O     O_2   0.751659 0.824873 0.562017 -0.500644
O17   O     O_2   0.229542 0.161916 0.413954 -0.527660
O18   O     O_2   0.749190 0.324305 0.439052 -0.500183
O19   O     O_2   0.270039 0.662248 0.585551 -0.527073
O20   O     O_2   0.251488 0.324748 0.561797 -0.500572
O21   O     O_2   0.729478 0.661869 0.413874 -0.527661
O22   O     O_2   0.786136 0.974630 0.567619 -0.521167
O23   O     O_R   0.399960 0.935040 0.453260 -0.631759
O24   O     O_2   0.214184 0.973623 0.432470 -0.521242
O25   O     O_2   0.286092 0.474480 0.567609 -0.521216
O26   O     O_2   0.714143 0.473752 0.432461 -0.521183
O27   O     O_R   0.600040 0.064960 0.546740 -0.626901
O28   O     O_R   0.100040 0.435040 0.546740 -0.631944
O29   O     O_R   0.899960 0.564960 0.453260 -0.626868
O30   O     O_R   0.899960 0.435040 0.453260 -0.631793
O31   O     O_R   0.100040 0.564960 0.546740 -0.626900
O32   O     O_R   0.555010 0.935070 0.653220 -0.550768

loop_
_geom_bond_atom_site_label_1
_geom_bond_atom_site_label_2
_ccdc_geom_bond_type
C27   C95   S    
C45   N3    A    
C73   C100  A    
C19   O11   D    
C108  H33   S    
C25   C93   S    
C55   C59   A    
C5    C114  A    
C33   C45   S    
C77   C94   A    
C35   C119  A    
Cu3   N4    S    
Cu1   O27   S    
Cu2   N1    S    
C27   H41   S    
C32   O25   D    
C8    C118  A    
C110  C119  A    
C2    C123  A    
C63   O4    A    
C87   H44   S    
C82   H49   S    
C40   H20   S    
Cu4   O5    S    
C21   H36   S    
C31   C43   S    
C29   C98   S    
C36   H58   S    
C31   O24   D    
C42   C46   A    
C1    C77   S    
C58   C71   A    
C68   C72   A    
C23   O16   D    
C69   H9    S    
C49   C54   A    
C39   C57   A    
C80   C106  A    
C11   C24   A    
C2    H12   S    
C21   O14   D    
C79   C105  A    
C33   H57   S    
C51   C56   A    
C118  C122  A    
C83   C119  A    
C26   O18   D    
Cu3   O6    S    
C13   H23   S    
C62   C64   A    
C86   C94   A    
C50   N4    A    
C113  C122  A    
C14   H6    S    
C35   H56   S    
C107  O31   A    
C5    C126  A    
Cu4   N3    S    
C22   C91   S    
C105  H31   S    
C19   C67   S    
Cu3   O28   S    
C57   C70   A    
Cu3   O7    S    
Cu2   O32   S    
C78   C95   A    
Cu1   O2    S    
C32   H55   S    
C84   C120  A    
C110  C127  A    
C30   O22   D    
C90   C99   A    
C48   N2    A    
C33   O26   D    
C25   H39   S    
C34   C117  A    
C29   O21   D    
C81   C108  A    
C60   C66   A    
C100  C109  A    
C20   H26   S    
C55   C64   A    
C27   O19   D    
C9    C126  A    
C30   C44   S    
C102  C111  A    
C16   H8    S    
C53   C61   A    
C29   H43   S    
C88   C123  A    
Cu2   O4    S    
C17   H22   S    
C59   C72   A    
C79   C97   A    
Cu1   N2    S    
C15   H7    S    
C76   C102  A    
C40   C45   A    
C79   C96   S    
C47   H15   S    
C103  H29   S    
Cu4   O8    S    
C64   C67   A    
C78   C104  A    
C19   H25   S    
C30   H53   S    
C63   O27   A    
C105  C114  A    
C42   H21   S    
C40   C58   A    
C10   H3    S    
C73   C91   A    
C5    C12   A    
C49   N3    A    
C14   C35   A    
C90   H48   S    
C53   C57   A    
C47   C51   A    
C81   C99   A    
C101  C110  A    
C89   C98   A    
C6    C16   A    
C82   C91   A    
C83   H50   S    
C48   H14   S    
C60   C61   A    
C70   H10   S    
C96   O30   A    
C7    C116  A    
C109  C117  A    
C24   H34   S    
C63   C73   S    
C80   C85   S    
C83   C92   A    
Cu4   O30   S    
C76   C93   A    
C89   C124  A    
C100  H28   S    
C8    C127  A    
C3    C112  A    
C102  H30   S    
C22   O15   D    
C86   C121  A    
C52   O3    A    
C20   O13   D    
C88   H46   S    
Cu1   O3    S    
C118  H1    S    
C85   O6    A    
C78   C107  S    
C37   C121  A    
C114  C123  A    
C75   C92   A    
C1    O32   A    
C107  O8    A    
C17   C65   S    
C37   H59   S    
C26   C97   S    
C116  C125  A    
C24   C125  A    
C7    C128  A    
C77   C103  A    
C85   O29   A    
C74   C81   S    
C12   C34   A    
Cu3   Cu4   S    
C15   C36   A    
C74   O28   A    
C18   H24   S    
C28   C99   S    
C96   O7    A    
C71   H11   S    
Cu1   Cu2   S    
C54   C58   A    
C50   H16   S    
C86   H52   S    
C87   C95   A    
C52   O23   A    
C115  C124  A    
C4    C127  A    
C80   C98   A    
C32   C46   S    
C47   N1    A    
C84   H51   S    
C1    O1    A    
C88   C97   A    
C41   O2    A    
C10   C13   A    
C42   C59   A    
C104  H32   S    
C87   C122  A    
C17   O9    D    
C20   C68   S    
C46   N4    A    
C39   C44   A    
C111  C120  A    
C74   O5    A    
C62   C68   A    
C48   C53   A    
C18   C66   S    
C54   C62   A    
C43   N1    A    
C16   C37   A    
C44   N2    A    
C50   C55   A    
C82   C117  A    
C23   C94   S    
C49   H17   S    
C106  C115  A    
C18   O10   D    
C106  H35   S    
C108  C116  A    
C41   O12   A    
C25   O17   D    
C11   C128  A    
C112  C121  A    
C3    C10   A    
Cu4   O29   S    
C9    H2    S    
C41   C76   S    
C28   O20   D    
C28   H42   S    
C66   C70   A    
C23   H38   S    
C8    H60   S    
C65   C69   A    
C31   H54   S    
C7    C15   A    
C90   C125  A    
C13   C124  A    
C67   C71   A    
C84   C93   A    
C89   H47   S    
C4    C14   A    
Cu2   O23   S    
C36   C120  A    
C39   H19   S    
C6    C115  A    
C22   H37   S    
Cu2   O12   S    
C52   C75   S    
C26   H40   S    
C104  C113  A    
C4    C113  A    
C61   C65   A    
C109  C126  A    
C38   C43   A    
C38   C56   A    
C101  H27   S    
C56   C69   A    
C3    C6    A    
C111  C128  A    
C75   C101  A    
C12   H5    S    
C103  C112  A    
C34   H45   S    
C51   C60   A    
Cu3   O31   S    
C11   H4    S    
C2    C9    A    
C38   H18   S    
Cu1   O1    S    
C72   H13   S    
C21   C92   S    
