data_mof_unit_15631.cif
_audit_creation_date              2013-03-05T15:43:51-0500
_audit_creation_method            fapswitch 2.2
_symmetry_space_group_name_H-M    P1
_symmetry_Int_Tables_number       1
_space_group_crystal_system       triclinic
_cell_length_a                    13.541404
_cell_length_b                    13.568869
_cell_length_c                    27.390828
_cell_angle_alpha                 90.544811
_cell_angle_beta                  90.053215
_cell_angle_gamma                 59.955704
_cell_volume                      4356.37467685

loop_
_atom_site_label
_atom_site_type_symbol
_atom_site_description
_atom_site_fract_x
_atom_site_fract_y
_atom_site_fract_z
_atom_type_partial_charge
O1    O     O_R   0.301710 0.195650 0.554160 -0.478577
O2    O     O_R   0.522390 0.158990 0.550460 -0.487076
C1    C     C_R   0.620926 0.101764 0.569730 0.557224
O3    O     O_R   0.694390 0.003530 0.554040 -0.470201
O4    O     O_R   0.657700 0.819660 0.549320 -0.477480
C2    C     C_R   0.599951 0.778813 0.568478 0.551875
O5    O     O_R   0.501930 0.803280 0.552920 -0.490295
O6    O     O_R   0.318170 0.023580 0.549580 -0.486078
C3    C     C_R   0.277977 0.121777 0.569546 0.558188
O7    O     O_R   0.303010 0.193990 0.446760 -0.485070
O8    O     O_R   0.523600 0.157450 0.450900 -0.461311
C4    C     C_R   0.623314 0.101667 0.431818 0.569581
O9    O     O_R   0.695690 0.001860 0.446640 -0.427365
O10   O     O_R   0.658900 0.818120 0.449760 -0.463526
C5    C     C_R   0.605189 0.770735 0.432040 0.563461
O11   O     O_R   0.503220 0.801620 0.445520 -0.442650
O12   O     O_R   0.319370 0.022040 0.450020 -0.455813
C6    C     C_R   0.275842 0.121595 0.431577 0.559123
Cr1   Cr    Cr6+3 0.417550 0.169090 0.500530 1.156301
Cr2   Cr    Cr6+3 0.669180 0.913420 0.499920 1.186950
Cr3   Cr    Cr6+3 0.413260 0.917540 0.499520 1.166498
O13   O     O_3   0.499990 0.000010 0.499990 -0.321679
C7    C     C_3   0.773361 0.607914 0.738888 0.258969
C8    C     C_3   0.737546 0.706771 0.775429 0.218432
C9    C     C_1   0.694393 0.613753 0.901441 0.056027
C10   C     C_1   0.632111 0.728834 0.615769 0.072261
C11   C     C_3   0.710202 0.563067 0.770447 0.225292
C12   C     C_3   0.675109 0.662399 0.806901 -0.023455
C13   C     C_3   0.598643 0.634863 0.741487 -0.151604
C14   C     C_3   0.662286 0.680411 0.710445 -0.004138
C15   C     C_3   0.563438 0.735148 0.778402 -0.163501
C16   C     C_3   0.627369 0.779920 0.746841 0.208512
C17   C     C_1   0.684010 0.642434 0.859492 0.065559
C18   C     C_1   0.649894 0.700232 0.657791 0.077934
H1    H     H_    0.477545 0.788658 0.794857 0.166442
H2    H     H_    0.542876 0.603199 0.727089 0.164869
C19   C     C_3   0.068736 0.171949 0.735777 0.294876
C20   C     C_3   0.139511 0.077355 0.772393 0.254340
H3    H     H_    0.324610 0.973564 0.737936 0.180401
C21   C     C_1   0.094617 0.201348 0.901725 0.037440
C22   C     C_1   0.230142 0.137892 0.617398 0.076374
C23   C     C_3   0.069925 0.261206 0.770669 -0.085800
C24   C     C_3   0.142380 0.165634 0.806812 -0.024040
C25   C     C_3   0.180560 0.242688 0.746135 -0.081476
C26   C     C_3   0.178477 0.153504 0.711876 0.027828
C27   C     C_3   0.252740 0.147215 0.782866 -0.111293
C28   C     C_3   0.250723 0.057583 0.747893 -0.094349
C29   C     C_1   0.120570 0.180459 0.859349 0.018441
C30   C     C_1   0.202215 0.146568 0.659564 0.080935
H4    H     H_    0.328540 0.136513 0.802934 0.191761
H5    H     H_    0.193014 0.313770 0.734689 0.229339
H6    H     H_    0.997314 0.344811 0.781483 0.228943
C31   C     C_3   0.678704 0.263345 0.736977 -0.104441
C32   C     C_3   0.580439 0.288413 0.773209 -0.096408
H7    H     H_    0.512035 0.373812 0.785497 0.175193
H8    H     H_    0.690691 0.327716 0.717327 0.216566
C33   C     C_1   0.692637 0.210521 0.902251 0.041108
C34   C     C_1   0.639399 0.136404 0.616779 0.087401
C35   C     C_3   0.765082 0.168978 0.771503 -0.018219
C36   C     C_3   0.666444 0.193207 0.806656 -0.050243
C37   C     C_3   0.743871 0.080816 0.744849 0.270525
C38   C     C_3   0.659021 0.174011 0.710964 0.035147
C39   C     C_3   0.646649 0.103538 0.780707 -0.044398
C40   C     C_3   0.562040 0.198329 0.746531 0.241654
C41   C     C_1   0.676603 0.201953 0.859548 0.014510
C42   C     C_1   0.650687 0.157379 0.658525 0.095786
H9    H     H_    0.633573 0.039003 0.799630 0.203361
H10   H     H_    0.849188 0.155286 0.783667 0.232807
C43   C     C_R   0.752654 0.681181 0.365272 0.163567
C44   C     C_R   0.767626 0.658390 0.314336 -0.000440
C45   C     C_R   0.774158 0.638937 0.211402 -0.017352
C46   C     C_R   0.863475 0.639519 0.236379 -0.079978
C47   C     C_R   0.861450 0.649891 0.287091 0.247784
C48   C     C_R   0.778837 0.627326 0.160617 -0.115762
H11   H     H_    0.854391 0.613171 0.140965 0.145993
H12   H     H_    0.935573 0.632558 0.216180 0.181460
C49   C     C_R   0.689340 0.626432 0.135601 -0.020934
C50   C     C_R   0.587500 0.655158 0.365451 0.200861
C51   C     C_R   0.594399 0.642107 0.314745 -0.030941
C52   C     C_R   0.681382 0.648252 0.288887 -0.056618
C53   C     C_R   0.512327 0.628337 0.289379 -0.079208
C54   C     C_R   0.508816 0.628206 0.238485 0.205323
C55   C     C_R   0.592570 0.640049 0.212162 0.015305
C56   C     C_R   0.682612 0.642539 0.237537 0.016003
C57   C     C_R   0.591660 0.646221 0.161254 -0.067817
C58   C     C_R   0.653178 0.695065 0.388689 -0.006441
H13   H     H_    0.519140 0.657602 0.140616 0.228179
H14   H     H_    0.447589 0.620432 0.309101 0.221751
C59   C     C_R   0.196384 0.062569 0.360955 0.182861
C60   C     C_R   0.188940 0.066507 0.308858 -0.038604
C61   C     C_R   0.169372 0.082867 0.205011 -0.000241
C62   C     C_R   0.194533 0.981007 0.228929 0.190884
C63   C     C_R   0.201503 0.974672 0.279809 -0.084585
C64   C     C_R   0.146315 0.099038 0.154181 0.151347
H15   H     H_    0.226656 0.892499 0.294738 0.216111
C65   C     C_R   0.115007 0.205900 0.133634 -0.015060
C66   C     C_R   0.190069 0.245353 0.361228 -0.122675
C67   C     C_R   0.173177 0.254836 0.311435 0.008376
C68   C     C_R   0.175806 0.164367 0.284570 0.016661
C69   C     C_R   0.161682 0.351014 0.287936 -0.084061
C70   C     C_R   0.148884 0.360305 0.237773 -0.116018
C71   C     C_R   0.148831 0.272727 0.210481 0.004731
C72   C     C_R   0.164683 0.173013 0.233330 0.006291
C73   C     C_R   0.126768 0.287063 0.160976 -0.154887
C74   C     C_R   0.212645 0.145927 0.385246 -0.005616
H16   H     H_    0.108089 0.367267 0.144858 0.149176
H17   H     H_    0.137855 0.436569 0.220368 0.143844
H18   H     H_    0.163680 0.418639 0.308420 0.201548
H19   H     H_    0.193401 0.313272 0.380886 0.210845
C75   C     C_R   0.555285 0.238657 0.361710 0.159276
C76   C     C_R   0.556685 0.248417 0.310451 -0.004026
C77   C     C_R   0.565053 0.266810 0.208077 0.019625
C78   C     C_R   0.471575 0.348536 0.234826 -0.105580
C79   C     C_R   0.468137 0.340905 0.285471 -0.085444
C80   C     C_R   0.579231 0.283939 0.158676 -0.117226
H20   H     H_    0.519250 0.362057 0.140872 0.183390
H21   H     H_    0.401544 0.419289 0.216647 0.201261
H22   H     H_    0.396136 0.408940 0.304565 0.205642
C81   C     C_R   0.677106 0.203809 0.133571 -0.028591
C82   C     C_R   0.743905 0.068557 0.358089 0.206463
C83   C     C_R   0.740498 0.070414 0.307045 -0.039184
C84   C     C_R   0.647947 0.161746 0.283190 -0.027016
C85   C     C_R   0.825557 0.980377 0.279308 -0.030995
C86   C     C_R   0.822794 0.983317 0.228548 0.221786
C87   C     C_R   0.739985 0.081713 0.204829 0.016288
C88   C     C_R   0.650359 0.169589 0.232005 0.031554
C89   C     C_R   0.749404 0.098073 0.155285 -0.090109
C90   C     C_R   0.644818 0.141933 0.384909 0.002340
H23   H     H_    0.821188 0.033051 0.134852 0.207677
H24   H     H_    0.892599 0.905412 0.296764 0.249713
O14   O     O_R   0.818720 0.150820 0.967160 -0.486988
O15   O     O_R   0.006410 0.181720 0.970200 -0.484625
C91   C     C_R   0.048763 0.236422 0.949835 0.548516
O16   O     O_R   0.027890 0.334070 0.964920 -0.496718
O17   O     O_R   0.809600 0.521790 0.967960 -0.483893
C92   C     C_R   0.710920 0.564252 0.948689 0.551667
O18   O     O_R   0.635520 0.542770 0.964420 -0.496787
O19   O     O_R   0.665950 0.325030 0.970100 -0.494859
C93   C     C_R   0.722377 0.225951 0.950795 0.546881
O20   O     O_R   0.816620 0.158530 0.074540 -0.505658
O21   O     O_R   0.004460 0.188870 0.069750 -0.468259
C94   C     C_R   0.050073 0.244182 0.087880 0.550407
O22   O     O_R   0.025800 0.341780 0.072300 -0.523656
O23   O     O_R   0.807650 0.528950 0.067500 -0.500447
C95   C     C_R   0.708195 0.573851 0.086940 0.543241
O24   O     O_R   0.633420 0.550490 0.071810 -0.498572
O25   O     O_R   0.664000 0.332180 0.069640 -0.489379
C96   C     C_R   0.717697 0.232435 0.088824 0.541309
Cr4   Cr    Cr6+3 0.909170 0.177380 0.020380 1.100669
Cr5   Cr    Cr6+3 0.912710 0.429210 0.018220 1.065162
Cr6   Cr    Cr6+3 0.657170 0.432570 0.019030 1.079007
O26   O     O_3   0.826350 0.346390 0.019210 -0.271580
N1    N     N_R   0.812148 0.746493 0.794508 0.124298
O27   O     O_R   0.904363 0.723983 0.770295 -0.174889
O28   O     O_R   0.797889 0.786569 0.839009 -0.319296
Cl1   Cl    Cl    0.427446 0.221993 0.726856 -0.594539
Cl2   Cl    Cl    0.854916 0.945975 0.724070 -0.351722
Cl3   Cl    Cl    0.909363 0.523494 0.710682 -0.477659
N2    N     N_R   0.835912 0.691263 0.393625 0.130771
O29   O     O_R   0.838158 0.785881 0.393616 -0.212800
O30   O     O_R   0.896504 0.613064 0.425553 -0.265599
Cl4   Cl    Cl    0.981740 0.649359 0.312227 -0.474980
N3    N     N_R   0.422505 0.611053 0.215356 0.098636
O31   O     O_R   0.332271 0.630116 0.239958 -0.280845
O32   O     O_R   0.440550 0.559632 0.173310 -0.373237
Cl5   Cl    Cl    0.497515 0.621708 0.400005 -0.445993
N4    N     N_R   0.147654 0.010416 0.124594 -0.140104
O33   O     O_R   0.201060 0.981198 0.082848 -0.000069
O34   O     O_R   0.201065 0.981186 0.082833 -0.000069
N5    N     N_R   0.173521 0.987647 0.390339 0.112395
O35   O     O_R   0.188994 0.890122 0.374141 -0.250700
O36   O     O_R   0.121546 0.024789 0.432183 -0.252619
N6    N     N_R   0.219666 0.880014 0.202296 0.111767
O37   O     O_R   0.158319 0.832205 0.209028 -0.182956
O38   O     O_R   0.309863 0.830408 0.174535 -0.308581
Cl6   Cl    Cl    0.571252 0.923752 0.729103 -0.576801
N7    N     N_R   0.466109 0.327877 0.390457 0.097354
O39   O     O_R   0.360447 0.354152 0.384453 -0.338713
O40   O     O_R   0.492037 0.374059 0.426388 -0.236827
Cl7   Cl    Cl    0.924180 0.861523 0.196241 -0.536671
Cl8   Cl    Cl    0.875416 0.983785 0.388315 -0.384888
Cl9   Cl    Cl    0.765672 0.420564 0.790015 -0.640381
Cl10  Cl    Cl    0.111368 0.968342 0.790441 -0.479719
Cl11  Cl    Cl    0.951146 0.189639 0.700407 -0.506254

loop_
_geom_bond_atom_site_label_1
_geom_bond_atom_site_label_2
_geom_bond_distance
_ccdc_geom_bond_type
C70   H17   1.083945 S    
C68   C72   1.411137 A    
C70   C71   1.398190 A    
C11   C13   1.548948 S    
N3    O31   1.302222 A    
C46   H12   1.084353 S    
C12   C15   1.545376 S    
O20   C96   1.265502 A    
C73   H16   1.084678 S    
C66   C67   1.379248 A    
C31   C35   1.556692 S    
O21   Cr4   1.926710 S    
C85   C86   1.391224 A    
N4    O34   1.301742 A    
O4    Cr2   1.924777 S    
C32   C36   1.542237 S    
C31   C32   1.553712 S    
C82   C83   1.398906 A    
C16   Cl6   1.776148 S    
C13   H2    1.109734 S    
O8    Cr1   1.925524 S    
C47   Cl4   1.764549 S    
C32   C40   1.542000 S    
C36   C39   1.538576 S    
H3    C28   1.107952 S    
N3    O32   1.299003 A    
C19   C20   1.537128 S    
C59   N5    1.452017 S    
C78   C79   1.394588 A    
C43   C44   1.418724 A    
N2    O29   1.299370 A    
O4    C2    1.278435 A    
C67   C68   1.410237 A    
C54   N3    1.445599 S    
C80   H20   1.080785 S    
O16   Cr5   2.045192 S    
C7    Cl3   1.781609 S    
C33   C93   1.432540 S    
C26   C28   1.540115 S    
C19   C23   1.542055 S    
C37   C39   1.543744 S    
C9    C92   1.428836 S    
C75   C76   1.412552 A    
C69   C70   1.383755 A    
O23   Cr5   1.928323 S    
C27   C28   1.551972 S    
C10   C18   1.203259 T    
O22   Cr5   2.038827 S    
O25   C96   1.289958 A    
O6    C3    1.277187 A    
N7    O40   1.300958 A    
C48   C49   1.396927 A    
C38   C40   1.531314 S    
Cr6   O26   1.983276 S    
N2    O30   1.307056 A    
C7    C11   1.543244 S    
N1    O28   1.304388 A    
C24   C29   1.460925 S    
C77   C88   1.411846 A    
C52   C56   1.407586 A    
C64   C65   1.413674 A    
C66   C74   1.396377 A    
C50   C58   1.401421 A    
C57   H13   1.075430 S    
C49   C57   1.399255 A    
C35   C36   1.541413 S    
C63   H15   1.074515 S    
Cr3   O13   1.986804 S    
C76   C84   1.413359 A    
O15   Cr4   1.925891 S    
C71   C72   1.411876 A    
C23   C25   1.543004 S    
C22   C30   1.201835 T    
C77   C78   1.396260 A    
C25   C27   1.549452 S    
C95   O24   1.271069 A    
N6    O38   1.300710 A    
C2    C10   1.430870 S    
C39   H9    1.109444 S    
C69   H18   1.082856 S    
C35   C37   1.540644 S    
C48   H11   1.084289 S    
C14   C18   1.463656 S    
C39   C40   1.545511 S    
C44   C52   1.423470 A    
C7    C14   1.538763 S    
O10   Cr2   1.930102 S    
O17   C92   1.276600 A    
Cr1   O13   1.986133 S    
O1    C3    1.271406 A    
Cr4   O26   1.985920 S    
C61   C72   1.416406 A    
N4    O33   1.301349 A    
C51   C53   1.398870 A    
C38   C42   1.464854 S    
C50   C51   1.395755 A    
O15   C91   1.275048 A    
C75   N7    1.436527 S    
C81   C96   1.476247 S    
N6    O37   1.298879 A    
O1    Cr1   2.043650 S    
C53   C54   1.394823 A    
C20   Cl10  1.776598 S    
O24   Cr6   2.048210 S    
C84   C88   1.408681 A    
O25   Cr6   1.922312 S    
C89   H23   1.081381 S    
C13   C14   1.546703 S    
C37   Cl2   1.777497 S    
C35   H10   1.109623 S    
C66   H19   1.083236 S    
C31   C38   1.534525 S    
C55   C56   1.417781 A    
C26   C30   1.460595 S    
O7    Cr1   2.041932 S    
C7    C8    1.536308 S    
C44   C47   1.427537 A    
O12   C6    1.281621 A    
C20   C28   1.544076 S    
C71   C73   1.382704 A    
C83   C84   1.411411 A    
C79   H22   1.080208 S    
C50   Cl5   1.775020 S    
C5    C58   1.482097 S    
C78   H21   1.079579 S    
C25   H5    1.107133 S    
C55   C57   1.397393 A    
Cr2   O13   1.983427 S    
C12   C17   1.461982 S    
C54   C55   1.420626 A    
C80   C81   1.398625 A    
C65   C73   1.399573 A    
C85   H24   1.082234 S    
C87   C88   1.408741 A    
O19   Cr6   1.931064 S    
C15   H1    1.110071 S    
O14   Cr4   2.045423 S    
C23   C24   1.540450 S    
C19   C26   1.525083 S    
C1    O3    1.270099 A    
C49   C95   1.466584 S    
C60   C68   1.420382 A    
C61   C62   1.414505 A    
C83   C85   1.404050 A    
C8    N1    1.457061 S    
C60   C63   1.408530 A    
C34   C42   1.203709 T    
C45   C56   1.411345 A    
C82   Cl8   1.773180 S    
C31   H8    1.109058 S    
C21   C29   1.202425 T    
C27   H4    1.108167 S    
C32   H7    1.110141 S    
C9    C17   1.202032 T    
O9    Cr2   2.040686 S    
O2    Cr1   1.926086 S    
C94   O22   1.272211 A    
C3    C22   1.428174 S    
C15   C16   1.550454 S    
O18   Cr6   2.040113 S    
C25   C26   1.535671 S    
C8    C12   1.530173 S    
C33   C41   1.204572 T    
C46   C47   1.393732 A    
O6    Cr3   1.928475 S    
C64   N4    1.436231 S    
C36   C41   1.464466 S    
C45   C48   1.396387 A    
O8    C4    1.280513 A    
C82   C90   1.407671 A    
O11   Cr3   2.046023 S    
C2    O5    1.270449 A    
C4    C90   1.485778 S    
C62   N6    1.428398 S    
O17   Cr5   1.922438 S    
C21   C91   1.429092 S    
C40   Cl1   1.769411 S    
C67   C69   1.397847 A    
O23   C95   1.281421 A    
C59   C74   1.416083 A    
O2    C1    1.277083 A    
N1    O27   1.306993 A    
C6    C74   1.474736 S    
C45   C46   1.392429 A    
C13   C15   1.557721 S    
O5    Cr3   2.039755 S    
O21   C94   1.283722 A    
C61   C64   1.421416 A    
C14   C16   1.541589 S    
C19   Cl11  1.774987 S    
C8    C16   1.534277 S    
C91   O16   1.273164 A    
N5    O36   1.303188 A    
O7    C6    1.275565 A    
C62   C63   1.397297 A    
C43   N2    1.429593 S    
C11   Cl9   1.776206 S    
C76   C79   1.410266 A    
Cr5   O26   1.986897 S    
C37   C38   1.531705 S    
C24   C27   1.533203 S    
O12   Cr3   1.921854 S    
C86   Cl7   1.761131 S    
C53   H14   1.080714 S    
O14   C93   1.272030 A    
O19   C93   1.276495 A    
C65   C94   1.471940 S    
C51   C52   1.413136 A    
O3    Cr2   2.047326 S    
C1    C34   1.431752 S    
C20   C24   1.533043 S    
C4    O9    1.280655 A    
N7    O39   1.300496 A    
N5    O35   1.305095 A    
C75   C90   1.420312 A    
C11   C12   1.540581 S    
C87   C89   1.393408 A    
O10   C5    1.280486 A    
C92   O18   1.270563 A    
C59   C60   1.430057 A    
O20   Cr4   2.041681 S    
C77   C80   1.404625 A    
C43   C58   1.416555 A    
C5    O11   1.279502 A    
C23   H6    1.103938 S    
C86   C87   1.406434 A    
C81   C89   1.406870 A    
