data_mof_unit_48761.cif
_audit_creation_date              2012-12-10T19:45:04-0500
_audit_creation_method            fapswitch 2.2
_symmetry_space_group_name_H-M    P1
_symmetry_Int_Tables_number       1
_space_group_crystal_system       triclinic
_cell_length_a                    15.134243
_cell_length_b                    10.961715
_cell_length_c                    13.711725
_cell_angle_alpha                 89.344787
_cell_angle_beta                  90.600141
_cell_angle_gamma                 87.685151
_cell_volume                      2272.59654513

loop_
_atom_site_label
_atom_site_type_symbol
_atom_type_description
_atom_site_fract_x
_atom_site_fract_y
_atom_site_fract_z
_atom_type_partial_charge
C1    C     C_R   0.494944 0.262394 0.500530 0.810451
C2    C     C_R   0.555079 0.870799 0.678125 0.081084
C3    C     C_R   0.498497 0.137640 0.239006 -0.127453
C4    C     C_R   0.501613 0.862300 0.760977 -0.127407
C5    C     C_R   0.464373 0.188446 0.152166 -0.142394
C6    C     C_R   0.535799 0.811463 0.847779 -0.142390
C7    C     C_R   0.378181 0.238087 0.148026 -0.153322
C8    C     C_R   0.622013 0.761893 0.851850 -0.153313
C9    C     C_R   0.497278 0.939099 0.410185 -0.061055
C10   C     C_R   0.502693 0.060901 0.589802 -0.061062
C11   C     C_R   0.509613 0.871864 0.498527 -0.132488
C12   C     C_R   0.505047 0.737608 0.499467 0.810438
C13   C     C_R   0.490363 0.128140 0.501461 -0.132487
C14   C     C_R   0.518913 0.934297 0.587791 -0.042498
C15   C     C_R   0.481074 0.065709 0.412191 -0.042481
C16   C     C_R   0.328870 0.494060 0.499997 0.819440
C17   C     C_R   0.671129 0.505938 0.500001 0.819441
C18   C     C_R   0.563827 0.432511 0.794995 0.135300
C19   C     C_R   0.436172 0.567488 0.205004 0.135286
C20   C     C_R   0.434690 0.563171 0.791462 0.055512
C21   C     C_R   0.565318 0.436845 0.208538 0.055529
C22   C     C_R   0.431823 0.563364 0.894406 -0.047012
C23   C     C_R   0.043770 0.434398 0.673627 -0.047993
C24   C     C_R   0.568188 0.436660 0.105593 -0.046938
C25   C     C_R   0.499673 0.499516 0.948156 0.048176
C26   C     C_R   0.500337 0.500506 0.051843 0.048174
C27   C     C_R   0.566631 0.433975 0.898296 -0.065206
C28   C     C_R   0.433376 0.566040 0.101703 -0.065220
C29   C     C_R   0.364322 0.627260 0.945110 0.130838
C30   C     C_R   0.635694 0.372775 0.054888 0.130800
C31   C     C_R   0.365771 0.628688 0.047137 -0.208790
C32   C     C_R   0.634241 0.371338 0.952862 -0.208860
C33   C     C_R   0.812787 0.554989 0.415370 -0.071528
C34   C     C_R   0.956230 0.565621 0.326360 -0.047983
C35   C     C_R   0.187209 0.445028 0.584626 -0.071516
C36   C     C_R   0.767823 0.514087 0.498982 -0.113720
C37   C     C_R   0.232177 0.485890 0.501006 -0.113679
C38   C     C_R   0.815285 0.478631 0.582706 -0.208281
C39   C     C_R   0.184719 0.521272 0.417260 -0.208219
C40   C     C_R   0.906863 0.474919 0.583699 0.104417
C41   C     C_R   0.093138 0.524990 0.416267 0.104388
C42   C     C_R   0.953336 0.504274 0.498783 0.055949
C43   C     C_R   0.046662 0.495669 0.501189 0.055944
C44   C     C_R   0.906616 0.542562 0.412045 0.020264
C45   C     C_R   0.324312 0.234331 0.230247 -0.008664
C46   C     C_R   0.093381 0.457431 0.587939 0.020254
C47   C     C_R   0.951879 0.441312 0.669601 -0.192059
C48   C     C_R   0.048125 0.558608 0.330367 -0.192064
C49   C     C_1   0.762404 0.621153 0.339571 0.300115
C50   C     C_1   0.237586 0.378897 0.660447 0.300117
C51   C     C_1   0.506745 0.881639 0.315714 0.315451
C52   C     C_1   0.493225 0.118348 0.684276 0.315454
C53   C     C_1   0.625040 0.352572 0.743636 0.305742
C54   C     C_1   0.374946 0.647407 0.256366 0.305749
C55   C     C_1   0.082609 0.412056 0.769320 0.296470
C56   C     C_R   0.675840 0.765750 0.769598 -0.008654
C57   C     C_1   0.917389 0.588161 0.230691 0.296462
C58   C     C_1   0.235350 0.286699 0.222954 0.244347
C59   C     C_1   0.764833 0.713477 0.776824 0.244355
C60   C     C_1   0.299943 0.169683 0.401289 0.214395
C61   C     C_1   0.700087 0.830501 0.598554 0.214368
C62   C     C_R   0.356875 0.178267 0.317411 -0.010979
C63   C     C_R   0.643206 0.821827 0.682470 -0.011056
C64   C     C_R   0.444982 0.129220 0.321826 0.081077
Cu1   Cu    Cu3+1 0.500010 0.499980 0.597420 0.983359
Cu2   Cu    Cu3+1 0.499990 0.500020 0.402580 0.983353
H1    H     H_    0.385353 0.613668 0.748290 0.165033
H2    H     H_    0.646765 0.720399 0.919409 0.160283
H3    H     H_    0.566426 0.102532 0.241257 0.159696
H4    H     H_    0.433670 0.897356 0.758778 0.159669
H5    H     H_    0.505312 0.190673 0.088021 0.167602
H6    H     H_    0.494894 0.809160 0.911948 0.167563
H7    H     H_    0.614657 0.386353 0.251709 0.165042
H8    H     H_    0.312798 0.678938 0.083287 0.176757
H9    H     H_    0.687215 0.321090 0.916712 0.176752
H10   H     H_    0.780753 0.453453 0.648142 0.172468
H11   H     H_    0.219254 0.546403 0.351815 0.172476
H12   H     H_    0.914777 0.422029 0.735020 0.163950
H13   H     H_    0.085228 0.577869 0.264944 0.164006
H14   H     H_    0.353478 0.279563 0.080438 0.160292
I1    I     I_    0.257419 0.725063 0.873963 -0.362341
I2    I     I_    0.742608 0.274996 0.126036 -0.362402
N1    N     N_R   0.499960 0.499900 0.743810 -0.213354
N2    N     N_1   0.887144 0.605793 0.153667 -0.217855
N3    N     N_1   0.164044 0.328514 0.216934 -0.255357
N4    N     N_1   0.836164 0.671740 0.782787 -0.255288
N5    N     N_1   0.254515 0.162831 0.468330 -0.264285
N6    N     N_1   0.745470 0.837428 0.531481 -0.264230
N7    N     N_R   0.500040 0.500100 0.256190 -0.213371
N8    N     N_1   0.721527 0.674253 0.279870 -0.232693
N9    N     N_1   0.278460 0.325826 0.720165 -0.232716
N10   N     N_1   0.515590 0.837643 0.239909 -0.267925
N11   N     N_1   0.484382 0.162334 0.760085 -0.267928
N12   N     N_1   0.673792 0.286597 0.703774 -0.303307
N13   N     N_1   0.326183 0.713365 0.296229 -0.303290
N14   N     N_1   0.112856 0.394591 0.846365 -0.217809
O1    O     O_R   0.500000 0.319630 0.582270 -0.572515
O2    O     O_R   0.500000 0.680370 0.417730 -0.572520
O3    O     O_R   0.499990 0.319660 0.417730 -0.583835
O4    O     O_R   0.500010 0.680340 0.582270 -0.583823
O5    O     O_R   0.370260 0.499960 0.582280 -0.585716
O6    O     O_R   0.629740 0.500040 0.417720 -0.585715
O7    O     O_R   0.370250 0.499990 0.417740 -0.594533
O8    O     O_R   0.629750 0.500010 0.582260 -0.594515

loop_
_geom_bond_atom_site_label_1
_geom_bond_atom_site_label_2
_ccdc_geom_bond_type
C40   C47   A    
C38   C40   A    
C22   C29   A    
Cu2   O6    S    
C20   H1    S    
C9    C51   S    
Cu1   O5    S    
C49   N8    T    
C10   C52   S    
C1    O3    A    
C32   H9    S    
C4    H4    S    
C39   C41   A    
C38   H10   S    
C3    C64   A    
C6    H6    S    
C7    C45   A    
C48   H13   S    
C35   C37   A    
C17   O8    A    
C24   C26   A    
C11   C14   A    
Cu1   N1    S    
C33   C49   S    
C21   H7    S    
C45   C62   A    
C33   C36   A    
C60   C62   S    
C61   C63   S    
C62   C64   A    
C18   C53   S    
C22   C25   A    
C34   C57   S    
C15   C64   S    
C17   C36   S    
C12   O2    A    
C16   C37   S    
C40   C42   A    
C27   C32   A    
C23   C46   A    
C41   C43   A    
C8    C56   A    
C42   C44   A    
C60   N5    T    
Cu2   N7    S    
C45   C58   S    
C56   C63   A    
C23   C47   A    
C34   C44   A    
C4    C6    A    
C10   C14   A    
C1    O1    A    
C5    C7    A    
C31   H8    S    
C6    C8    A    
C25   C26   A    
Cu2   O3    S    
C30   I2    S    
C2    C4    A    
C17   O6    A    
C29   I1    S    
C19   N7    A    
C61   N6    T    
C51   N10   T    
C16   O5    A    
C16   O7    A    
C29   C31   A    
C35   C50   S    
C18   N1    A    
C57   N2    T    
C52   N11   T    
C19   C28   A    
C9    C11   A    
C54   N13   T    
C19   C54   S    
C20   C22   A    
C8    H2    S    
C13   C15   A    
C21   C24   A    
C1    C13   S    
C42   C43   A    
C58   N3    T    
C39   H11   S    
C2    C63   A    
C3    H3    S    
C53   N12   T    
C33   C44   A    
Cu2   O7    S    
C28   C31   A    
C18   C27   A    
C21   N7    A    
Cu1   O4    S    
C55   N14   T    
C3    C5    A    
C10   C13   A    
C11   C12   S    
C23   C55   S    
C25   C27   A    
C26   C28   A    
Cu1   O8    S    
C56   C59   S    
Cu2   O2    S    
C36   C38   A    
C9    C15   A    
C59   N4    T    
Cu1   O1    S    
C5    H5    S    
C30   C32   A    
C41   C48   A    
C2    C14   S    
C43   C46   A    
C24   C30   A    
C12   O4    A    
C50   N9    T    
C34   C48   A    
C37   C39   A    
Cu1   Cu2   S    
C20   N1    A    
C47   H12   S    
C35   C46   A    
C7    H14   S    
