data_mof_unit_32155.cif
_audit_creation_date              2012-12-11T15:41:31-0500
_audit_creation_method            fapswitch 2.2
_symmetry_space_group_name_H-M    P1
_symmetry_Int_Tables_number       1
_space_group_crystal_system       triclinic
_cell_length_a                    14.951102
_cell_length_b                    14.756118
_cell_length_c                    14.924882
_cell_angle_alpha                 108.357912
_cell_angle_beta                  110.128705
_cell_angle_gamma                 108.906194
_cell_volume                      2565.69784071

loop_
_atom_site_label
_atom_site_type_symbol
_atom_type_description
_atom_site_fract_x
_atom_site_fract_y
_atom_site_fract_z
_atom_type_partial_charge
C1    C     C_R   0.195293 0.990779 0.896661 0.289626
C2    C     C_R   0.758442 0.941499 0.033480 0.315112
C3    C     C_R   0.859589 0.302409 0.301331 0.009636
C4    C     C_R   0.203600 0.676139 0.677253 0.033987
C5    C     C_R   0.498548 0.048460 0.323951 0.030907
C6    C     C_R   0.498419 0.065699 0.696782 0.042747
C7    C     C_R   0.493737 0.326147 0.037885 0.077178
C8    C     C_R   0.500242 0.704693 0.082025 0.052414
C9    C     C_R   0.199808 0.270057 0.736889 -0.091201
C10   C     C_R   0.793957 0.907485 0.434801 -0.128870
C11   C     C_R   0.295235 0.338705 0.837857 -0.138968
C12   C     C_R   0.696423 0.811020 0.355838 -0.137033
C13   C     C_R   0.292753 0.350149 0.933925 0.107035
C14   C     C_R   0.695284 0.728673 0.275179 0.086832
C15   C     C_R   0.193863 0.290181 0.927322 -0.212039
C16   C     C_R   0.792924 0.744833 0.274323 -0.160155
C17   C     C_R   0.098189 0.223502 0.826306 -0.068822
C18   C     C_R   0.890324 0.840928 0.354000 -0.029047
C19   C     C_R   0.101138 0.213603 0.731278 -0.025775
C20   C     C_R   0.890826 0.922212 0.434019 -0.042521
C21   C     C_R   0.397010 0.537197 0.084004 -0.085498
C22   C     C_R   0.582173 0.523397 0.178097 -0.093710
C23   C     C_R   0.800923 0.209343 0.301346 -0.112753
C24   C     C_R   0.239756 0.778597 0.685678 -0.017693
C25   C     C_R   0.497638 0.628954 0.129300 0.088664
C26   C     C_R   0.487987 0.427897 0.085783 0.071479
C27   C     C_R   0.591946 0.626270 0.191355 -0.089998
C28   C     C_R   0.390931 0.435020 0.040297 -0.106316
C29   C     C_R   0.935816 0.485326 0.432886 -0.257203
C30   C     C_R   0.133731 0.492455 0.542651 -0.177145
C31   C     C_R   0.015529 0.576655 0.529679 -0.063513
C32   C     C_R   0.050810 0.397900 0.447363 -0.054081
C33   C     C_R   0.116036 0.580434 0.581945 0.071115
C34   C     C_R   0.952591 0.396938 0.393412 0.052546
C35   C     C_R   0.596021 0.155740 0.618658 -0.168321
C36   C     C_R   0.398816 0.053842 0.426401 -0.137379
C37   C     C_R   0.595988 0.152886 0.525098 -0.155122
C38   C     C_R   0.398762 0.056686 0.519960 -0.152079
C39   C     C_R   0.497644 0.091308 0.426091 0.138939
C40   C     C_R   0.497595 0.097927 0.613525 0.133938
C41   C     C_R   0.951750 0.832087 0.907013 -0.138432
C42   C     C_R   0.922835 0.010699 0.909776 -0.184049
C43   C     C_R   0.863022 0.838148 0.913078 -0.128325
C44   C     C_R   0.009252 0.004353 0.903319 -0.148509
C45   C     C_R   0.407697 0.972716 0.221843 -0.071413
C46   C     C_R   0.589568 0.095613 0.790300 -0.137626
C47   C     C_R   0.852677 0.930971 0.920716 0.178275
C48   C     C_R   0.026704 0.917899 0.906280 0.191065
C49   C     C_R   0.587671 0.315662 0.054527 -0.062117
C50   C     C_R   0.410250 0.702207 0.008975 -0.097467
C51   C     C_R   0.590570 0.063934 0.313419 -0.109891
C52   C     C_R   0.408332 0.003482 0.699254 -0.120232
C53   C     C_R   0.405808 0.221642 0.970003 -0.100265
C54   C     C_R   0.589739 0.794784 0.105120 -0.087425
C55   C     C_R   0.799341 0.301277 0.208176 -0.081237
C56   C     C_R   0.238046 0.684900 0.779131 -0.082294
C57   C     C_R   0.195416 0.904210 0.994058 -0.190907
C58   C     C_R   0.744884 0.025425 0.932258 -0.194074
C59   C     C_R   0.132543 0.931626 0.927457 0.027659
C60   C     C_R   0.779465 0.955053 0.953335 -0.033747
H1    H     H_    0.201937 0.262362 0.663190 0.147271
H2    H     H_    0.794489 0.970734 0.496707 0.113041
H3    H     H_    0.370527 0.385158 0.841554 0.121030
H4    H     H_    0.621955 0.800410 0.357498 0.140905
H5    H     H_    0.190408 0.298028 0.000534 0.118623
H6    H     H_    0.793431 0.682935 0.212019 0.120333
H7    H     H_    0.021494 0.180030 0.821597 0.104436
H8    H     H_    0.965330 0.852694 0.353257 0.125181
H9    H     H_    0.857229 0.479925 0.391030 0.156480
H10   H     H_    0.212166 0.498523 0.586325 0.164241
H11   H     H_    0.673872 0.194278 0.691235 0.108326
H12   H     H_    0.321134 0.012402 0.352844 0.118493
H13   H     H_    0.673728 0.189538 0.529362 0.111330
H14   H     H_    0.321034 0.017171 0.514791 0.116384
H15   H     H_    0.964920 0.764543 0.908753 0.127375
H16   H     H_    0.918670 0.084394 0.917333 0.111469
H17   H     H_    0.828744 0.181899 0.359406 0.092675
H18   H     H_    0.220252 0.799778 0.621042 0.090680
H19   H     H_    0.806804 0.774463 0.918150 0.153376
H20   H     H_    0.068661 0.073763 0.907953 0.140663
H21   H     H_    0.323005 0.940560 0.199752 0.097427
H22   H     H_    0.672247 0.156471 0.822388 0.085918
H23   H     H_    0.671142 0.380454 0.102350 0.085209
H24   H     H_    0.325664 0.649602 0.979014 0.109435
H25   H     H_    0.674763 0.115662 0.376212 0.093424
H26   H     H_    0.324378 0.979044 0.647512 0.114224
H27   H     H_    0.321815 0.196532 0.946022 0.149138
H28   H     H_    0.670397 0.832205 0.171747 0.170724
H29   H     H_    0.825136 0.358640 0.179850 0.084948
H30   H     H_    0.217371 0.620372 0.800340 0.095426
H31   H     H_    0.167798 0.847827 0.022748 0.122610
H32   H     H_    0.750903 0.055941 0.876555 0.121495
H33   H     H_    0.026853 0.162506 0.653433 0.089983
H34   H     H_    0.966335 0.996604 0.495156 0.118736
N1    N     N_R   0.293810 0.002730 0.945950 -0.071097
N2    N     N_R   0.706190 0.997270 0.054050 -0.069274
N3    N     N_R   0.706160 0.152130 0.208910 -0.035902
N4    N     N_R   0.293840 0.847870 0.791090 -0.030464
N5    N     N_R   0.443140 0.945920 0.152090 -0.039834
N6    N     N_R   0.556860 0.054080 0.847910 -0.042581
N7    N     N_R   0.556830 0.208940 0.002760 -0.053255
N8    N     N_R   0.443170 0.791060 0.997240 -0.057204
N9    N     N_R   0.556790 0.002750 0.208910 -0.044979
N10   N     N_R   0.443210 0.997250 0.791090 -0.042767
N11   N     N_R   0.443180 0.152110 0.945950 -0.042577
N12   N     N_R   0.556820 0.847890 0.054050 -0.053469
N13   N     N_R   0.706170 0.208950 0.152090 -0.035373
N14   N     N_R   0.293830 0.791050 0.847910 -0.043743
N15   N     N_R   0.293800 0.945910 0.002760 -0.057307
N16   N     N_R   0.706200 0.054090 0.997240 -0.058587
Ni1   Ni    Ni4+2 0.369690 0.999990 0.869700 0.271847
Ni2   Ni    Ni4+2 0.630310 0.000010 0.130300 0.236544
Ni3   Ni    Ni4+2 0.369670 0.869670 0.000000 0.238679
Ni4   Ni    Ni4+2 0.630330 0.130330 0.000000 0.207340
Br1   Br    Br    0.140305 0.995355 0.762310 -0.618265
Br2   Br    Br    0.834524 0.899806 0.130768 -0.656010
C61   C     C_2   0.301513 0.548946 0.082882 0.470619
H35   H     H_    0.219459 0.481280 0.030254 0.023376
O1    O     O_2   0.314511 0.635621 0.144374 -0.585810
C62   C     C_2   0.663650 0.516295 0.263789 0.478762
H36   H     H_    0.745517 0.583868 0.319778 0.002429
O2    O     O_2   0.637918 0.435911 0.276713 -0.579587
C63   C     C_2   0.987291 0.661754 0.574595 0.542640
H37   H     H_    0.924694 0.670487 0.519751 0.012458
O3    O     O_2   0.028401 0.718337 0.672474 -0.559307
C64   C     C_2   0.067740 0.303102 0.404346 0.484914
H38   H     H_    0.005804 0.232003 0.325999 0.044055
O4    O     O_2   0.151407 0.303249 0.455998 -0.583179

loop_
_geom_bond_atom_site_label_1
_geom_bond_atom_site_label_2
_ccdc_geom_bond_type
C54   H28   S    
C64   H38   S    
C8    C25   S    
C3    C23   A    
C51   H25   S    
C58   H32   S    
C50   H24   S    
C63   H37   S    
N12   Ni2   S    
C22   C62   S    
N2    Ni2   S    
C7    C26   S    
C24   N4    A    
C35   C37   A    
C11   H3    S    
C1    C59   A    
C49   N7    A    
C4    C24   A    
C2    C60   A    
C63   O3    D    
C58   C60   A    
C15   H5    S    
N6    N10   A    
N4    N14   A    
C32   C64   S    
C56   N14   A    
C21   C25   A    
C47   C60   S    
C46   H22   S    
C3    C55   A    
C9    C19   A    
C57   N15   A    
C10   C20   A    
C21   C61   S    
C31   C33   A    
C13   C28   S    
C14   C27   S    
C6    C46   A    
C2    Br2   S    
N16   Ni4   S    
C19   H33   S    
N15   Ni3   S    
C56   H30   S    
N11   Ni1   S    
C35   H11   S    
C38   C40   A    
C4    C56   A    
N7    Ni4   S    
C41   C43   A    
C10   H2    S    
C42   C44   A    
C52   H26   S    
C26   C28   A    
C30   H10   S    
C62   O2    D    
C29   H9    S    
N7    N11   A    
C17   H7    S    
C54   N12   A    
C44   H20   S    
C6    C40   S    
N6    Ni4   S    
C7    C49   A    
N5    N9    A    
C45   N5    A    
C51   N9    A    
C8    C54   A    
N3    Ni2   S    
C3    C34   S    
C20   H34   S    
C5    C45   A    
C29   C34   A    
C55   N13   A    
N9    Ni2   S    
C32   C34   A    
N14   Ni3   S    
N13   Ni4   S    
C9    H1    S    
C41   H15   S    
C2    N2    A    
C1    N1    A    
C53   H27   S    
C16   C18   A    
C23   H17   S    
C44   C48   A    
C9    C11   A    
C43   H19   S    
C10   C12   A    
C24   H18   S    
C23   N3    A    
C21   C28   A    
C12   C14   A    
C50   N8    A    
C22   C27   A    
C13   C15   A    
N1    N15   A    
C14   C16   A    
C16   H6    S    
C7    C53   A    
C8    C50   A    
C62   H36   S    
C48   C59   S    
C38   H14   S    
C15   C17   A    
C5    C39   S    
C46   N6    A    
C4    C33   S    
C52   N10   A    
C64   O4    D    
N4    Ni1   S    
C57   H31   S    
C30   C33   A    
C58   N16   A    
C42   H16   S    
C36   C39   A    
C45   H21   S    
C43   C47   A    
N5    Ni3   S    
N10   Ni1   S    
C25   C27   A    
C37   H13   S    
C49   H23   S    
C61   O1    D    
C35   C40   A    
C31   C63   S    
C37   C39   A    
N8    Ni3   S    
N1    Ni1   S    
C61   H35   S    
C30   C32   A    
C11   C13   A    
N2    N16   A    
C12   H4    S    
C36   C38   A    
C17   C19   A    
C41   C48   A    
N8    N12   A    
C18   C20   A    
C42   C47   A    
C55   H29   S    
C57   C59   A    
N3    N13   A    
C53   N11   A    
C29   C31   A    
C22   C26   A    
C5    C51   A    
C1    Br1   S    
C6    C52   A    
C18   H8    S    
C36   H12   S    
