data_mof_unit_7176.cif
_audit_creation_date              2012-12-11T14:03:55-0500
_audit_creation_method            fapswitch 2.2
_symmetry_space_group_name_H-M    P1
_symmetry_Int_Tables_number       1
_space_group_crystal_system       triclinic
_cell_length_a                    19.166439
_cell_length_b                    10.894767
_cell_length_c                    18.867603
_cell_angle_alpha                 89.787591
_cell_angle_beta                  89.559995
_cell_angle_gamma                 89.962561
_cell_volume                      3939.67350557

loop_
_atom_site_label
_atom_site_type_symbol
_atom_type_description
_atom_site_fract_x
_atom_site_fract_y
_atom_site_fract_z
_atom_type_partial_charge
C1    C     C_R   0.240179 0.466662 0.647037 0.546057
C2    C     C_R   0.759569 0.466350 0.352862 0.538544
C3    C     C_R   0.740178 0.966666 0.647033 0.546046
C4    C     C_R   0.259569 0.966350 0.352862 0.538544
C5    C     C_2   0.272758 0.816472 0.532269 -0.155555
C6    C     C_2   0.723544 0.820222 0.467554 -0.154861
C7    C     C_2   0.772756 0.316470 0.532268 -0.155556
C8    C     C_2   0.223545 0.320219 0.467556 -0.154861
C9    C     C_R   0.959673 0.657733 0.438208 -0.037285
C10   C     C_R   0.042080 0.651686 0.561087 -0.038465
C11   C     C_R   0.459673 0.157733 0.438208 -0.037285
C12   C     C_R   0.542081 0.151687 0.561087 -0.038466
C13   C     C_R   0.967177 0.886602 0.441203 -0.090920
C14   C     C_R   0.070876 0.866731 0.540167 -0.083943
C15   C     C_R   0.467177 0.386601 0.441203 -0.090920
C16   C     C_R   0.570877 0.366732 0.540166 -0.083945
C17   C     C_R   0.005379 0.990109 0.459554 -0.122829
C18   C     C_R   0.059354 0.979146 0.507450 -0.121342
C19   C     C_R   0.505379 0.490108 0.459552 -0.122826
C20   C     C_R   0.559356 0.479145 0.507448 -0.121343
C21   C     C_R   0.031276 0.763032 0.524719 0.007469
C22   C     C_R   0.984675 0.768957 0.467725 0.015936
C23   C     C_R   0.531276 0.263032 0.524719 0.007470
C24   C     C_R   0.484675 0.268957 0.467725 0.015936
C25   C     C_R   0.020538 0.540945 0.529032 0.030862
C26   C     C_R   0.971896 0.545472 0.474437 0.018465
C27   C     C_R   0.520539 0.040945 0.529031 0.030860
C28   C     C_R   0.471897 0.045472 0.474437 0.018466
C29   C     C_R   0.044961 0.424544 0.551389 -0.072033
C30   C     C_R   0.937606 0.435770 0.456358 -0.076297
C31   C     C_R   0.544963 0.924545 0.551389 -0.072034
C32   C     C_R   0.437608 0.935770 0.456357 -0.076295
C33   C     C_R   0.012424 0.316928 0.530848 -0.117999
C34   C     C_R   0.956775 0.323014 0.484963 -0.111713
C35   C     C_R   0.512427 0.816928 0.530846 -0.117999
C36   C     C_R   0.456778 0.823014 0.484961 -0.111711
C37   C     C_2   0.252811 0.924254 0.918114 -0.113088
C38   C     C_2   0.744208 0.935509 0.085263 -0.110071
C39   C     C_2   0.752819 0.424250 0.918113 -0.113084
C40   C     C_2   0.244208 0.435510 0.085263 -0.110064
C41   C     C_2   0.252456 0.933284 0.074756 -0.069026
C42   C     C_2   0.731362 0.981128 0.932541 -0.074648
C43   C     C_2   0.752460 0.433300 0.074752 -0.068991
C44   C     C_2   0.231361 0.481129 0.932541 -0.074647
C45   C     C_R   0.227421 0.874186 0.647494 0.533421
C46   C     C_R   0.773416 0.872482 0.353133 0.543046
C47   C     C_R   0.727421 0.374185 0.647494 0.533420
C48   C     C_R   0.273417 0.372481 0.353133 0.543046
C49   C     C_2   0.225587 0.018910 0.030846 -0.141621
C50   C     C_2   0.764141 0.056935 0.977191 -0.153496
C51   C     C_2   0.725626 0.518955 0.030838 -0.141589
C52   C     C_2   0.264140 0.556936 0.977192 -0.153494
C53   C     C_2   0.211815 0.996753 0.956682 -0.157086
C54   C     C_2   0.780869 0.020928 0.049994 -0.151817
C55   C     C_2   0.711847 0.496805 0.956672 -0.157082
C56   C     C_2   0.280869 0.520929 0.049995 -0.151817
C57   C     C_2   0.990475 0.652599 0.916690 -0.112157
C58   C     C_2   0.955202 0.653728 0.068059 -0.108967
C59   C     C_2   0.490475 0.152599 0.916690 -0.112157
C60   C     C_2   0.455203 0.153728 0.068059 -0.108964
C61   C     C_2   0.954100 0.553846 0.026737 0.151363
C62   C     C_2   0.993795 0.555642 0.961550 0.171841
C63   C     C_2   0.454102 0.053846 0.026738 0.151358
C64   C     C_2   0.493796 0.055642 0.961550 0.171838
C65   C     C_R   0.062028 0.649841 0.637135 0.533901
C66   C     C_R   0.938591 0.650925 0.362890 0.537001
C67   C     C_R   0.562028 0.149841 0.637135 0.533898
C68   C     C_R   0.438591 0.150925 0.362890 0.537000
C69   C     C_R   0.225252 0.515394 0.858608 0.573765
C70   C     C_R   0.761752 0.468846 0.148074 0.561068
C71   C     C_R   0.725252 0.015394 0.858608 0.573765
C72   C     C_R   0.261751 0.968845 0.148075 0.561078
C73   C     C_R   0.227659 0.874524 0.852137 0.550359
C74   C     C_R   0.772072 0.876104 0.148191 0.545943
C75   C     C_R   0.727659 0.374523 0.852137 0.550354
C76   C     C_R   0.272072 0.376104 0.148191 0.545950
C77   C     C_R   0.030439 0.650940 0.851614 0.581187
C78   C     C_R   0.936829 0.647417 0.142129 0.591257
C79   C     C_R   0.530439 0.150940 0.851614 0.581188
C80   C     C_R   0.436829 0.147417 0.142129 0.591260
C81   C     C_2   0.247874 0.906251 0.575173 -0.114003
C82   C     C_2   0.753527 0.905836 0.425097 -0.105542
C83   C     C_2   0.747873 0.406249 0.575173 -0.114003
C84   C     C_2   0.253528 0.405834 0.425098 -0.105542
C85   C     C_2   0.240705 0.911214 0.420641 -0.109705
C86   C     C_2   0.758208 0.909692 0.579708 -0.109752
C87   C     C_2   0.740704 0.411214 0.420641 -0.109704
C88   C     C_2   0.258209 0.409689 0.579710 -0.109749
C89   C     C_2   0.280377 0.831565 0.455173 -0.184788
C90   C     C_2   0.715007 0.837113 0.544265 -0.179787
C91   C     C_2   0.780376 0.331564 0.455172 -0.184787
C92   C     C_2   0.215007 0.337111 0.544267 -0.179787
Cr1   Cr    Cr6+3 0.113970 0.508630 0.747920 1.053800
Cr2   Cr    Cr6+3 0.886030 0.508630 0.252080 1.058324
Cr3   Cr    Cr6+3 0.613970 0.008630 0.747920 1.053799
Cr4   Cr    Cr6+3 0.386030 0.008630 0.252080 1.058325
Cr5   Cr    Cr6+3 0.269200 0.666740 0.749850 1.038222
Cr6   Cr    Cr6+3 0.730800 0.666740 0.250150 1.037417
Cr7   Cr    Cr6+3 0.769200 0.166740 0.749850 1.038223
Cr8   Cr    Cr6+3 0.230800 0.166740 0.250150 1.037414
Cr9   Cr    Cr6+3 0.112300 0.820070 0.749800 1.035878
Cr10  Cr    Cr6+3 0.887700 0.820070 0.250200 1.028710
Cr11  Cr    Cr6+3 0.612300 0.320070 0.749800 1.035883
Cr12  Cr    Cr6+3 0.387700 0.320070 0.250200 1.028713
H1    H     H_    0.319650 0.779021 0.426945 0.128140
H2    H     H_    0.673066 0.789256 0.571413 0.126635
H3    H     H_    0.819649 0.279020 0.426944 0.128140
H4    H     H_    0.173067 0.289256 0.571414 0.126636
H5    H     H_    0.164946 0.037611 0.934704 0.180339
H6    H     H_    0.827549 0.060506 0.072860 0.182329
H7    H     H_    0.664996 0.537712 0.934687 0.180328
H8    H     H_    0.327548 0.560507 0.072860 0.182328
H9    H     H_    0.301425 0.888840 0.939301 0.146580
H10   H     H_    0.695231 0.901066 0.064781 0.145569
H11   H     H_    0.801420 0.388794 0.939305 0.146581
H12   H     H_    0.195231 0.401066 0.064782 0.145568
H13   H     H_    0.976999 0.739761 0.048629 0.082347
H14   H     H_    0.957567 0.731536 0.927854 0.068581
H15   H     H_    0.476999 0.239762 0.048629 0.082351
H16   H     H_    0.457567 0.231536 0.927854 0.068584
H17   H     H_    0.287260 0.727506 0.553809 0.157135
H18   H     H_    0.705209 0.733811 0.445986 0.153951
H19   H     H_    0.787258 0.227503 0.553809 0.157133
H20   H     H_    0.205210 0.233808 0.445988 0.153949
H21   H     H_    0.195264 0.950078 0.446938 0.118919
H22   H     H_    0.805859 0.942226 0.554284 0.115010
H23   H     H_    0.695263 0.450077 0.446938 0.118919
H24   H     H_    0.305860 0.442222 0.554287 0.115012
H25   H     H_    0.233225 0.995835 0.554783 0.092629
H26   H     H_    0.771637 0.993043 0.445625 0.093377
H27   H     H_    0.733224 0.495834 0.554783 0.092629
H28   H     H_    0.271639 0.493041 0.445626 0.093378
H29   H     H_    0.994757 0.077236 0.434445 0.112862
H30   H     H_    0.092741 0.056511 0.518819 0.097858
H31   H     H_    0.494757 0.577234 0.434443 0.112862
H32   H     H_    0.592743 0.556511 0.518817 0.097857
H33   H     H_    0.895680 0.437557 0.420101 0.155829
H34   H     H_    0.087858 0.416329 0.586921 0.152252
H35   H     H_    0.395680 0.937558 0.420101 0.155827
H36   H     H_    0.587859 0.916332 0.586921 0.152252
H37   H     H_    0.029120 0.229832 0.552313 0.108215
H38   H     H_    0.929236 0.240477 0.470661 0.096420
H39   H     H_    0.529125 0.729832 0.552310 0.108215
H40   H     H_    0.429239 0.740476 0.470659 0.096420
H41   H     H_    0.208564 0.107718 0.050657 0.166757
H42   H     H_    0.785747 0.143015 0.957701 0.151232
H43   H     H_    0.708635 0.607782 0.050648 0.166717
H44   H     H_    0.285746 0.643017 0.957701 0.151238
O1    O     O_R   0.043230 0.549300 0.667990 -0.512568
O2    O     O_R   0.956770 0.549300 0.332010 -0.500006
O3    O     O_R   0.543230 0.049300 0.667990 -0.512568
O4    O     O_R   0.456770 0.049300 0.332010 -0.500005
O5    O     O_R   0.262920 0.788600 0.824420 -0.509868
O6    O     O_R   0.737080 0.788600 0.175580 -0.494787
O7    O     O_R   0.762920 0.288600 0.824420 -0.509872
O8    O     O_R   0.237080 0.288600 0.175580 -0.494784
O9    O     O_R   0.167530 0.905110 0.830340 -0.502596
O10   O     O_R   0.832470 0.905110 0.169660 -0.512231
O11   O     O_R   0.667530 0.405110 0.830340 -0.502582
O12   O     O_R   0.332470 0.405110 0.169660 -0.512231
O13   O     O_R   0.054010 0.748440 0.822860 -0.493648
O14   O     O_R   0.945990 0.748440 0.177140 -0.489668
O15   O     O_R   0.554010 0.248440 0.822860 -0.493644
O16   O     O_R   0.445990 0.248440 0.177140 -0.489667
O17   O     O_3   0.165160 0.665150 0.749190 -0.302042
O18   O     O_3   0.834840 0.665150 0.250810 -0.305256
O19   O     O_3   0.665160 0.165150 0.749190 -0.302043
O20   O     O_3   0.334840 0.165150 0.250810 -0.305255
O21   O     O_R   0.178620 0.457600 0.674100 -0.527083
O22   O     O_R   0.821380 0.457600 0.325900 -0.532237
O23   O     O_R   0.678620 0.957600 0.674100 -0.527079
O24   O     O_R   0.321380 0.957600 0.325900 -0.532237
O25   O     O_R   0.284680 0.542100 0.669460 -0.512004
O26   O     O_R   0.715320 0.542100 0.330540 -0.512442
O27   O     O_R   0.784680 0.042100 0.669460 -0.511998
O28   O     O_R   0.215320 0.042100 0.330540 -0.512441
O29   O     O_R   0.262860 0.790390 0.676650 -0.489162
O30   O     O_R   0.737140 0.790390 0.323350 -0.488211
O31   O     O_R   0.762860 0.290390 0.676650 -0.489162
O32   O     O_R   0.237140 0.290390 0.323350 -0.488210
O33   O     O_R   0.167460 0.907030 0.670940 -0.537006
O34   O     O_R   0.832540 0.907030 0.329060 -0.546925
O35   O     O_R   0.667460 0.407030 0.670940 -0.537007
O36   O     O_R   0.332540 0.407030 0.329060 -0.546926
O37   O     O_R   0.053950 0.750220 0.675100 -0.486829
O38   O     O_R   0.946050 0.750220 0.324900 -0.495150
O39   O     O_R   0.553950 0.250220 0.675100 -0.486829
O40   O     O_R   0.446050 0.250220 0.324900 -0.495150
O41   O     O_R   0.043300 0.547370 0.827390 -0.455551
O42   O     O_R   0.956700 0.547370 0.172610 -0.435905
O43   O     O_R   0.543300 0.047370 0.827390 -0.455553
O44   O     O_R   0.456700 0.047370 0.172610 -0.435904
O45   O     O_R   0.178690 0.455820 0.821860 -0.466548
O46   O     O_R   0.821310 0.455820 0.178140 -0.473944
O47   O     O_R   0.678690 0.955820 0.821860 -0.466547
O48   O     O_R   0.321310 0.955820 0.178140 -0.473946
O49   O     O_R   0.284750 0.540170 0.828860 -0.498740
O50   O     O_R   0.715250 0.540170 0.171140 -0.509170
O51   O     O_R   0.784750 0.040170 0.828860 -0.498740
O52   O     O_R   0.215250 0.040170 0.171140 -0.509183
H45   H     H_    0.269180 0.843537 0.056471 0.126045
H46   H     H_    0.711731 0.892163 0.949170 0.140592
H47   H     H_    0.769154 0.343534 0.056472 0.126010
H48   H     H_    0.211730 0.392164 0.949170 0.140599
Br1   Br    Br    0.919302 0.394392 0.055282 -0.474663
Br2   Br    Br    0.058163 0.418367 0.952810 -0.460629
Br3   Br    Br    0.419305 0.894392 0.055283 -0.474670
Br4   Br    Br    0.558165 0.918368 0.952810 -0.460626
H49   H     H_    0.924380 0.900667 0.406494 0.168881
H50   H     H_    0.114860 0.855741 0.572202 0.151329
H51   H     H_    0.424378 0.400666 0.406495 0.168880
H52   H     H_    0.614861 0.355743 0.572201 0.151329

loop_
_geom_bond_atom_site_label_1
_geom_bond_atom_site_label_2
_ccdc_geom_bond_type
C7    C83   D    
Cr6   O6    S    
Cr11  O19   S    
C59   H16   S    
C6    C82   D    
C87   C91   D    
C86   H22   S    
Cr5   O49   S    
Cr7   O51   S    
C14   C18   A    
Cr1   O1    S    
C35   C36   A    
C78   O42   A    
C30   C34   A    
Cr11  O11   S    
Cr2   O18   S    
C87   H23   S    
C19   H31   S    
C45   O33   A    
C57   C62   D    
C35   H39   S    
C15   C19   A    
C29   H34   S    
C64   Br4   S    
C12   C23   A    
Cr1   O21   S    
C59   C64   D    
C50   C54   S    
C60   C63   D    
Cr11  O35   S    
C32   C36   A    
C14   C21   A    
Cr3   O47   S    
C66   O2    A    
Cr6   O26   S    
Cr5   O17   S    
C9    C22   A    
C37   H9    S    
C75   O11   A    
Cr4   O4    S    
C5    H17   S    
C11   C24   A    
C5    C81   D    
C74   O6    A    
C60   H15   S    
C1    O21   A    
C46   O30   A    
C9    C66   S    
C80   O16   A    
C15   H51   S    
C43   C51   D    
C46   C82   S    
Cr5   O29   S    
C92   H4    S    
C39   C55   D    
C88   C92   D    
C29   C33   A    
C40   C76   S    
C40   C56   D    
Cr7   O7    S    
Cr8   O28   S    
C47   O31   A    
C23   C24   A    
Cr4   O20   S    
C8    C92   S    
C47   C83   S    
C82   H26   S    
C2    O26   A    
Cr12  O16   S    
C16   C20   A    
C37   C53   D    
C70   O46   A    
C50   H42   S    
C58   C61   D    
C79   O15   A    
Cr1   O17   S    
C52   H44   S    
C30   H33   S    
C63   Br3   S    
C21   C22   A    
C3    C86   S    
C69   O49   A    
C80   O44   A    
Cr10  O10   S    
C61   C62   S    
Cr12  O12   S    
Cr9   O37   S    
C1    O25   A    
C41   C49   D    
Cr10  O18   S    
C67   O39   A    
C9    C26   A    
C17   C18   A    
Cr7   O19   S    
C10   C21   A    
C25   C29   A    
Cr12  O40   S    
C12   C67   S    
C65   O37   A    
Cr5   O25   S    
C74   O10   A    
C12   C27   A    
C27   C31   A    
Cr10  O34   S    
C8    C84   D    
C91   H3    S    
C28   C32   A    
Cr11  O39   S    
C90   H2    S    
C32   H35   S    
C47   O35   A    
C86   C90   D    
C59   C79   S    
C48   O36   A    
C14   H50   S    
C8    H20   S    
C4    C85   S    
C33   H37   S    
C25   C26   A    
C6    C90   S    
C67   O3    A    
Cr5   O5    S    
C84   H28   S    
C58   H13   S    
C48   C84   S    
C54   H6    S    
Cr2   O42   S    
Cr7   O31   S    
C68   O4    A    
C13   H49   S    
C72   O52   A    
C34   H38   S    
C71   O47   A    
C38   C54   D    
C16   H52   S    
Cr10  O14   S    
C7    C91   S    
C69   O45   A    
C33   C34   A    
C49   H41   S    
C2    C87   S    
Cr10  O38   S    
C20   H32   S    
Cr9   O17   S    
Cr1   O45   S    
C51   H43   S    
Cr6   O18   S    
C42   C50   D    
C41   C72   S    
Cr8   O52   S    
C10   C25   A    
C3    O27   A    
C15   C24   A    
Cr12  O36   S    
C2    O22   A    
C78   O14   A    
C16   C23   A    
C39   C75   S    
C66   O38   A    
C17   H29   S    
C81   H25   S    
C31   C35   A    
C42   H46   S    
Cr3   O3    S    
Cr8   O8    S    
C6    H18   S    
Cr4   O24   S    
C41   H45   S    
Cr8   O32   S    
C48   O32   A    
Cr9   O33   S    
C11   C68   S    
Cr6   O30   S    
C38   C74   S    
C10   C65   S    
C53   H5    S    
C37   C73   S    
C60   C80   S    
C85   C89   D    
Cr3   O43   S    
C4    O24   A    
C55   H7    S    
C85   H21   S    
Cr2   O46   S    
Cr11  O15   S    
C45   C81   S    
C7    H19   S    
Cr3   O19   S    
C44   C52   D    
C72   O48   A    
Cr12  O20   S    
C71   O51   A    
C73   O9    A    
Cr1   O41   S    
C43   C70   S    
C39   H11   S    
C13   C17   A    
Cr8   O20   S    
C77   O41   A    
C89   H1    S    
C46   O34   A    
C19   C20   A    
C57   C77   S    
C83   H27   S    
C36   H40   S    
C88   H24   S    
Cr2   O22   S    
C43   H47   S    
C45   O29   A    
C3    O23   A    
Cr6   O50   S    
C40   H12   S    
C76   O12   A    
C11   C28   A    
C1    C88   S    
C38   H10   S    
Cr9   O13   S    
C42   C71   S    
C77   O13   A    
C76   O8    A    
C13   C22   A    
C18   H30   S    
C51   C55   S    
C65   O1    A    
Cr4   O44   S    
C62   Br2   S    
C49   C53   S    
C58   C78   S    
Cr9   O9    S    
C63   C64   S    
C75   O7    A    
Cr2   O2    S    
Cr4   O48   S    
Cr7   O27   S    
C68   O40   A    
C70   O50   A    
C4    O28   A    
C73   O5    A    
C27   C28   A    
C44   H48   S    
C44   C69   S    
C79   O43   A    
C31   H36   S    
Cr3   O23   S    
C56   H8    S    
C5    C89   S    
C52   C56   S    
C61   Br1   S    
C57   H14   S    
C26   C30   A    
