data_mof_unit_37863.cif
_audit_creation_date              2013-03-05T16:03:14-0500
_audit_creation_method            fapswitch 2.2
_symmetry_space_group_name_H-M    P1
_symmetry_Int_Tables_number       1
_space_group_crystal_system       triclinic
_cell_length_a                    15.737274
_cell_length_b                    14.85683
_cell_length_c                    14.033347
_cell_angle_alpha                 89.920631
_cell_angle_beta                  89.466627
_cell_angle_gamma                 90.645407
_cell_volume                      3280.7268265

loop_
_atom_site_label
_atom_site_type_symbol
_atom_site_description
_atom_site_fract_x
_atom_site_fract_y
_atom_site_fract_z
_atom_type_partial_charge
O1    O     O_R   0.500020 0.367860 0.580280 -0.601077
O2    O     O_R   0.499980 0.632140 0.419720 -0.605353
O3    O     O_R   0.500020 0.367840 0.419730 -0.603050
O4    O     O_R   0.499980 0.632160 0.580270 -0.592737
C1    C     C_R   0.499144 0.326844 0.500246 0.937509
C2    C     C_R   0.501195 0.673087 0.500078 0.936390
O5    O     O_R   0.376770 0.500000 0.580260 -0.619567
O6    O     O_R   0.623230 0.500000 0.419740 -0.625575
O7    O     O_R   0.376780 0.499980 0.419710 -0.607057
O8    O     O_R   0.623220 0.500020 0.580290 -0.600527
C3    C     C_R   0.337967 0.500901 0.500384 0.940446
C4    C     C_R   0.662049 0.499573 0.499604 0.934586
Zn1   Zn    Zn3+2 0.499990 0.500020 0.607200 1.044404
Zn2   Zn    Zn3+2 0.500010 0.499980 0.392800 1.035011
C5    C     C_3   0.971533 0.437523 0.558522 0.204572
C6    C     C_3   0.028523 0.564150 0.441439 0.215934
C7    C     C_3   0.028418 0.421070 0.471342 0.375057
C8    C     C_3   0.971645 0.580666 0.528652 0.361210
H1    H     H_    0.950080 0.470024 0.336521 0.248647
H2    H     H_    0.049960 0.531635 0.663494 0.249254
C9    C     C_1   0.249372 0.501567 0.501317 -0.011065
C10   C     C_1   0.750653 0.499546 0.498682 -0.027817
C11   C     C_3   0.027292 0.518063 0.590171 -0.327367
C12   C     C_3   0.972743 0.483617 0.409840 -0.311037
C13   C     C_3   0.083699 0.501848 0.501073 -0.161074
C14   C     C_3   0.916341 0.499857 0.498932 -0.164452
C15   C     C_1   0.174295 0.501894 0.501648 0.202649
C16   C     C_1   0.825737 0.499621 0.498389 0.183337
C17   C     C_R   0.425171 0.811207 0.506112 -0.161447
C18   C     C_R   0.571967 0.188487 0.523821 -0.168198
C19   C     C_R   0.502603 0.768747 0.502512 -0.185558
C20   C     C_R   0.496907 0.231062 0.503054 -0.187107
C21   C     C_R   0.579384 0.814887 0.514389 0.295242
C22   C     C_R   0.419517 0.184799 0.497719 0.295425
C23   C     C_R   0.578150 0.908296 0.531665 -0.109057
C24   C     C_R   0.417529 0.091239 0.514811 -0.112899
C25   C     C_R   0.498425 0.952809 0.528463 -0.022504
C26   C     C_R   0.496247 0.046676 0.528509 -0.020118
C27   C     C_R   0.421146 0.903366 0.520842 0.006206
C28   C     C_R   0.573295 0.096125 0.538160 0.007481
C29   C     C_R   0.653048 0.958231 0.553281 0.180571
C30   C     C_R   0.340147 0.041197 0.520279 0.178011
C31   C     C_R   0.649846 0.052418 0.560888 0.243667
C32   C     C_R   0.341884 0.946883 0.527467 0.257153
H3    H     H_    0.368627 0.770772 0.494683 0.206318
H4    H     H_    0.629467 0.228979 0.525151 0.203939
C33   C     C_R   0.432517 0.533995 0.798654 0.055279
C34   C     C_R   0.567513 0.466169 0.201306 0.060832
N1    N     N_R   0.500040 0.500070 0.750030 -0.141774
N2    N     N_R   0.499960 0.499930 0.249970 -0.138745
C35   C     C_R   0.568075 0.466976 0.797153 0.093550
C36   C     C_R   0.432360 0.534095 0.202930 0.063758
C37   C     C_R   0.571980 0.468539 0.898106 -0.114133
C38   C     C_R   0.428817 0.533708 0.101931 -0.109505
C39   C     C_R   0.500556 0.500764 0.949514 0.003530
C40   C     C_R   0.500054 0.500966 0.050514 0.017548
C41   C     C_R   0.429937 0.533823 0.899475 -0.105868
C42   C     C_R   0.570562 0.467500 0.100519 -0.114889
C43   C     C_R   0.644713 0.439142 0.948402 0.315265
C44   C     C_R   0.356764 0.565007 0.051592 0.227913
C45   C     C_R   0.642300 0.436038 0.049558 0.197954
C46   C     C_R   0.358692 0.566468 0.950375 0.211347
H5    H     H_    0.380557 0.560676 0.757944 0.184492
H6    H     H_    0.619188 0.438920 0.242016 0.180135
H7    H     H_    0.618530 0.438850 0.754653 0.203279
H8    H     H_    0.381934 0.561945 0.245626 0.211628
S1    S     S_3+6 0.066810 0.314288 0.434058 0.157964
O9    O     O_2   0.120192 0.325983 0.345475 -0.218943
O10   O     O_2   0.119580 0.274543 0.511854 -0.149157
O11   O     O_3   0.983738 0.245794 0.411314 -0.454829
H9    H     H_    0.009261 0.186969 0.395483 0.424769
S2    S     S_3+6 0.933475 0.687510 0.566130 0.159557
O12   O     O_2   0.879258 0.726734 0.489299 -0.152914
O13   O     O_2   0.881608 0.675984 0.655852 -0.207848
O14   O     O_3   0.016720 0.756406 0.586823 -0.441252
H10   H     H_    0.991262 0.814194 0.606694 0.427518
S3    S     S_3+6 0.740113 0.411855 0.884914 0.120648
O15   O     O_2   0.815428 0.403384 0.949212 -0.145388
O16   O     O_2   0.726475 0.324324 0.833424 -0.221220
O17   O     O_3   0.761841 0.493533 0.804790 -0.525177
H11   H     H_    0.810463 0.470956 0.766772 0.412117
S4    S     S_3+6 0.263323 0.598793 0.115303 0.126815
O18   O     O_2   0.282986 0.684292 0.168194 -0.196805
O19   O     O_2   0.188764 0.614737 0.051590 -0.138638
O20   O     O_3   0.235366 0.518740 0.194905 -0.504905
H12   H     H_    0.228228 0.463142 0.156800 0.376685
N3    N     N_R   0.712389 0.399940 0.100982 0.231536
O21   O     O_R   0.761451 0.452825 0.150444 -0.317595
O22   O     O_R   0.724966 0.313549 0.101641 -0.279173
N4    N     N_R   0.288622 0.602135 0.898676 0.232124
O23   O     O_R   0.237051 0.548232 0.853807 -0.323235
O24   O     O_R   0.280889 0.688785 0.889444 -0.272815
N5    N     N_R   0.940964 0.366664 0.622609 0.263730
O25   O     O_R   0.994762 0.322069 0.673591 -0.232681
O26   O     O_R   0.860417 0.346762 0.628486 -0.299633
N6    N     N_R   0.059154 0.634660 0.376959 0.281029
O27   O     O_R   0.005196 0.680668 0.327626 -0.228921
O28   O     O_R   0.140089 0.651003 0.366932 -0.264617
N7    N     N_R   0.657266 0.767091 0.500769 0.217286
O29   O     O_R   0.698945 0.775547 0.420725 -0.284588
O30   O     O_R   0.679467 0.705583 0.561434 -0.323314
N8    N     N_R   0.345387 0.233023 0.469523 0.223792
O31   O     O_R   0.317166 0.224665 0.383122 -0.285317
O32   O     O_R   0.313832 0.294431 0.525059 -0.345112
N9    N     N_R   0.731706 0.913713 0.570671 0.261701
O33   O     O_R   0.741436 0.867714 0.648717 -0.278021
O34   O     O_R   0.795831 0.925228 0.512538 -0.203344
N10   N     N_R   0.259935 0.085787 0.522648 0.265810
O35   O     O_R   0.237058 0.130293 0.598271 -0.268696
O36   O     O_R   0.206921 0.075839 0.452720 -0.209318
S5    S     S_3+6 0.740453 0.114948 0.602065 0.136677
O37   O     O_2   0.787462 0.153127 0.517254 -0.171797
O38   O     O_2   0.712419 0.191316 0.664729 -0.247413
O39   O     O_3   0.807755 0.051561 0.665109 -0.397859
H13   H     H_    0.778504 0.040840 0.726971 0.385476
S6    S     S_3+6 0.245512 0.883903 0.548276 0.122993
O40   O     O_2   0.214908 0.847150 0.454829 -0.155035
O41   O     O_2   0.261523 0.806463 0.614669 -0.280687
O42   O     O_3   0.167926 0.946454 0.596765 -0.409705
H14   H     H_    0.185069 0.955802 0.663805 0.387756

loop_
_geom_bond_atom_site_label_1
_geom_bond_atom_site_label_2
_geom_bond_distance
_ccdc_geom_bond_type
C18   C20   1.379528 A    
N3    O21   1.301191 A    
N5    O25   1.300084 A    
C24   C30   1.421047 A    
S5    O37   1.502624 D    
C8    C14   1.535375 S    
O7    Zn2   1.972277 S    
C43   S3    1.789402 S    
O39   H13   0.990689 S    
C37   C43   1.422865 A    
C41   C46   1.414524 A    
C33   N1    1.359536 A    
C38   C44   1.423701 A    
S3    O15   1.502602 D    
N10   O35   1.301238 A    
O5    C3    1.281579 A    
N9    O34   1.301378 A    
C22   N8    1.434395 S    
C31   S5    1.793645 S    
O1    C1    1.278660 A    
C23   C25   1.425895 A    
C12   C14   1.547326 S    
C33   H5    1.080527 S    
C34   H6    1.080287 S    
C4    C10   1.394330 S    
S6    O40   1.502535 D    
C44   C46   1.420588 A    
C35   H7    1.077102 S    
C43   C45   1.420387 A    
O4    Zn1   1.998714 S    
C45   N3    1.432512 S    
C44   S4    1.790840 S    
C28   C31   1.413819 A    
S6    O41   1.504391 D    
N1    C35   1.359979 A    
N6    O28   1.300265 A    
N2    C36   1.359953 A    
C19   C21   1.393967 A    
O11   H9    0.990591 S    
C1    C20   1.423538 S    
C42   C45   1.415017 A    
C5    C11   1.544064 S    
C2    C19   1.421589 S    
C9    C15   1.181525 T    
C6    C12   1.543950 S    
C10   C16   1.181585 T    
C29   C31   1.404962 A    
O2    C2    1.282255 A    
C30   C32   1.405281 A    
S2    O14   1.681066 S    
O2    Zn2   2.000009 S    
O8    C4    1.281702 A    
C36   C38   1.418990 A    
C37   C39   1.418115 A    
C8    S2    1.781871 S    
C25   C27   1.418662 A    
C38   C40   1.418532 A    
C6    N6    1.458220 S    
C7    C12   1.551222 S    
C7    S1    1.781466 S    
S1    O9    1.502646 D    
S2    O13   1.502672 D    
O17   H11   0.990618 S    
C5    C14   1.529998 S    
O20   H12   0.990502 S    
C3    C9    1.394328 S    
C8    C11   1.551605 S    
C17   H3    1.081338 S    
C21   N7    1.434782 S    
C20   C22   1.394383 A    
O14   H10   0.990809 S    
C25   C26   1.395364 A    
C33   C41   1.415060 A    
N4    O24   1.300845 A    
N7    O29   1.300686 A    
H2    C11   1.110163 S    
O6    C4    1.281463 A    
N6    O27   1.300107 A    
C17   C27   1.387066 A    
C39   C40   1.417331 A    
S3    O16   1.502842 D    
C18   C28   1.387019 A    
S5    O38   1.504001 D    
C6    C8    1.531255 S    
N8    O32   1.300517 A    
C34   N2    1.359264 A    
O7    C3    1.281546 A    
O3    Zn2   1.998712 S    
C29   N9    1.432811 S    
Zn1   N1    2.004390 S    
O4    C2    1.278264 A    
N7    O30   1.300950 A    
S4    O19   1.502491 D    
C39   C41   1.412547 A    
O1    Zn1   2.000010 S    
C36   H8    1.076657 S    
S3    O17   1.683286 S    
S1    O10   1.502109 D    
C6    C13   1.529882 S    
C5    C7    1.530786 S    
O6    Zn2   1.979105 S    
C18   H4    1.081286 S    
S2    O12   1.502225 D    
O3    C1    1.282753 A    
O8    Zn1   1.972277 S    
C5    N5    1.458231 S    
O42   H14   0.990667 S    
N10   O36   1.301453 A    
C34   C42   1.414851 A    
C27   C32   1.413756 A    
C13   C15   1.425828 S    
S4    O20   1.682662 S    
N9    O33   1.301330 A    
C14   C16   1.425904 S    
S6    O42   1.682047 S    
S1    O11   1.680821 S    
C7    C13   1.534860 S    
N3    O22   1.300907 A    
H1    C12   1.110160 S    
C17   C19   1.379016 A    
C26   C28   1.418298 A    
N4    O23   1.301068 A    
Zn2   N2    2.004393 S    
C46   N4    1.431816 S    
C24   C26   1.425647 A    
C21   C23   1.409434 A    
C40   C42   1.413094 A    
S5    O39   1.681965 S    
C22   C24   1.410160 A    
C11   C13   1.547386 S    
N8    O31   1.300770 A    
C23   C29   1.421008 A    
O5    Zn1   1.979105 S    
C32   S6    1.794440 S    
N5    O26   1.300204 A    
S4    O18   1.502737 D    
C35   C37   1.418828 A    
C30   N10   1.432308 S    
