data_mof_unit_42798.cif
_audit_creation_date              2012-12-10T20:39:08-0500
_audit_creation_method            fapswitch 2.2
_symmetry_space_group_name_H-M    P1
_symmetry_Int_Tables_number       1
_space_group_crystal_system       triclinic
_cell_length_a                    19.219734
_cell_length_b                    10.742032
_cell_length_c                    9.835762
_cell_angle_alpha                 90.2919
_cell_angle_beta                  90.097821
_cell_angle_gamma                 90.16311
_cell_volume                      2030.64397186

loop_
_atom_site_label
_atom_site_type_symbol
_atom_type_description
_atom_site_fract_x
_atom_site_fract_y
_atom_site_fract_z
_atom_type_partial_charge
C1    C     C_R   0.503878 0.260136 0.498941 0.877067
C2    C     C_R   0.289606 0.503231 0.500484 -0.093575
C3    C     C_R   0.929397 0.504824 0.502445 0.279949
C4    C     C_R   0.069189 0.506722 0.502649 0.272160
C5    C     C_R   0.817931 0.450666 0.610830 -0.165954
C6    C     C_R   0.745821 0.450386 0.610763 -0.201221
C7    C     C_R   0.709628 0.500616 0.500333 -0.023916
C8    C     C_R   0.745732 0.552011 0.390477 -0.200425
C9    C     C_R   0.817830 0.554520 0.391816 -0.166219
C10   C     C_R   0.854046 0.503397 0.501735 0.094642
C11   C     C_R   0.482378 0.065061 0.609330 0.108694
C12   C     C_R   0.365406 0.500669 0.500043 0.892271
C13   C     C_R   0.506664 0.127541 0.494892 -0.161967
C14   C     C_R   0.527436 0.060813 0.375945 0.072216
C15   C     C_R   0.521930 0.931856 0.379092 -0.231888
C16   C     C_R   0.501410 0.871302 0.497985 -0.140537
C17   C     C_R   0.480137 0.937992 0.611211 0.127282
C18   C     C_3   0.506782 0.931066 0.753721 -0.476572
C19   C     C_3   0.509644 0.071624 0.751900 -0.465346
C20   C     C_R   0.470569 0.403485 0.070650 0.201891
C21   C     C_R   0.534712 0.589078 0.072704 -0.129933
C22   C     C_R   0.534730 0.589065 0.928522 -0.135841
C23   C     C_R   0.500846 0.739713 0.500074 0.895539
C24   C     C_R   0.470442 0.403601 0.927852 0.217006
C25   C     C_3   0.395976 0.364765 0.921974 -0.508566
C26   C     C_3   0.396308 0.363894 0.076117 -0.519231
C27   C     C_R   0.634337 0.500013 0.500056 0.846689
C28   C     C_R   0.253873 0.515617 0.623360 -0.230955
C29   C     C_R   0.181468 0.517873 0.626106 0.100240
C30   C     C_R   0.144564 0.506971 0.501778 0.039349
C31   C     C_R   0.180499 0.495179 0.376727 0.099960
C32   C     C_R   0.252916 0.494103 0.378231 -0.230029
H1    H     H_    0.282472 0.525404 0.717707 0.151058
H2    H     H_    0.536610 0.877045 0.291443 0.162119
H3    H     H_    0.467164 0.893619 0.824985 0.201732
H4    H     H_    0.559010 0.887202 0.760873 0.201403
H5    H     H_    0.472194 0.115271 0.823306 0.199123
H6    H     H_    0.563485 0.109516 0.756968 0.206783
H7    H     H_    0.561595 0.662246 0.127743 0.136715
H8    H     H_    0.561657 0.662149 0.874487 0.143676
H9    H     H_    0.361874 0.438017 0.879014 0.211374
H10   H     H_    0.388857 0.270876 0.876295 0.195600
H11   H     H_    0.362285 0.436482 0.120841 0.213202
H12   H     H_    0.390088 0.269294 0.119805 0.198172
H13   H     H_    0.280709 0.484487 0.283390 0.149759
H14   H     H_    0.845409 0.411380 0.696698 0.145075
H15   H     H_    0.718245 0.591647 0.304788 0.147918
H16   H     H_    0.845237 0.594836 0.306464 0.144620
N1    N     N_R   0.033594 0.598651 0.440041 -0.188931
N2    N     N_R   0.964596 0.597427 0.439414 -0.181917
N3    N     N_R   0.965139 0.413292 0.565746 -0.182073
N4    N     N_R   0.034130 0.413927 0.565284 -0.188686
N5    N     N_R   0.499530 0.499140 0.142800 -0.103592
N6    N     N_R   0.499530 0.499180 0.857150 -0.106690
O1    O     O_R   0.500010 0.316790 0.614690 -0.610870
O2    O     O_R   0.500000 0.316760 0.385350 -0.634073
O3    O     O_R   0.398140 0.500000 0.614710 -0.620629
O4    O     O_R   0.398130 0.499970 0.385370 -0.617811
O5    O     O_R   0.500000 0.683240 0.614650 -0.619243
O6    O     O_R   0.499990 0.683210 0.385310 -0.629524
O7    O     O_R   0.601870 0.500030 0.614630 -0.621701
O8    O     O_R   0.601860 0.500000 0.385290 -0.625023
Zn1   Zn    Zn3+2 0.500000 0.500020 0.653130 0.941924
Zn2   Zn    Zn3+2 0.500000 0.499980 0.346870 0.935015
C33   C     C_3   0.145813 0.534411 0.762735 -0.436349
C34   C     C_3   0.117082 0.666599 0.779875 -0.323153
C35   C     C_3   0.084098 0.684087 0.919669 -0.875574
H17   H     H_    0.040872 0.616565 0.933942 0.265927
H18   H     H_    0.123590 0.670659 0.000772 0.256117
H19   H     H_    0.062956 0.779854 0.928626 0.252787
H20   H     H_    0.160021 0.735281 0.768161 0.222658
H21   H     H_    0.077157 0.685709 0.701101 0.236407
H22   H     H_    0.103793 0.464512 0.775241 0.220008
H23   H     H_    0.183291 0.516806 0.846801 0.192830
C36   C     C_3   0.143826 0.480408 0.240604 -0.435892
C37   C     C_3   0.113775 0.348913 0.222767 -0.322245
C38   C     C_3   0.080220 0.332853 0.083036 -0.874476
H24   H     H_    0.037631 0.401376 0.069366 0.265435
H25   H     H_    0.119621 0.345835 0.001859 0.256922
H26   H     H_    0.058106 0.237596 0.073596 0.252662
H27   H     H_    0.156086 0.279287 0.233800 0.223051
H28   H     H_    0.073910 0.330201 0.301613 0.236513
H29   H     H_    0.102435 0.551290 0.229294 0.220027
H30   H     H_    0.180982 0.497848 0.156109 0.193185
H31   H     H_    0.718406 0.409855 0.696005 0.151964
C39   C     C_3   0.558091 0.125777 0.251223 -0.356028
C40   C     C_3   0.594927 0.042566 0.146019 -0.399286
C41   C     C_3   0.630914 0.121259 0.037919 -0.877372
H32   H     H_    0.592988 0.184725 0.988856 0.257095
H33   H     H_    0.673342 0.177611 0.084449 0.263688
H34   H     H_    0.653707 0.059477 0.958959 0.249976
H35   H     H_    0.634768 0.984155 0.197011 0.228264
H36   H     H_    0.556225 0.981377 0.094296 0.223526
H37   H     H_    0.515479 0.174841 0.197365 0.216736
H38   H     H_    0.597092 0.195123 0.287590 0.217313

loop_
_geom_bond_atom_site_label_1
_geom_bond_atom_site_label_2
_ccdc_geom_bond_type
C40   C41   S    
C32   H13   S    
C2    C12   S    
C26   H12   S    
C7    C8    A    
C22   N6    A    
C38   H24   S    
C23   O5    A    
C11   C19   S    
C6    H31   S    
C4    N4    A    
C21   C22   A    
C28   C29   A    
C27   O8    A    
C1    O2    A    
C30   C31   A    
N5    Zn2   S    
C36   H30   S    
N6    Zn1   S    
C24   N6    A    
C15   C16   A    
C7    C27   S    
C2    C32   A    
C18   C19   S    
O7    Zn1   S    
O8    Zn2   S    
C39   H37   S    
C34   H21   S    
C31   C32   A    
C8    C9    A    
O1    Zn1   S    
O2    Zn2   S    
C27   O7    A    
C9    C10   A    
C15   H2    S    
C12   O4    A    
C34   C35   S    
C40   H35   S    
C3    N2    A    
C26   H11   S    
O3    Zn1   S    
C38   H25   S    
O4    Zn2   S    
C23   O6    A    
N3    N4    A    
C20   C24   A    
C37   C38   S    
C14   C39   S    
C33   H22   S    
C25   H9    S    
C3    N3    A    
C39   C40   S    
C16   C17   A    
C25   C26   S    
C33   H23   S    
C35   H17   S    
C35   H18   S    
C37   H27   S    
C36   C37   S    
C29   C30   A    
C19   H6    S    
C31   C36   S    
C34   H20   S    
C21   H7    S    
C41   H34   S    
C22   H8    S    
C17   C18   S    
C24   C25   S    
C5    H14   S    
C29   C33   S    
C12   O3    A    
C41   H33   S    
C28   H1    S    
N1    N2    A    
C16   C23   S    
C1    C13   S    
C37   H28   S    
C18   H3    S    
C38   H26   S    
C11   C17   A    
C20   N5    A    
C25   H10   S    
C6    C7    A    
C19   H5    S    
O5    Zn1   S    
C4    N1    A    
O6    Zn2   S    
C35   H19   S    
C1    O1    A    
C8    H15   S    
C5    C10   A    
C3    C10   S    
C21   N5    A    
C11   C13   A    
C36   H29   S    
C5    C6    A    
C20   C26   S    
C40   H36   S    
C39   H38   S    
C41   H32   S    
C9    H16   S    
C33   C34   S    
C14   C15   A    
C2    C28   A    
C13   C14   A    
C18   H4    S    
C4    C30   S    
