data_mof_unit_63915.cif
_audit_creation_date              2013-03-05T16:24:11-0500
_audit_creation_method            fapswitch 2.2
_symmetry_space_group_name_H-M    P1
_symmetry_Int_Tables_number       1
_space_group_crystal_system       triclinic
_cell_length_a                    28.355145
_cell_length_b                    18.373672
_cell_length_c                    21.778251
_cell_angle_alpha                 90.089012
_cell_angle_beta                  139.643071
_cell_angle_gamma                 90.057525
_cell_volume                      7347.15646159

loop_
_atom_site_label
_atom_site_type_symbol
_atom_site_description
_atom_site_fract_x
_atom_site_fract_y
_atom_site_fract_z
_atom_type_partial_charge
O1    O     O_R   0.894200 0.438770 0.894190 -0.544023
O2    O     O_R   0.105800 0.561230 0.105810 -0.541529
O3    O     O_R   0.105800 0.438770 0.105810 -0.598403
O4    O     O_R   0.894200 0.561230 0.894190 -0.596875
O5    O     O_R   0.394200 0.938770 0.894190 -0.543944
O6    O     O_R   0.605800 0.061230 0.105810 -0.541602
O7    O     O_R   0.605800 0.938770 0.105810 -0.598361
O8    O     O_R   0.394200 0.061230 0.894190 -0.596885
C1    C     C_R   0.860118 0.499900 0.859405 0.863380
C2    C     C_R   0.139881 0.500098 0.140626 0.862943
C3    C     C_R   0.360118 0.999899 0.859404 0.863385
C4    C     C_R   0.639881 0.000098 0.140629 0.862996
O9    O     O_R   0.999990 0.438770 0.909810 -0.592144
O10   O     O_R   0.000010 0.561230 0.090190 -0.590718
O11   O     O_R   0.000010 0.438770 0.090190 -0.539580
O12   O     O_R   0.999990 0.561230 0.909810 -0.540051
O13   O     O_R   0.499990 0.938770 0.909810 -0.592030
O14   O     O_R   0.500010 0.061230 0.090190 -0.590704
O15   O     O_R   0.500010 0.938770 0.090190 -0.539655
O16   O     O_R   0.499990 0.061230 0.909810 -0.540256
C5    C     C_R   0.000043 0.500002 0.881186 0.844850
C6    C     C_R   0.999951 0.499999 0.118803 0.849394
C7    C     C_R   0.500047 0.999998 0.881192 0.844872
C8    C     C_R   0.499938 0.999998 0.118788 0.849453
Cu1   Cu    Cu3+1 0.000000 0.427490 0.000000 1.076293
Cu2   Cu    Cu3+1 0.000000 0.572510 0.000000 1.079527
Cu3   Cu    Cu3+1 0.500000 0.927490 0.000000 1.076421
Cu4   Cu    Cu3+1 0.500000 0.072510 0.000000 1.079357
C9    C     C_R   0.882595 0.428575 0.699171 -0.226194
C10   C     C_R   0.117627 0.571039 0.301020 -0.222799
C11   C     C_R   0.382564 0.928624 0.699154 -0.226293
C12   C     C_R   0.617708 0.070872 0.301082 -0.222839
H1    H     H_    0.876342 0.437037 0.741771 0.165139
H2    H     H_    0.123825 0.562574 0.258360 0.164379
H3    H     H_    0.376332 0.937070 0.741779 0.165085
H4    H     H_    0.623878 0.062404 0.258392 0.164282
C13   C     C_R   0.830134 0.386018 0.616819 0.386793
C14   C     C_R   0.170214 0.613456 0.383486 0.386149
C15   C     C_R   0.330043 0.886142 0.616740 0.386800
C16   C     C_R   0.670378 0.113186 0.383624 0.386122
C17   C     C_R   0.837130 0.374663 0.560531 -0.162527
C18   C     C_R   0.163261 0.624842 0.439814 -0.164140
C19   C     C_R   0.336984 0.874838 0.560388 -0.162328
C20   C     C_R   0.663458 0.124576 0.439988 -0.164032
H5    H     H_    0.798746 0.340394 0.498037 0.215867
H6    H     H_    0.201738 0.659022 0.502388 0.215526
H7    H     H_    0.298557 0.840615 0.497853 0.215988
H8    H     H_    0.702007 0.158673 0.502632 0.215714
C21   C     C_R   0.893344 0.407683 0.583511 -0.213261
C22   C     C_R   0.106951 0.591997 0.416748 -0.208979
C23   C     C_R   0.393231 0.907800 0.583402 -0.213335
C24   C     C_R   0.607089 0.091844 0.416866 -0.209019
H9    H     H_    0.896853 0.395134 0.538637 0.177512
H10   H     H_    0.103466 0.604612 0.461634 0.177438
H11   H     H_    0.396714 0.895251 0.538500 0.177613
H12   H     H_    0.603629 0.104479 0.461775 0.177529
C25   C     C_R   0.944198 0.453907 0.663439 0.102587
C26   C     C_R   0.055949 0.545918 0.336688 0.103653
C27   C     C_R   0.444149 0.953956 0.663394 0.102556
C28   C     C_R   0.556008 0.045844 0.336737 0.103666
C29   C     C_R   0.941552 0.460630 0.725448 -0.012994
C30   C     C_R   0.058578 0.539168 0.274664 -0.015423
C31   C     C_R   0.441527 0.960660 0.725429 -0.012989
C32   C     C_R   0.558620 0.039089 0.274696 -0.015432
C33   C     C_R   0.997629 0.499519 0.811939 -0.184811
C34   C     C_R   0.002360 0.500485 0.188036 -0.203499
C35   C     C_R   0.497642 0.999500 0.811955 -0.184391
C36   C     C_R   0.502351 0.000480 0.188024 -0.203432
C37   C     C_R   0.053454 0.534513 0.833804 0.364244
C38   C     C_R   0.946331 0.465803 0.165951 0.412363
C39   C     C_R   0.553520 0.034411 0.833876 0.363537
C40   C     C_R   0.446291 0.965859 0.165909 0.412326
H13   H     H_    0.093339 0.560975 0.784032 0.203397
H14   H     H_    0.906152 0.439727 0.215414 0.220549
H15   H     H_    0.593413 0.060865 0.784113 0.202852
H16   H     H_    0.406084 0.939837 0.215345 0.220578
C41   C     C_R   0.052106 0.531813 0.768869 -0.272419
C42   C     C_R   0.947632 0.468561 0.230840 -0.238138
C43   C     C_R   0.552150 0.031743 0.768919 -0.273149
C44   C     C_R   0.447594 0.968625 0.230800 -0.238156
C45   C     C_R   0.998481 0.492581 0.684384 -0.143879
C46   C     C_R   0.001499 0.507470 0.315581 -0.164822
C47   C     C_R   0.498472 0.992581 0.684378 -0.143433
C48   C     C_R   0.501506 0.007474 0.315584 -0.164868
C49   C     C_1   0.782572 0.499710 0.781638 -0.074189
C50   C     C_1   0.217428 0.500284 0.218384 -0.071319
C51   C     C_1   0.282572 0.999709 0.781637 -0.074272
C52   C     C_1   0.717428 0.000283 0.218388 -0.071038
C53   C     C_1   0.717261 0.499729 0.716480 -0.103314
C54   C     C_1   0.282739 0.500264 0.283529 -0.100188
C55   C     C_1   0.217261 0.999728 0.716479 -0.103502
C56   C     C_1   0.782739 0.000264 0.283530 -0.099847
O17   O     O_R   0.061240 0.605830 0.561270 -0.579739
O18   O     O_R   0.938760 0.394170 0.438730 -0.577236
O19   O     O_R   0.938760 0.605830 0.438730 -0.576261
O20   O     O_R   0.061240 0.394170 0.561270 -0.578098
O21   O     O_R   0.561240 0.105830 0.561270 -0.579758
O22   O     O_R   0.438760 0.894170 0.438730 -0.577216
O23   O     O_R   0.438760 0.105830 0.438730 -0.576254
O24   O     O_R   0.561240 0.894170 0.561270 -0.578098
C57   C     C_R   0.000106 0.639936 0.500058 0.835194
C58   C     C_R   0.999894 0.360064 0.499943 0.834432
C59   C     C_R   0.500106 0.139936 0.500058 0.835231
C60   C     C_R   0.499894 0.860063 0.499943 0.834478
O25   O     O_R   0.061260 0.500000 0.651450 -0.580614
O26   O     O_R   0.938740 0.500000 0.348550 -0.574230
O27   O     O_R   0.561260 0.000000 0.651450 -0.580686
O28   O     O_R   0.438740 1.000000 0.348550 -0.574235
O29   O     O_R   0.938780 0.500000 0.528960 -0.590015
O30   O     O_R   0.061220 0.500000 0.471040 -0.590482
O31   O     O_R   0.438780 1.000000 0.528960 -0.590062
O32   O     O_R   0.561220 0.000000 0.471040 -0.590521
C61   C     C_R   0.999556 0.496132 0.618461 0.807630
C62   C     C_R   0.000441 0.503881 0.381530 0.809994
C63   C     C_R   0.499554 0.996135 0.618461 0.807626
C64   C     C_R   0.500442 0.003885 0.381531 0.810022
Cu5   Cu    Cu3+1 0.072520 0.500000 0.572540 0.999992
Cu6   Cu    Cu3+1 0.927480 0.500000 0.427460 1.010419
Cu7   Cu    Cu3+1 0.572520 0.000000 0.572540 0.999877
Cu8   Cu    Cu3+1 0.427480 0.000000 0.427460 1.010440
O33   O     O_R   0.500010 0.605810 0.447830 -0.577312
O34   O     O_R   0.499990 0.394190 0.552170 -0.579493
O35   O     O_R   0.499990 0.605810 0.552170 -0.569783
O36   O     O_R   0.500010 0.394190 0.447830 -0.570222
O37   O     O_R   0.000010 0.105810 0.447830 -0.577258
O38   O     O_R   0.999990 0.894190 0.552170 -0.579489
O39   O     O_R   0.999990 0.105810 0.552170 -0.569757
O40   O     O_R   0.000010 0.894190 0.447830 -0.570183
C65   C     C_R   0.499902 0.639698 0.499944 0.832382
C66   C     C_R   0.500098 0.360302 0.500056 0.830318
C67   C     C_R   0.999902 0.139698 0.499944 0.832358
C68   C     C_R   0.000098 0.860302 0.500056 0.830243
O41   O     O_R   0.605800 0.500000 0.553630 -0.569036
O42   O     O_R   0.394200 0.500000 0.446370 -0.569179
O43   O     O_R   0.105800 0.000000 0.553630 -0.569133
O44   O     O_R   0.894200 0.000000 0.446370 -0.569135
O45   O     O_R   0.605820 0.500000 0.658030 -0.571492
O46   O     O_R   0.394180 0.500000 0.341970 -0.570129
O47   O     O_R   0.105820 0.000000 0.658030 -0.571430
O48   O     O_R   0.894180 1.000000 0.341970 -0.569959
C69   C     C_R   0.639703 0.499881 0.639468 0.827372
C70   C     C_R   0.360297 0.500116 0.360533 0.828954
C71   C     C_R   0.139703 0.999881 0.639468 0.827292
C72   C     C_R   0.860297 0.000115 0.360533 0.828918
Cu9   Cu    Cu3+1 0.500000 0.500000 0.438200 1.046411
Cu10  Cu    Cu3+1 0.500000 0.500000 0.561800 1.045270
Cu11  Cu    Cu3+1 0.000000 0.000000 0.438200 1.046768
Cu12  Cu    Cu3+1 0.000000 0.000000 0.561800 1.045465
C73   C     C_1   0.000293 0.717470 0.500176 -0.147861
C74   C     C_1   0.999707 0.282530 0.499825 -0.146503
C75   C     C_1   0.500293 0.217470 0.500176 -0.147892
C76   C     C_1   0.499707 0.782530 0.499825 -0.146511
C77   C     C_1   0.500256 0.282762 0.500132 -0.132319
C78   C     C_1   0.499745 0.717237 0.499869 -0.130102
C79   C     C_1   0.000256 0.782762 0.500132 -0.132251
C80   C     C_1   0.999745 0.217237 0.499869 -0.130052
S1    S     S_3+6 0.127623 0.580144 0.943024 0.035503
O49   O     O_2   0.100738 0.648240 0.947040 -0.213080
O50   O     O_2   0.161376 0.531619 0.024023 -0.326645
O51   O     O_3   0.191490 0.603281 0.954501 -0.491811
H17   H     H_    0.215935 0.556989 0.967937 0.352006
S2    S     S_3+6 0.871847 0.420762 0.056377 0.022828
O52   O     O_2   0.838024 0.470520 0.976269 -0.320495
O53   O     O_2   0.898366 0.352989 0.051223 -0.253669
O54   O     O_3   0.808464 0.397669 0.045805 -0.517636
H18   H     H_    0.769240 0.373636 0.983009 0.392736
S3    S     S_3+6 0.627815 0.079832 0.943238 0.035752
O55   O     O_2   0.601097 0.147961 0.947474 -0.213139
O56   O     O_2   0.661464 0.031171 0.024088 -0.326112
O57   O     O_3   0.691745 0.102872 0.954801 -0.491111
H19   H     H_    0.715341 0.056408 0.966679 0.351317
S4    S     S_3+6 0.371781 0.920864 0.056310 0.022790
O58   O     O_2   0.337980 0.970644 0.976232 -0.320426
O59   O     O_2   0.398266 0.853085 0.051114 -0.253766
O60   O     O_3   0.308392 0.897794 0.045734 -0.517669
H20   H     H_    0.269196 0.873704 0.982982 0.392774
N1    N     N_R   0.770520 0.353827 0.591135 0.130672
O61   O     O_R   0.764978 0.362479 0.644786 -0.364972
O62   O     O_R   0.720668 0.316245 0.513185 -0.343747
N2    N     N_R   0.229899 0.645500 0.409224 0.130771
O63   O     O_R   0.235411 0.636803 0.355546 -0.363557
O64   O     O_R   0.279833 0.683010 0.487240 -0.343581
N3    N     N_R   0.270418 0.853977 0.591050 0.130559
O65   O     O_R   0.265430 0.861816 0.645375 -0.364712
O66   O     O_R   0.219960 0.817306 0.512377 -0.343629
N4    N     N_R   0.730114 0.145123 0.409407 0.130762
O67   O     O_R   0.735545 0.136508 0.355632 -0.363692
O68   O     O_R   0.780168 0.182459 0.487546 -0.343227

loop_
_geom_bond_atom_site_label_1
_geom_bond_atom_site_label_2
_geom_bond_distance
_ccdc_geom_bond_type
C26   C30   1.413671 A    
O23   C59   1.287154 A    
O14   Cu4   1.975190 S    
O12   C5    1.285865 A    
C51   C55   1.199214 T    
C38   C42   1.386115 A    
C28   C48   1.417520 A    
O28   Cu8   1.972685 S    
C37   C41   1.386064 A    
Cu11  Cu12  2.691792 S    
C44   C48   1.395565 A    
O25   Cu5   1.972685 S    
O44   Cu12  1.955938 S    
C39   C43   1.386065 A    
Cu9   Cu10  2.691792 S    
C46   C62   1.460850 S    
C21   C25   1.413559 A    
S3    O56   1.502085 D    
N2    O63   1.301739 A    
O54   H18   0.990588 S    
O26   C62   1.290852 A    
O14   C8    1.287541 A    
C32   C36   1.419671 A    
O25   C61   1.290835 A    
C67   C80   1.424698 S    
C27   C47   1.417428 A    
C14   C18   1.398365 A    
O20   C58   1.287151 A    
C26   C46   1.417482 A    
O6    C4    1.287824 A    
C65   C78   1.424698 S    
O37   Cu11  1.955051 S    
O22   C60   1.287497 A    
O11   Cu1   1.974550 S    
C16   N4    1.440872 S    
O57   H19   0.990688 S    
O46   Cu9   1.952337 S    
C38   S2    1.774610 S    
O24   C60   1.287151 A    
C68   C79   1.424698 S    
O7    Cu3   1.953034 S    
C10   C14   1.402930 A    
C18   H6    1.082515 S    
C7    C35   1.456561 S    
O37   C67   1.295736 A    
C6    C34   1.456425 S    
C24   C28   1.413609 A    
C1    C49   1.423967 S    
O23   Cu8   1.954787 S    
O5    Cu3   1.954435 S    
O47   C71   1.295542 A    
C53   C69   1.424075 S    
O11   C6    1.285825 A    
O6    Cu4   1.954433 S    
C52   C56   1.199214 T    
C9    H1    1.080122 S    
S4    O59   1.502892 D    
N1    O62   1.301548 A    
O38   Cu12  1.955052 S    
C37   S1    1.774835 S    
H16   C44   1.082982 S    
O16   C7    1.285906 A    
O38   C68   1.295734 A    
O15   Cu3   1.974550 S    
O30   C62   1.286775 A    
C55   C71   1.424075 S    
S4    O60   1.682434 S    
O29   C61   1.286660 A    
O39   Cu12  1.955698 S    
C20   C24   1.393038 A    
O43   C71   1.296125 A    
N4    O67   1.301765 A    
S1    O50   1.502074 D    
C9    C29   1.417044 A    
C39   S3    1.774957 S    
O35   C65   1.295845 A    
N4    O68   1.301669 A    
O1    Cu1   1.954435 S    
O9    Cu1   1.975190 S    
O17   Cu5   1.956184 S    
O40   C68   1.295847 A    
O30   Cu5   1.977246 S    
C17   C21   1.393027 A    
N2    O64   1.301738 A    
O29   Cu6   1.977246 S    
S3    O57   1.682568 S    
S2    O53   1.502908 D    
O19   Cu6   1.954787 S    
O12   Cu2   1.974550 S    
O7    C4    1.287231 A    
O42   Cu10  1.955938 S    
C31   C35   1.419807 A    
O47   Cu12  1.952333 S    
C14   N2    1.440878 S    
C10   H2    1.080138 S    
O36   C66   1.295849 A    
O13   Cu3   1.975190 S    
C47   C63   1.460641 S    
O20   Cu5   1.954789 S    
O3    Cu1   1.953034 S    
O1    C1    1.287787 A    
C12   C32   1.417049 A    
C50   C54   1.199214 T    
C3    C51   1.423965 S    
S3    O55   1.502486 D    
C30   C34   1.419737 A    
O34   Cu10  1.955052 S    
C15   C19   1.398339 A    
O16   Cu4   1.974550 S    
C23   H11   1.079667 S    
Cu1   Cu2   2.664552 S    
C40   C44   1.386115 A    
S1    O49   1.502456 D    
O31   Cu8   1.977246 S    
C22   C26   1.413618 A    
O21   Cu7   1.956184 S    
N3    O65   1.301920 A    
C11   C31   1.417080 A    
O48   Cu11  1.952337 S    
O42   C70   1.296107 A    
S2    O54   1.682434 S    
C42   C46   1.395568 A    
O60   H20   0.990506 S    
O13   C7    1.287546 A    
O35   Cu10  1.955698 S    
C41   C45   1.395305 A    
C36   C40   1.411981 A    
C4    C52   1.423981 S    
C9    C13   1.402898 A    
O9    C5    1.287615 A    
O2    Cu2   1.954433 S    
O24   Cu7   1.954789 S    
C22   H10   1.079664 S    
C15   N3    1.440858 S    
O10   Cu2   1.975190 S    
C25   C29   1.413671 A    
C20   H8    1.082482 S    
C54   C70   1.424072 S    
O27   C63   1.290875 A    
O21   C59   1.287494 A    
C58   C74   1.424571 S    
C18   C22   1.393056 A    
S1    O51   1.682582 S    
O43   Cu11  1.955935 S    
C10   C30   1.417069 A    
O5    C3    1.287786 A    
O46   C70   1.295555 A    
O10   C6    1.287539 A    
O8    Cu4   1.953036 S    
O33   Cu9   1.955051 S    
C25   C45   1.417362 A    
C23   C27   1.413602 A    
O17   C57   1.287494 A    
O2    C2    1.287823 A    
C40   S4    1.774571 S    
O32   C64   1.286766 A    
C12   C16   1.402884 A    
S4    O58   1.501968 D    
S2    O52   1.501988 D    
C76   C78   1.199666 T    
C33   C37   1.412103 A    
O45   C69   1.295540 A    
C2    C50   1.423979 S    
C49   C53   1.199212 T    
C5    C33   1.456605 S    
C27   C31   1.413687 A    
O48   C72   1.295559 A    
O33   C65   1.295736 A    
C19   H7    1.082495 S    
O32   Cu7   1.977246 S    
O4    Cu2   1.953036 S    
Cu7   Cu8   2.663246 S    
C12   H4    1.080138 S    
O40   Cu11  1.955701 S    
O22   Cu8   1.956186 S    
C59   C75   1.424571 S    
C74   C80   1.199666 T    
C13   N1    1.440850 S    
O36   Cu9   1.955701 S    
O41   C69   1.296127 A    
O27   Cu7   1.972685 S    
C28   C32   1.413672 A    
O45   Cu10  1.952333 S    
C60   C76   1.424571 S    
N3    O66   1.301947 A    
O15   C8    1.285796 A    
C73   C79   1.199666 T    
O44   C72   1.296104 A    
O3    C2    1.287230 A    
C17   H5    1.082485 S    
Cu5   Cu6   2.663246 S    
O51   H17   0.991137 S    
C43   C47   1.395350 A    
O18   Cu6   1.956186 S    
O28   C64   1.290894 A    
C34   C38   1.412036 A    
C24   H12   1.079643 S    
C19   C23   1.393031 A    
O8    C3    1.287259 A    
C21   H9    1.079687 S    
C11   H3    1.080122 S    
C57   C73   1.424571 S    
C11   C15   1.402911 A    
C66   C77   1.424698 S    
C35   C39   1.412096 A    
C75   C77   1.199666 T    
C13   C17   1.398380 A    
C56   C72   1.424072 S    
O39   C67   1.295845 A    
C8    C36   1.456376 S    
C29   C33   1.419786 A    
C16   C20   1.398356 A    
O41   Cu9   1.955935 S    
O18   C58   1.287497 A    
C48   C64   1.460906 S    
N1    O61   1.301711 A    
H14   C42   1.083008 S    
C45   C61   1.460601 S    
Cu3   Cu4   2.664552 S    
H13   C41   1.082984 S    
O31   C63   1.286639 A    
O4    C1    1.287257 A    
H15   C43   1.082990 S    
O34   C66   1.295732 A    
O26   Cu6   1.972685 S    
O19   C57   1.287154 A    
