data_mof_unit_43855.cif
_audit_creation_date              2012-10-26T19:07:26-0400
_audit_creation_method            fapswitch 2.2
_symmetry_space_group_name_H-M    P1
_symmetry_Int_Tables_number       1
_space_group_crystal_system       triclinic
_cell_length_a                    15.013381
_cell_length_b                    13.702679
_cell_length_c                    10.666889
_cell_angle_alpha                 90.62114
_cell_angle_beta                  88.092525
_cell_angle_gamma                 89.910536
_cell_volume                      2193.08126284

loop_
_atom_site_label
_atom_site_type_symbol
_atom_type_description
_atom_site_fract_x
_atom_site_fract_y
_atom_site_fract_z
_atom_type_partial_charge
C1    C     C_R   0.328800 0.500053 0.501998 0.584357
C2    C     C_R   0.958403 0.534828 0.282909 -0.092279
C3    C     C_R   0.453447 0.794219 0.592255 0.055480
C4    C     C_R   0.546483 0.205815 0.407652 0.056366
C5    C     C_R   0.546622 0.792534 0.407815 0.043326
C6    C     C_R   0.453681 0.207460 0.592443 0.039553
C7    C     C_R   0.547397 0.895546 0.405285 -0.016023
C8    C     C_R   0.452731 0.104474 0.594803 -0.015409
C9    C     C_R   0.452624 0.897298 0.594733 -0.012990
C10   C     C_R   0.547358 0.102739 0.405214 -0.012127
C11   C     C_R   0.499996 0.948204 0.499987 0.053225
C12   C     C_R   0.670859 0.500037 0.505381 0.585458
C13   C     C_R   0.500009 0.051822 0.499981 0.054044
C14   C     C_R   0.594295 0.946942 0.310761 -0.146474
C15   C     C_R   0.405831 0.053104 0.689333 -0.148796
C16   C     C_R   0.405753 0.950469 0.689271 -0.139487
C17   C     C_R   0.594273 0.049577 0.310727 -0.140442
C18   C     C_R   0.502475 0.499320 0.258953 0.594164
C19   C     C_R   0.498180 0.500604 0.740627 0.598336
C20   C     C_3   0.440137 0.560377 0.047052 0.244954
C21   C     C_3   0.562347 0.438416 0.950159 0.235535
C22   C     C_3   0.519108 0.589734 0.961029 0.250164
C23   C     C_R   0.952844 0.505190 0.507790 -0.042144
C24   C     C_3   0.483762 0.409118 0.037063 0.251085
C25   C     C_3   0.417967 0.471436 0.963340 -0.193882
C26   C     C_3   0.584926 0.527225 0.034504 -0.210522
C27   C     C_3   0.498014 0.501622 0.876818 0.003584
C28   C     C_3   0.504311 0.497742 0.121866 -0.005265
C29   C     C_R   0.815802 0.512135 0.393439 0.259573
C30   C     C_R   0.184263 0.477427 0.616063 0.249900
C31   C     C_R   0.767181 0.500463 0.506368 -0.000719
C32   C     C_R   0.232314 0.500279 0.505030 -0.001189
C33   C     C_R   0.810010 0.488861 0.619211 -0.164784
C34   C     C_R   0.046500 0.505000 0.507429 -0.041026
C35   C     C_R   0.188789 0.523213 0.395744 -0.156571
C36   C     C_R   0.903178 0.489898 0.621032 0.016372
C37   C     C_R   0.095842 0.523043 0.394556 0.017869
C38   C     C_3   0.323169 0.665177 0.017390 -0.110239
C39   C     C_3   0.684789 0.337156 0.958035 -0.116261
C40   C     C_3   0.563055 0.746495 0.007498 -0.119493
C41   C     C_3   0.438079 0.252527 0.992950 -0.114851
C42   C     C_3   0.757280 0.417667 0.241307 -0.145427
C43   C     C_3   0.231875 0.349250 0.728734 -0.129438
C44   C     C_3   0.891719 0.548666 0.911237 -0.140611
C45   C     C_R   0.908844 0.518077 0.394112 -0.013105
C46   C     C_3   0.091012 0.653956 0.137546 -0.137911
C47   C     C_R   0.090729 0.485023 0.619382 -0.020206
C48   C     C_R   0.947609 0.476342 0.733693 0.268011
C49   C     C_R   0.051319 0.540804 0.282903 0.270821
C50   C     C_R   0.040740 0.472247 0.731742 -0.098235
Cu1   Cu    Cu3+1 0.500000 0.597420 0.500000 0.999759
Cu2   Cu    Cu3+1 0.500000 0.402580 0.500000 0.986843
H1    H     H_    0.351113 0.450138 0.931640 0.138624
H2    H     H_    0.417517 0.248827 0.664615 0.104519
H3    H     H_    0.630974 0.907778 0.236844 0.095228
H4    H     H_    0.369200 0.092296 0.763283 0.087793
H5    H     H_    0.369061 0.912695 0.763185 0.102774
H6    H     H_    0.630956 0.087360 0.236811 0.104009
H7    H     H_    0.278435 0.608616 0.978685 0.148019
H8    H     H_    0.361910 0.701175 0.940253 0.146465
H9    H     H_    0.280880 0.722113 0.064103 0.122580
H10   H     H_    0.654963 0.302731 0.043534 0.123700
H11   H     H_    0.732846 0.395516 0.980954 0.139456
H12   H     H_    0.651821 0.549514 0.065312 0.125890
H13   H     H_    0.722500 0.279574 0.905078 0.154843
H14   H     H_    0.630329 0.725498 0.038454 0.112779
H15   H     H_    0.514779 0.748858 0.088877 0.156399
H16   H     H_    0.567940 0.821476 0.969756 0.132675
H17   H     H_    0.481217 0.253235 0.906101 0.155218
H18   H     H_    0.368354 0.271501 0.971464 0.104669
H19   H     H_    0.437929 0.176825 0.028740 0.134009
H20   H     H_    0.690804 0.414160 0.200190 0.130042
H21   H     H_    0.756705 0.361734 0.316729 0.117299
H22   H     H_    0.809231 0.397150 0.169371 0.122661
H23   H     H_    0.770271 0.478541 0.704804 0.178333
H24   H     H_    0.260629 0.315167 0.641262 0.133525
H25   H     H_    0.164443 0.318843 0.749335 0.119703
H26   H     H_    0.274852 0.328238 0.806376 0.114727
H27   H     H_    0.848486 0.536923 0.996011 0.146387
H28   H     H_    0.859189 0.605672 0.854704 0.118305
H29   H     H_    0.957630 0.574620 0.942495 0.130276
H30   H     H_    0.124049 0.663855 0.044115 0.127400
H31   H     H_    0.124895 0.701982 0.205876 0.126515
H32   H     H_    0.020386 0.676980 0.128949 0.096295
H33   H     H_    0.228027 0.539139 0.311212 0.186657
H34   H     H_    0.073470 0.459140 0.818977 0.173465
H35   H     H_    0.925342 0.543961 0.195222 0.149582
H36   H     H_    0.416920 0.754085 0.664068 0.133062
H37   H     H_    0.582979 0.245977 0.335817 0.126497
H38   H     H_    0.583317 0.751129 0.336116 0.122693
N1    N     N_R   0.500000 0.743810 0.500000 -0.240940
N2    N     N_R   0.500000 0.256190 0.500000 -0.237641
O1    O     O_R   0.370260 0.582280 0.500030 -0.502739
O2    O     O_3   0.619283 0.374098 0.880905 -0.555537
O3    O     O_3   0.534684 0.683514 0.911553 -0.555094
O4    O     O_3   0.470030 0.315121 0.086786 -0.549532
O5    O     O_3   0.771618 0.514689 0.282063 -0.596751
O6    O     O_3   0.229542 0.452101 0.721942 -0.592167
O7    O     O_3   0.900180 0.459549 0.844657 -0.580921
O8    O     O_3   0.098749 0.555105 0.171168 -0.567526
O9    O     O_R   0.629740 0.417720 0.499970 -0.509159
O10   O     O_R   0.629740 0.582280 0.499970 -0.490597
O11   O     O_R   0.370260 0.417720 0.500030 -0.502538
O12   O     O_R   0.499980 0.582260 0.316850 -0.489448
O13   O     O_R   0.500020 0.417740 0.683150 -0.489240
O14   O     O_R   0.500020 0.582260 0.683150 -0.481237
O15   O     O_R   0.499980 0.417740 0.316850 -0.480597
O16   O     O_3   0.378775 0.624974 0.107235 -0.554283

loop_
_geom_bond_atom_site_label_1
_geom_bond_atom_site_label_2
_ccdc_geom_bond_type
C21   C26   S    
Cu2   O11   S    
C8    C13   A    
C23   C45   A    
C34   C37   A    
C11   C13   A    
C22   O3    S    
C43   O6    S    
C43   H26   S    
C7    C11   A    
C35   C37   A    
C9    C16   A    
C25   H1    S    
C24   O4    S    
C44   O7    S    
C41   O4    S    
C21   O2    S    
C10   C17   A    
C15   C16   A    
C33   C36   A    
C3    N1    A    
C39   H10   S    
C26   H12   S    
C18   O15   A    
Cu1   N1    S    
C46   H30   S    
C33   H23   S    
C7    C14   A    
Cu2   O15   S    
C20   C25   S    
C31   C33   A    
C19   C27   S    
C1    O11   A    
C5    H38   S    
C17   H6    S    
C41   H19   S    
C38   H9    S    
C48   C50   A    
C14   H3    S    
C21   C27   S    
C40   H14   S    
C39   H13   S    
C14   C17   A    
C6    H2    S    
C47   C50   A    
C2    C45   A    
Cu2   O9    S    
C42   H22   S    
Cu1   Cu2   S    
C32   C35   A    
C30   C47   A    
C44   H28   S    
C18   C28   S    
C24   C25   S    
C44   H29   S    
C42   O5    S    
C5    C7    A    
C6    C8    A    
C20   C28   S    
Cu1   O12   S    
C40   H15   S    
C1    C32   S    
C46   H31   S    
C29   C45   A    
Cu1   O10   S    
C39   O2    S    
C12   O10   A    
C3    C9    A    
C2    C49   A    
C37   C49   A    
C23   C34   A    
C42   H20   S    
C2    H35   S    
C18   O12   A    
C9    C11   A    
C5    N1    A    
Cu1   O1    S    
C46   H32   S    
C19   O13   A    
C20   C22   S    
Cu2   O13   S    
C8    C15   A    
C22   C27   S    
C12   C31   S    
C22   C26   S    
C38   H8    S    
Cu2   N2    S    
C43   H25   S    
C40   O3    S    
C4    C10   A    
C41   H17   S    
C4    H37   S    
C43   H24   S    
C48   O7    S    
C46   O8    S    
C42   H21   S    
C3    H36   S    
C44   H27   S    
C24   C28   S    
C10   C13   A    
C25   C27   S    
C39   H11   S    
C30   O6    S    
C26   C28   S    
C29   O5    S    
C15   H4    S    
C12   O9    A    
C29   C31   A    
C49   O8    S    
C30   C32   A    
C35   H33   S    
Cu1   O14   S    
C6    N2    A    
C36   C48   A    
C16   H5    S    
C38   O16   S    
C50   H34   S    
C38   H7    S    
C19   O14   A    
C1    O1    A    
C23   C36   A    
C40   H16   S    
C21   C24   S    
C34   C47   A    
C4    N2    A    
C41   H18   S    
C20   O16   S    
