data_mof_unit_28442.cif
_audit_creation_date              2012-12-10T17:10:23-0500
_audit_creation_method            fapswitch 2.2
_symmetry_space_group_name_H-M    P1
_symmetry_Int_Tables_number       1
_space_group_crystal_system       triclinic
_cell_length_a                    10.798211
_cell_length_b                    13.105943
_cell_length_c                    11.777958
_cell_angle_alpha                 99.7585
_cell_angle_beta                  96.604223
_cell_angle_gamma                 94.882397
_cell_volume                      1622.46561981

loop_
_atom_site_label
_atom_site_type_symbol
_atom_type_description
_atom_site_fract_x
_atom_site_fract_y
_atom_site_fract_z
_atom_type_partial_charge
C1    C     C_R   0.503771 0.299007 0.479071 0.846298
C2    C     C_R   0.495673 0.700489 0.521456 0.872344
C3    C     C_R   0.497690 0.814680 0.535146 -0.198698
C4    C     C_R   0.517966 0.185781 0.468090 -0.179461
C5    C     C_R   0.509298 0.014596 0.344554 0.297252
C6    C     C_R   0.578955 0.982938 0.650178 0.308276
C7    C     C_R   0.517646 0.123592 0.356982 0.047561
C8    C     C_R   0.538894 0.878178 0.644478 0.076669
C9    C     C_R   0.537379 0.138462 0.568136 0.237305
C10   C     C_R   0.471390 0.861047 0.436839 0.225437
C11   C     C_R   0.546163 0.030739 0.554237 -0.078409
C12   C     C_R   0.507762 0.967971 0.443794 -0.057157
C13   C     C_R   0.406517 0.380753 0.016565 0.080065
C14   C     C_R   0.612293 0.612612 0.981579 0.078487
C15   C     C_R   0.408789 0.395431 0.139557 0.285097
C16   C     C_R   0.606171 0.595634 0.858366 0.249336
C17   C     C_R   0.545251 0.552289 0.159873 0.329291
C18   C     C_R   0.447284 0.455528 0.842197 0.357745
C19   C     C_R   0.542610 0.541553 0.036336 -0.043973
C20   C     C_R   0.466177 0.458168 0.964677 -0.049921
C21   C     C_R   0.261649 0.507537 0.497023 0.804794
C22   C     C_R   0.736691 0.488618 0.502222 0.791144
C23   C     C_R   0.149253 0.620201 0.687725 -0.167537
C24   C     C_R   0.841383 0.362250 0.314731 -0.158914
C25   C     C_R   0.114009 0.633149 0.798735 0.090321
C26   C     C_R   0.881373 0.332734 0.207443 0.125739
C27   C     C_R   0.007858 0.572726 0.818905 0.258779
C28   C     C_R   0.994307 0.380841 0.184042 0.248857
C29   C     C_R   0.930409 0.507922 0.725000 0.122402
C30   C     C_R   0.069038 0.455850 0.272051 0.078572
C31   C     C_R   0.956226 0.510337 0.609372 0.002509
C32   C     C_R   0.039751 0.468521 0.388421 0.023282
C33   C     C_R   0.076938 0.550554 0.594703 -0.012871
C34   C     C_R   0.916740 0.433716 0.403735 -0.004850
C35   C     C_R   0.870532 0.469410 0.508275 -0.169771
C36   C     C_R   0.124681 0.517712 0.489289 -0.120836
Cu1   Cu    Cu3+1 0.509250 0.507730 0.615930 0.972391
Cu2   Cu    Cu3+1 0.490750 0.492270 0.384070 0.987683
H1    H     H_    0.234989 0.663530 0.674860 0.176265
H2    H     H_    0.752008 0.326299 0.329662 0.181646
N1    N     N_R   0.523180 0.519350 0.790130 -0.216102
N2    N     N_R   0.476820 0.480650 0.209870 -0.209871
O1    O     O_R   0.506570 0.354460 0.582000 -0.574549
O2    O     O_R   0.493430 0.645540 0.418000 -0.576124
O3    O     O_R   0.490940 0.341410 0.386200 -0.529279
O4    O     O_R   0.509060 0.658590 0.613800 -0.538226
O5    O     O_R   0.327470 0.506520 0.597900 -0.618564
O6    O     O_R   0.672530 0.493480 0.402100 -0.595803
O7    O     O_R   0.311840 0.493460 0.402100 -0.542439
O8    O     O_R   0.688160 0.506540 0.597900 -0.570452
Br1   Br    Br    0.043918 0.339844 0.032533 -0.531142
Br2   Br    Br    0.970740 0.577530 0.975177 -0.564663
N3    N     N_3   0.355398 0.283269 0.944419 -0.500040
H3    H     H_    0.259545 0.270649 0.948299 0.275662
H4    H     H_    0.400785 0.223210 0.973292 0.249323
N4    N     N_3   0.686396 0.703336 0.049427 -0.517892
H5    H     H_    0.649240 0.769519 0.027442 0.257358
H6    H     H_    0.778532 0.704436 0.030866 0.264869
N5    N     N_3   0.192942 0.702022 0.891261 -0.554731
H7    H     H_    0.138546 0.756222 0.931265 0.272154
H8    H     H_    0.227187 0.658472 0.952321 0.265300
N6    N     N_3   0.802236 0.257269 0.121414 -0.556682
H9    H     H_    0.777179 0.291497 0.049271 0.290959
H10   H     H_    0.852970 0.194755 0.095858 0.277084
N7    N     N_3   0.845903 0.426207 0.750445 -0.472173
H11   H     H_    0.812316 0.370711 0.676193 0.242986
H12   H     H_    0.770121 0.457993 0.784957 0.266628
N8    N     N_3   0.158580 0.531024 0.241524 -0.511616
H13   H     H_    0.172375 0.513841 0.154527 0.274242
H14   H     H_    0.121665 0.602690 0.253148 0.276193
Br3   Br    Br    0.340592 0.790074 0.315593 -0.474878
Br4   Br    Br    0.522749 0.210293 0.723815 -0.457426
N9    N     N_3   0.531353 0.837689 0.749837 -0.543530
H15   H     H_    0.553784 0.896188 0.823278 0.263220
H16   H     H_    0.437234 0.811654 0.750757 0.235580
N10   N     N_3   0.526366 0.170970 0.256583 -0.526726
H17   H     H_    0.609228 0.153311 0.223378 0.264895
H18   H     H_    0.450538 0.139184 0.193576 0.261409
Br5   Br    Br    0.526721 0.934206 0.194459 -0.503465
Br6   Br    Br    0.714395 0.045234 0.771237 -0.424169
N11   N     N_3   0.334337 0.398157 0.778610 -0.506138
H19   H     H_    0.266811 0.449698 0.769822 0.234198
H20   H     H_    0.348226 0.359002 0.697744 0.289603
N12   N     N_3   0.618126 0.641743 0.230480 -0.511034
H21   H     H_    0.560843 0.699334 0.254976 0.291314
H22   H     H_    0.676448 0.624628 0.299354 0.263847
N13   N     N_3   0.686151 0.659372 0.803492 -0.497754
H23   H     H_    0.778308 0.645867 0.826615 0.213996
H24   H     H_    0.680790 0.737363 0.836787 0.237474
N14   N     N_3   0.342184 0.320412 0.192525 -0.515484
H25   H     H_    0.300360 0.254904 0.133540 0.203650
H26   H     H_    0.269248 0.355013 0.228570 0.255861

loop_
_geom_bond_atom_site_label_1
_geom_bond_atom_site_label_2
_ccdc_geom_bond_type
C14   N4    S    
N13   H23   S    
C4    C9    A    
C27   C29   A    
N9    H15   S    
C22   O6    A    
C19   C20   A    
C9    Br4   S    
C18   N11   S    
C21   O7    A    
N11   H19   S    
C21   C36   S    
N3    H3    S    
C2    O4    A    
C22   C35   S    
Cu1   Cu2   S    
C32   C36   A    
C24   C26   A    
Cu2   N2    S    
C28   Br1   S    
C33   C36   A    
N4    H5    S    
C34   C35   A    
C17   N2    A    
Cu2   O3    S    
N6    H10   S    
C17   C19   A    
N14   H26   S    
C1    O1    A    
C2    O2    A    
N8    H13   S    
C23   C33   A    
C16   N13   S    
C31   C33   A    
Cu1   O5    S    
Cu2   O6    S    
C22   O8    A    
C10   Br3   S    
N5    H7    S    
N9    H16   S    
C4    C7    A    
N11   H20   S    
C13   N3    S    
N3    H4    S    
N5    H8    S    
N10   H17   S    
C5    C12   A    
C3    C8    A    
C18   N1    A    
C6    C11   A    
C5    C7    A    
C6    C8    A    
N7    H12   S    
C24   C34   A    
C32   C34   A    
Cu1   O1    S    
Cu2   O2    S    
N6    H9    S    
C6    Br6   S    
N12   H21   S    
C9    C11   A    
C10   C12   A    
C29   N7    S    
C13   C15   A    
C14   C16   A    
C5    Br5   S    
Cu2   O7    S    
C27   Br2   S    
C13   C20   A    
C14   C19   A    
C15   N2    A    
N10   H18   S    
C11   C12   A    
C7    N10   S    
C25   C27   A    
C26   C28   A    
C1    C4    S    
C17   N12   S    
C28   C30   A    
C2    C3    S    
C26   N6    S    
C29   C31   A    
C3    C10   A    
C15   N14   S    
C30   C32   A    
Cu1   O8    S    
C1    O3    A    
N14   H25   S    
C23   H1    S    
C31   C35   A    
C8    N9    S    
C24   H2    S    
N4    H6    S    
C18   C20   A    
C23   C25   A    
Cu1   N1    S    
N8    H14   S    
N7    H11   S    
N13   H24   S    
N12   H22   S    
C25   N5    S    
Cu1   O4    S    
C16   N1    A    
C30   N8    S    
C21   O5    A    
