data_mof_unit_52184.cif
_audit_creation_date              2012-12-10T16:47:51-0500
_audit_creation_method            fapswitch 2.2
_symmetry_space_group_name_H-M    P1
_symmetry_Int_Tables_number       1
_space_group_crystal_system       triclinic
_cell_length_a                    7.800569
_cell_length_b                    8.577079
_cell_length_c                    10.695628
_cell_angle_alpha                 91.267916
_cell_angle_beta                  86.562411
_cell_angle_gamma                 93.460136
_cell_volume                      712.889938438

loop_
_atom_site_label
_atom_site_type_symbol
_atom_type_description
_atom_site_fract_x
_atom_site_fract_y
_atom_site_fract_z
_atom_type_partial_charge
C1    C     C_R   0.545453 0.794504 0.496160 0.956694
C2    C     C_2   0.569348 0.957942 0.493227 -0.381091
C3    C     C_3   0.949036 0.281830 0.309560 0.205169
C4    C     C_3   0.028828 0.132408 0.260092 -0.368051
C5    C     C_3   0.951336 0.074337 0.138618 -0.896742
C6    C     C_2   0.430502 0.042022 0.502933 -0.370046
C7    C     C_R   0.504377 0.505090 0.736838 0.902787
C8    C     C_R   0.454485 0.205485 0.502442 0.949595
C9    C     C_R   0.495307 0.490259 0.262593 0.841610
C10   C     C_2   0.627252 0.443360 0.058722 -0.262346
C11   C     C_2   0.482345 0.455512 0.131665 0.225228
C12   C     C_2   0.623975 0.433605 0.924438 -0.104638
C13   C     C_2   0.517064 0.520140 0.867835 -0.236599
Cl1   Cl    Cl    0.273524 0.410023 0.078520 -0.688793
H1    H     H_    0.753468 0.450295 0.096770 0.163530
H2    H     H_    0.005597 0.039977 0.331448 0.212398
H3    H     H_    0.811031 0.045955 0.154988 0.250286
H4    H     H_    0.013540 0.967143 0.104336 0.276050
H5    H     H_    0.972250 0.164616 0.065538 0.296279
H6    H     H_    0.712741 0.359843 0.872253 0.173197
H7    H     H_    0.435562 0.601529 0.918394 0.185630
H8    H     H_    0.700647 0.008569 0.483847 0.184054
H9    H     H_    0.299175 0.991411 0.511940 0.184021
H10   H     H_    0.991308 0.632864 0.579757 0.146741
H11   H     H_    0.972771 0.375368 0.239277 0.177089
H12   H     H_    0.809722 0.254720 0.323958 0.167253
H13   H     H_    0.170159 0.154056 0.243656 0.262976
N1    N     N_2   0.950320 0.457950 0.466680 0.098226
N2    N     N_2   0.049680 0.542050 0.533320 -0.080052
O1    O     O_R   0.389250 0.738570 0.508180 -0.624550
O2    O     O_R   0.678390 0.711630 0.486820 -0.643798
O3    O     O_R   0.355470 0.513470 0.691600 -0.599543
O4    O     O_R   0.644610 0.486520 0.670240 -0.632766
O5    O     O_R   0.321610 0.288370 0.513180 -0.556493
O6    O     O_R   0.610750 0.261430 0.491820 -0.636347
O7    O     O_R   0.355390 0.513480 0.329760 -0.553212
O8    O     O_R   0.644530 0.486530 0.308400 -0.685150
O9    O     O_3   0.023599 0.328364 0.421684 -0.522137
Zn1   Zn    Zn3+2 0.306940 0.517990 0.514260 1.026574
Zn2   Zn    Zn3+2 0.693060 0.482010 0.485740 0.956963

loop_
_geom_bond_atom_site_label_1
_geom_bond_atom_site_label_2
_ccdc_geom_bond_type
C2    H8    S    
C9    O7    A    
C4    H2    S    
C5    H5    S    
C7    O4    A    
N1    O9    S    
N2    Zn1   S    
C9    O8    A    
O6    Zn2   S    
C13   H7    S    
C8    O5    A    
C12   C13   D    
C9    C11   S    
C12   H6    S    
C2    C6    D    
C10   C12   S    
C3    H11   S    
C6    H9    S    
N1    N2    D    
O1    Zn1   S    
O8    Zn2   S    
C10   H1    S    
C3    H12   S    
C1    O2    A    
C7    O3    A    
C11   Cl1   S    
O4    Zn2   S    
C5    H3    S    
C10   C11   D    
N1    Zn2   S    
C3    C4    S    
C7    C13   S    
C4    H13   S    
O2    Zn2   S    
C1    C2    S    
O3    Zn1   S    
H10   N2    S    
C1    O1    A    
C6    C8    S    
C5    H4    S    
O7    Zn1   S    
O5    Zn1   S    
C3    O9    S    
C4    C5    S    
C8    O6    A    
