data_mof_unit_13283.cif
_audit_creation_date              2012-12-10T17:18:18-0500
_audit_creation_method            fapswitch 2.2
_symmetry_space_group_name_H-M    P1
_symmetry_Int_Tables_number       1
_space_group_crystal_system       triclinic
_cell_length_a                    10.196726
_cell_length_b                    10.887041
_cell_length_c                    14.958012
_cell_angle_alpha                 92.951424
_cell_angle_beta                  80.54317
_cell_angle_gamma                 95.096057
_cell_volume                      1630.32917466

loop_
_atom_site_label
_atom_site_type_symbol
_atom_type_description
_atom_site_fract_x
_atom_site_fract_y
_atom_site_fract_z
_atom_type_partial_charge
C1    C     C_R   0.554444 0.732895 0.498081 0.916750
C2    C     C_2   0.072724 0.488998 0.492548 -0.061908
C3    C     C_R   0.500097 0.504213 0.673527 0.951433
C4    C     C_R   0.500589 0.496497 0.326762 1.004355
C5    C     C_R   0.520493 0.384423 0.178308 0.385162
C6    C     C_R   0.513962 0.617821 0.819977 0.331848
C7    C     C_R   0.507917 0.496522 0.229702 -0.249071
C8    C     C_R   0.500332 0.505121 0.770478 -0.205917
C9    C     C_R   0.525506 0.611523 0.188685 -0.131816
C10   C     C_R   0.503357 0.392044 0.810326 -0.124704
C11   C     C_R   0.554020 0.615948 0.093394 0.046529
C12   C     C_R   0.445234 0.268506 0.510032 0.974910
C13   C     C_R   0.537840 0.390428 0.897367 0.042601
C14   C     C_R   0.551797 0.502860 0.041684 0.009027
C15   C     C_R   0.548881 0.503381 0.947989 0.026431
C16   C     C_R   0.546280 0.388704 0.083464 -0.018868
C17   C     C_R   0.547723 0.616703 0.906904 -0.033242
C18   C     C_R   0.584822 0.727576 0.046303 -0.030314
C19   C     C_R   0.562416 0.280891 0.936426 -0.049717
C20   C     C_1   0.503970 0.722373 0.245968 0.195480
C21   C     C_1   0.440854 0.282329 0.770508 0.195242
C22   C     C_1   0.626112 0.844426 0.087858 0.196389
C23   C     C_R   0.582848 0.725984 0.953705 -0.177031
C24   C     C_1   0.592802 0.168876 0.883679 0.227622
C25   C     C_1   0.613900 0.126463 0.593703 0.307462
C26   C     C_1   0.351363 0.890124 0.592707 0.392919
C27   C     C_1   0.304008 0.081283 0.477706 0.265518
C28   C     C_1   0.710191 0.919423 0.464533 0.229046
C29   C     C_1   0.119858 0.394745 0.426791 0.287418
C30   C     C_1   0.878565 0.607561 0.571769 0.283311
C31   C     C_R   0.567784 0.281572 0.028478 -0.123794
C32   C     C_2   0.580805 0.866205 0.506827 -0.181271
C33   C     C_2   0.417228 0.137205 0.517053 -0.220505
C34   C     C_2   0.483820 0.937273 0.549906 -0.046624
C35   C     C_2   0.503407 0.070661 0.550877 -0.113906
C36   C     C_2   0.926889 0.512164 0.507162 -0.046834
H1    H     H_    0.610191 0.810926 0.918192 0.224901
H2    H     H_    0.588912 0.197096 0.056203 0.221004
H3    H     H_    0.122545 0.617657 0.584211 0.188035
H4    H     H_    0.876772 0.380646 0.417042 0.181398
H5    H     H_    0.401068 0.057185 0.202933 0.393287
H6    H     H_    0.336601 0.818027 0.904020 0.366211
N1    N     N_2   0.842700 0.448880 0.462930 -0.212639
N2    N     N_1   0.813450 0.961728 0.430712 -0.148512
N3    N     N_1   0.155155 0.318717 0.373656 -0.113571
N4    N     N_1   0.840658 0.684184 0.623671 -0.157774
N5    N     N_2   0.157300 0.551120 0.537070 -0.211297
N6    N     N_1   0.486061 0.809985 0.292071 -0.185558
N7    N     N_1   0.387815 0.195316 0.740360 -0.178817
N8    N     N_1   0.659838 0.938305 0.120298 -0.122362
N9    N     N_1   0.617999 0.079325 0.841700 -0.089466
N10   N     N_1   0.701919 0.170542 0.627557 -0.177731
N11   N     N_1   0.244045 0.856045 0.624890 -0.146426
N12   N     N_1   0.213882 0.036972 0.446183 -0.151002
O1    O     O_R   0.431060 0.692470 0.507460 -0.615068
O2    O     O_2   0.417712 0.249734 0.325502 -0.335638
O3    O     O_3   0.403620 0.136296 0.172526 -0.553161
O4    O     O_2   0.566308 0.810454 0.712007 -0.310657
O5    O     O_2   0.336279 0.716439 0.739191 -0.305735
O6    O     O_3   0.414870 0.858248 0.864934 -0.536601
O7    O     O_R   0.568940 0.307530 0.492540 -0.598569
O8    O     O_R   0.651120 0.659650 0.483670 -0.615239
O9    O     O_R   0.348880 0.340350 0.516330 -0.612881
O10   O     O_R   0.389960 0.516440 0.644050 -0.568833
O11   O     O_R   0.610040 0.483560 0.355950 -0.596603
O12   O     O_R   0.610030 0.483620 0.620260 -0.630298
O13   O     O_R   0.389970 0.516380 0.379740 -0.608312
O14   O     O_2   0.626119 0.190939 0.235028 -0.298289
S1    S     S_3+6 0.493270 0.238565 0.231417 0.008841
S2    S     S_3+6 0.458116 0.752981 0.781355 0.003221
Zn1   Zn    Zn3+2 0.353060 0.521920 0.515880 1.025446
Zn2   Zn    Zn3+2 0.646940 0.478080 0.484120 1.014763

loop_
_geom_bond_atom_site_label_1
_geom_bond_atom_site_label_2
_ccdc_geom_bond_type
O1    Zn1   S    
C4    O13   A    
C5    S1    S    
C11   C18   A    
C6    S2    S    
N1    Zn2   S    
C18   C22   S    
C30   C36   S    
C2    N5    D    
C12   O9    A    
O11   Zn2   S    
C5    C7    A    
C9    C20   S    
C31   H2    S    
O6    S2    S    
C22   N8    T    
C19   C31   A    
C1    O8    A    
C2    C36   S    
C24   N9    T    
C21   N7    T    
C19   C24   S    
C1    O1    A    
C25   N10   T    
H5    O3    S    
C20   N6    T    
C3    O10   A    
C27   C33   S    
C16   C31   A    
C12   O7    A    
C9    C11   A    
O2    S1    D    
N5    Zn1   S    
C17   C23   A    
C25   C35   S    
C4    C7    S    
O7    Zn2   S    
H3    N5    S    
C33   C35   D    
C26   C34   S    
C34   C35   S    
O13   Zn1   S    
C13   C15   A    
C10   C21   S    
C4    O11   A    
C11   C14   A    
C14   C16   A    
C27   N12   T    
C3    O12   A    
C29   N3    T    
C13   C19   A    
O5    S2    D    
O8    Zn2   S    
C18   C23   A    
C26   N11   T    
C7    C9    A    
C28   C32   S    
C2    C29   S    
C28   N2    T    
C8    C10   A    
C3    C8    S    
O10   Zn1   S    
H6    O6    S    
C15   C17   A    
C6    C17   A    
C14   C15   A    
O4    S2    D    
C36   N1    D    
C6    C8    A    
O3    S1    S    
C12   C33   S    
C23   H1    S    
C30   N4    T    
H4    N1    S    
O12   Zn2   S    
C1    C32   S    
O9    Zn1   S    
O14   S1    D    
C5    C16   A    
C10   C13   A    
C32   C34   D    
