data_mof_unit_10578.cif
_audit_creation_date              2012-12-10T18:42:28-0500
_audit_creation_method            fapswitch 2.2
_symmetry_space_group_name_H-M    P1
_symmetry_Int_Tables_number       1
_space_group_crystal_system       triclinic
_cell_length_a                    8.574985
_cell_length_b                    10.600512
_cell_length_c                    9.930245
_cell_angle_alpha                 90.747027
_cell_angle_beta                  99.129492
_cell_angle_gamma                 90.925847
_cell_volume                      890.989448307

loop_
_atom_site_label
_atom_site_type_symbol
_atom_type_description
_atom_site_fract_x
_atom_site_fract_y
_atom_site_fract_z
_atom_type_partial_charge
C1    C     C_R   0.501318 0.260680 0.499428 0.995574
C2    C     C_R   0.498684 0.739321 0.500572 0.995568
C3    C     C_R   0.201253 0.499731 0.463936 0.964225
C4    C     C_R   0.798747 0.500269 0.536064 0.964223
C5    C     C_2   0.035597 0.499599 0.444933 -0.328067
C6    C     C_2   0.964403 0.500401 0.555067 -0.328066
C7    C     C_R   0.364327 0.064241 0.442102 0.606298
C8    C     C_R   0.635677 0.935762 0.557898 0.606299
C9    C     C_R   0.359350 0.933844 0.443262 -0.028934
C10   C     C_R   0.640656 0.066158 0.556733 -0.028927
C11   C     C_R   0.496651 0.871837 0.501487 -0.274281
C12   C     C_R   0.503353 0.128166 0.498513 -0.274283
C13   C     C_R   0.611700 0.566770 0.089613 0.644236
C14   C     C_R   0.388300 0.433229 0.910387 0.644239
C15   C     C_R   0.613393 0.566779 0.946349 -0.050589
C16   C     C_R   0.386608 0.433220 0.053650 -0.050591
H1    H     H_    0.972820 0.498782 0.340746 0.209482
H2    H     H_    0.027180 0.501218 0.659254 0.209482
N1    N     N_R   0.499960 0.499970 0.857200 -0.166069
N2    N     N_R   0.500040 0.500030 0.142800 -0.166068
O1    O     O_R   0.499990 0.316750 0.614620 -0.578552
O2    O     O_R   0.500010 0.683250 0.385380 -0.578555
O3    O     O_R   0.499990 0.316780 0.385290 -0.626451
O4    O     O_R   0.500010 0.683220 0.614710 -0.626448
O5    O     O_R   0.271750 0.499990 0.587840 -0.561591
O6    O     O_R   0.728250 0.500010 0.412160 -0.561591
O7    O     O_R   0.271750 0.500010 0.358510 -0.641351
O8    O     O_R   0.728250 0.499990 0.641490 -0.641354
Zn1   Zn    Zn3+2 0.500000 0.499980 0.653120 1.010455
Zn2   Zn    Zn3+2 0.500000 0.500020 0.346880 1.010453
F1    F     F_    0.234356 0.129830 0.388881 -0.679324
F2    F     F_    0.765645 0.870170 0.611121 -0.679324
C17   C     C_3   0.209244 0.861812 0.385911 -0.704260
H3    H     H_    0.171783 0.801622 0.466180 0.220578
H4    H     H_    0.110356 0.925185 0.348884 0.291090
H5    H     H_    0.229823 0.801073 0.298772 0.230848
C18   C     C_3   0.790772 0.138188 0.614064 -0.704260
H6    H     H_    0.828231 0.198367 0.533787 0.220583
H7    H     H_    0.770216 0.198938 0.701202 0.230841
H8    H     H_    0.889659 0.074813 0.651089 0.291090
F3    F     F_    0.722696 0.633184 0.175984 -0.653023
F4    F     F_    0.277305 0.366815 0.824016 -0.653024
C19   C     C_3   0.745799 0.637191 0.895802 -0.639451
H9    H     H_    0.701406 0.694735 0.806820 0.283612
H10   H     H_    0.808285 0.703970 0.973888 0.247706
H11   H     H_    0.834609 0.569450 0.871136 0.227843
C20   C     C_3   0.254204 0.362806 0.104199 -0.639453
H12   H     H_    0.298601 0.305256 0.193174 0.283610
H13   H     H_    0.165398 0.430545 0.128872 0.227847
H14   H     H_    0.191713 0.296032 0.026110 0.247705

loop_
_geom_bond_atom_site_label_1
_geom_bond_atom_site_label_2
_ccdc_geom_bond_type
C2    O2    A    
C4    O6    A    
C19   H9    S    
C1    O1    A    
C18   H6    S    
C20   H13   S    
C9    C11   A    
C20   H12   S    
C13   C15   A    
C16   N2    A    
C20   H14   S    
C14   F4    S    
C1    O3    A    
C13   F3    S    
C17   H3    S    
C15   C19   S    
C18   H7    S    
N2    Zn2   S    
O7    Zn2   S    
C9    C17   S    
C19   H10   S    
C5    C6    D    
C1    C12   S    
C10   C12   A    
C8    C11   A    
C2    C11   S    
C16   C20   S    
C3    O7    A    
O8    Zn1   S    
C4    O8    A    
O6    Zn2   S    
C18   H8    S    
C10   C18   S    
C2    O4    A    
C7    C12   A    
C6    H2    S    
C19   H11   S    
C14   C16   A    
C4    C6    S    
C5    H1    S    
C8    F2    S    
O3    Zn2   S    
C3    O5    A    
C17   H5    S    
C7    F1    S    
O5    Zn1   S    
C8    C10   A    
C7    C9    A    
O4    Zn1   S    
O2    Zn2   S    
C13   N2    A    
C17   H4    S    
C15   N1    A    
O1    Zn1   S    
C14   N1    A    
C3    C5    S    
N1    Zn1   S    
