data_mof_unit_24315.cif
_audit_creation_date              2012-12-11T18:11:25-0500
_audit_creation_method            fapswitch 2.2
_symmetry_space_group_name_H-M    P1
_symmetry_Int_Tables_number       1
_space_group_crystal_system       triclinic
_cell_length_a                    8.276926
_cell_length_b                    12.90043
_cell_length_c                    18.743203
_cell_angle_alpha                 100.988688
_cell_angle_beta                  90.694756
_cell_angle_gamma                 99.136923
_cell_volume                      1937.84357988

loop_
_atom_site_label
_atom_site_type_symbol
_atom_type_description
_atom_site_fract_x
_atom_site_fract_y
_atom_site_fract_z
_atom_type_partial_charge
Ba1   Ba    Ba6+2 0.852780 0.548340 0.465070 1.679715
Ba2   Ba    Ba6+2 0.337060 0.451750 0.534940 1.685870
C1    C     C_3   0.622859 0.885963 0.224640 -0.335876
C2    C     C_R   0.895774 0.385873 0.094151 -0.085234
C3    C     C_R   0.764756 0.408962 0.952014 -0.084770
C4    C     C_3   0.091647 0.739362 0.266797 0.366373
C5    C     C_R   0.929153 0.447954 0.975904 0.035319
C6    C     C_R   0.708793 0.411357 0.882274 -0.090890
C7    C     C_R   0.814094 0.451486 0.832244 -0.028344
C8    C     C_R   0.976432 0.499484 0.855784 -0.063115
C9    C     C_R   0.033832 0.498135 0.928186 0.018989
C10   C     C_R   0.761051 0.445348 0.759498 -0.007881
C11   C     C_R   0.870164 0.483819 0.710329 -0.298585
C12   C     C_3   0.596874 0.799674 0.270060 0.267142
C13   C     C_R   0.026310 0.540747 0.732973 0.044439
C14   C     C_R   0.079430 0.551344 0.807896 -0.113404
C15   C     C_R   0.151683 0.491341 0.070424 0.034243
C16   C     C_3   0.058534 0.751965 0.188538 -0.196158
C17   C     C_R   0.209080 0.493051 0.143106 -0.004319
C18   C     C_R   0.105189 0.445934 0.192329 -0.060147
C19   C     C_R   0.953314 0.386489 0.164631 -0.003652
C20   C     C_R   0.229099 0.613158 0.838137 0.616433
C21   C     C_R   0.286480 0.608928 0.907558 -0.118230
C22   C     C_R   0.195152 0.547398 0.952418 -0.068750
C23   C     C_3   0.549364 0.235258 0.303021 0.268496
C24   C     C_R   0.256807 0.539633 0.022298 0.048298
C25   C     C_R   0.422685 0.575851 0.045039 -0.109624
C26   C     C_R   0.371745 0.540483 0.166246 -0.029143
C27   C     C_R   0.478710 0.575932 0.115215 -0.105399
C28   C     C_3   0.278691 0.805924 0.653454 0.794426
C29   C     C_R   0.422010 0.552089 0.239968 -0.004374
C30   C     C_R   0.310245 0.521001 0.290046 -0.282238
C31   C     C_R   0.157715 0.460209 0.267166 0.061506
C32   C     C_R   0.760165 0.183152 0.534172 -0.226730
C33   C     C_R   0.434546 0.807890 0.469988 -0.201966
C34   C     C_3   0.540136 0.170562 0.224194 0.429481
C35   C     C_R   0.398410 0.983707 0.453436 -0.101632
C36   C     C_R   0.341252 0.874619 0.444185 -0.023869
C37   C     C_R   0.579387 0.849881 0.511846 0.110647
C38   C     C_R   0.638985 0.962702 0.522917 -0.084709
C39   C     C_R   0.547303 0.029813 0.491753 -0.052983
C40   C     C_3   0.407751 0.870834 0.710118 -0.181819
C41   C     C_R   0.609964 0.140567 0.497295 0.054544
C42   C     C_R   0.852510 0.118710 0.563554 -0.002635
C43   C     C_R   0.790300 0.009990 0.560298 -0.117972
C44   C     C_3   0.975816 0.204712 0.362944 0.352654
C45   C     C_3   0.063802 0.241767 0.735663 0.364228
C46   C     C_3   0.943621 0.087797 0.325857 -0.118898
C47   C     C_3   0.736697 0.705468 0.680356 0.310590
C48   C     C_3   0.792416 0.746691 0.759999 -0.380804
C49   C     C_3   0.879329 0.017694 0.378095 -0.432000
C50   C     C_3   0.095042 0.054289 0.287504 -0.315582
C51   C     C_3   0.443814 0.321535 0.304635 -0.373501
C52   C     C_3   0.210370 0.804355 0.155789 -0.444086
C53   C     C_3   0.195634 0.883170 0.619250 -0.304345
C54   C     C_3   0.079662 0.217044 0.811384 -0.339002
C55   C     C_3   0.556789 0.186776 0.714854 0.500231
C56   C     C_3   0.632290 0.141397 0.774188 0.469800
C57   C     C_R   0.989630 0.442267 0.046720 -0.000598
F1    F     F_    0.686965 0.137679 0.205620 -0.740479
F2    F     F_    0.511956 0.103664 0.817708 -0.705421
F3    F     F_    0.321182 0.682239 0.803153 -0.727589
F4    F     F_    0.349157 0.742643 0.599552 -0.751262
H1    H     H_    0.617588 0.835803 0.328738 0.018841
H2    H     H_    0.559909 0.953074 0.249091 0.119259
H3    H     H_    0.908483 0.804377 0.764101 0.139706
H4    H     H_    0.811724 0.679697 0.786473 0.061225
H5    H     H_    0.698738 0.787582 0.790261 0.147748
H6    H     H_    0.467423 0.761214 0.260638 -0.023632
H7    H     H_    0.573423 0.852983 0.168180 0.117047
H8    H     H_    0.677180 0.271843 0.318203 0.109494
H9    H     H_    0.441759 0.099611 0.217284 0.034809
H10   H     H_    0.512254 0.218879 0.183786 0.006640
H11   H     H_    0.755161 0.914942 0.221655 0.139389
H12   H     H_    0.466895 0.816350 0.736606 0.167472
H13   H     H_    0.143796 0.319125 0.734385 0.081717
H14   H     H_    0.934412 0.249384 0.724913 -0.095003
H15   H     H_    0.209333 0.213998 0.825256 0.190600
H16   H     H_    0.036977 0.279978 0.852146 0.065427
H17   H     H_    0.004076 0.138615 0.813675 0.118273
H18   H     H_    0.655327 0.213899 0.679550 -0.290234
H19   H     H_    0.470670 0.121512 0.679939 0.034671
H20   H     H_    0.721885 0.204615 0.808558 -0.003911
H21   H     H_    0.696846 0.075147 0.749290 -0.042925
H22   H     H_    0.988168 0.682295 0.280629 0.118380
H23   H     H_    0.501711 0.921566 0.684482 0.038145
H24   H     H_    0.828543 0.475726 0.654307 0.056751
H25   H     H_    0.581234 0.379894 0.868246 0.114146
H26   H     H_    0.874574 0.341335 0.197308 0.149733
H27   H     H_    0.606788 0.606169 0.128880 0.114513
H28   H     H_    0.349138 0.535063 0.346876 0.069405
H29   H     H_    0.674325 0.377465 0.986585 0.082123
H30   H     H_    0.776906 0.338806 0.078094 0.084379
H31   H     H_    0.401924 0.659115 0.926144 0.100452
H32   H     H_    0.204503 0.704579 0.270054 -0.053049
H33   H     H_    0.513530 0.603369 0.009119 0.075451
H34   H     H_    0.349444 0.923003 0.752802 0.131499
H35   H     H_    0.322916 0.031827 0.431598 0.114594
H36   H     H_    0.864851 0.962832 0.583994 0.103005
H37   H     H_    0.811119 0.266205 0.535597 0.050358
H38   H     H_    0.388129 0.722955 0.461408 0.101043
H39   H     H_    0.015323 0.671754 0.154299 0.088704
H40   H     H_    0.959842 0.800362 0.186745 0.148096
H41   H     H_    0.957164 0.040155 0.428808 0.156477
H42   H     H_    0.752421 0.028852 0.389533 0.085142
H43   H     H_    0.874160 0.932816 0.352537 0.204088
H44   H     H_    0.147351 0.112215 0.253787 0.121393
H45   H     H_    0.869274 0.226418 0.394416 -0.071135
H46   H     H_    0.190894 0.047744 0.327297 0.147190
H47   H     H_    0.058745 0.977293 0.249341 0.143798
H48   H     H_    0.496285 0.373479 0.267346 0.049488
H49   H     H_    0.316901 0.284678 0.285552 0.055524
H50   H     H_    0.441623 0.371822 0.359200 0.138564
H51   H     H_    0.263160 0.882056 0.190886 0.144330
H52   H     H_    0.303180 0.750639 0.149218 0.131610
H53   H     H_    0.177352 0.818495 0.101265 0.142619
H54   H     H_    0.124655 0.838191 0.570012 0.154471
H55   H     H_    0.112919 0.922813 0.657825 0.088057
H56   H     H_    0.086896 0.221645 0.399350 0.060531
H57   H     H_    0.287583 0.945560 0.602473 0.063542
H58   H     H_    0.846034 0.077901 0.283662 0.212503
H59   H     H_    0.835738 0.669332 0.651126 0.002735
H60   H     H_    0.625667 0.643781 0.677384 0.087139
O1    O     O_2   0.873090 0.425890 0.325140 -0.473568
O2    O     O_2   0.187840 0.121815 0.549191 -0.484743
O3    O     O_3   0.112579 0.159014 0.684686 -0.585064
O4    O     O_3   0.122420 0.434370 0.414380 -0.498038
O5    O     O_3   0.578370 0.633800 0.536380 -0.439933
O6    O     O_2   0.341510 0.231850 0.465510 -0.456785
O7    O     O_3   0.492387 0.166175 0.350113 -0.674029
O8    O     O_2   0.429158 0.465199 0.756806 -0.487071
O9    O     O_3   0.467290 0.266520 0.747077 -0.593956
O10   O     O_3   0.659500 0.627100 0.368810 -0.477990
O11   O     O_2   0.751977 0.531815 0.241647 -0.506906
O12   O     O_3   0.701334 0.791600 0.650775 -0.627667
O13   O     O_3   0.997321 0.258687 0.305946 -0.634043
O14   O     O_3   0.707210 0.728372 0.249118 -0.611064
O15   O     O_2   0.848200 0.768190 0.534530 -0.481202
O16   O     O_3   0.081160 0.685950 0.404810 -0.481361
O17   O     O_2   0.007572 0.873716 0.450225 -0.492273
O18   O     O_3   0.103816 0.838481 0.315106 -0.636322
O19   O     O_2   0.316610 0.574140 0.674900 -0.384759
O20   O     O_3   0.067290 0.565720 0.585630 -0.472776
O21   O     O_3   0.530210 0.372990 0.631200 -0.458986
O22   O     O_3   0.162092 0.745396 0.689088 -0.631560
O23   O     O_3   0.611340 0.366290 0.463630 -0.487524
O24   O     O_3   0.108550 0.314140 0.595200 -0.492903
P1    P     P_3+3 0.041040 0.394770 0.336330 0.965228
P2    P     P_3+3 0.672880 0.754030 0.556100 1.059851
P3    P     P_3+3 0.135420 0.819981 0.404146 0.928788
P4    P     P_3+3 0.148670 0.605320 0.663680 1.144205
P5    P     P_3+3 0.064195 0.177389 0.597351 0.961475
P6    P     P_3+3 0.633430 0.607224 0.274752 0.922291
P7    P     P_3+3 0.523247 0.227425 0.443052 0.922742
P8    P     P_3+3 0.548557 0.389605 0.725029 0.968126

loop_
_geom_bond_atom_site_label_1
_geom_bond_atom_site_label_2
_ccdc_geom_bond_type
C25   C27   A    
Ba2   O21   S    
C55   O9    S    
C17   C18   A    
Ba1   O5    S    
O9    P8    S    
C13   P4    S    
Ba1   O23   S    
C19   H26   S    
C5    C9    A    
O1    P1    D    
C40   H12   S    
C42   P5    S    
C54   H16   S    
C45   O3    S    
O10   P6    S    
C15   C24   A    
C26   C27   A    
O2    P5    D    
C23   C51   S    
C45   H13   S    
O6    P7    D    
C30   H28   S    
C13   C14   A    
C47   H60   S    
C9    C22   A    
Ba2   O6    S    
C54   H15   S    
Ba1   Ba2   S    
C16   H39   S    
C1    H11   S    
C27   H27   S    
O3    P5    S    
C46   C49   S    
C50   H44   S    
C6    C7    A    
C44   H45   S    
C32   H37   S    
C21   C22   A    
Ba1   P2    S    
C23   H8    S    
C41   P7    S    
C48   H4    S    
Ba1   O16   S    
O4    P1    S    
Ba2   O4    S    
C51   H48   S    
C56   F2    S    
O20   P4    S    
C47   O12   S    
C28   F4    S    
Ba2   O20   S    
C39   C41   A    
C25   H33   S    
C1    H2    S    
Ba1   O10   S    
C23   O7    S    
C7    C8    A    
C5    C57   A    
C35   H35   S    
C29   P6    S    
C51   H50   S    
O18   P3    S    
C53   H57   S    
O15   P2    D    
C38   C43   A    
C4    C16   S    
C44   C46   S    
C33   C36   A    
C32   C42   A    
C43   H36   S    
C40   H34   S    
C37   C38   A    
C3    C5    A    
C34   F1    S    
C49   H41   S    
O12   P2    S    
C52   H53   S    
C6    H25   S    
O19   P4    D    
C33   C37   A    
C35   C36   A    
Ba1   O20   S    
C31   P1    S    
C56   H21   S    
C20   F3    S    
C29   C30   A    
O23   P7    S    
C12   O14   S    
C50   H47   S    
C49   H42   S    
C12   H1    S    
C52   H52   S    
C11   H24   S    
C24   C25   A    
O14   P6    S    
O7    P7    S    
O13   P1    S    
C1    H7    S    
C18   C19   A    
C4    O18   S    
C17   C26   A    
C48   H3    S    
O22   P4    S    
C1    C12   S    
C15   C57   A    
C40   H23   S    
C18   C31   A    
C51   H49   S    
C38   C39   A    
C4    H32   S    
C11   C13   A    
Ba2   O19   S    
C12   H6    S    
C55   H18   S    
C45   H14   S    
C10   P8    S    
O17   P3    D    
C46   H58   S    
C42   C43   A    
C28   O22   S    
C53   H54   S    
Ba2   P4    S    
C14   C20   A    
C55   H19   S    
C26   C29   A    
C32   C41   A    
Ba1   O4    S    
C22   C24   A    
C33   H38   S    
C3    C6    A    
Ba2   O23   S    
C28   C53   S    
C37   P2    S    
O16   P3    S    
C54   H17   S    
C21   H31   S    
C30   C31   A    
O21   P8    S    
O8    P8    D    
O24   P5    S    
Ba2   O24   S    
Ba1   O1    S    
C8    C14   A    
C56   H20   S    
C2    C19   A    
C55   C56   S    
C50   H46   S    
C49   H43   S    
C47   H59   S    
C52   H51   S    
C2    C57   A    
C15   C17   A    
C44   H56   S    
C16   H40   S    
C35   C39   A    
C7    C10   A    
C3    H29   S    
C8    C9    A    
C16   C52   S    
C23   C34   S    
C44   O13   S    
C2    H30   S    
O11   P6    D    
O5    P2    S    
C46   C50   S    
C10   C11   A    
C47   C48   S    
C4    H22   S    
C20   C21   A    
C28   C40   S    
Ba1   P1    S    
C48   H5    S    
C34   H10   S    
C36   P3    S    
Ba1   O15   S    
C34   H9    S    
C45   C54   S    
C53   H55   S    
Ba2   O5    S    
