data_mof_unit_32460.cif
_audit_creation_date              2012-12-10T17:18:54-0500
_audit_creation_method            fapswitch 2.2
_symmetry_space_group_name_H-M    P1
_symmetry_Int_Tables_number       1
_space_group_crystal_system       triclinic
_cell_length_a                    10.224315
_cell_length_b                    10.710839
_cell_length_c                    13.543872
_cell_angle_alpha                 91.873693
_cell_angle_beta                  99.535167
_cell_angle_gamma                 96.010531
_cell_volume                      1452.77530068

loop_
_atom_site_label
_atom_site_type_symbol
_atom_type_description
_atom_site_fract_x
_atom_site_fract_y
_atom_site_fract_z
_atom_type_partial_charge
Br1   Br    Br    0.757382 0.060557 0.548966 -0.398434
Br2   Br    Br    0.258402 0.942562 0.487317 -0.400883
Br3   Br    Br    0.670802 0.679307 0.638732 -0.414512
Br4   Br    Br    0.329230 0.319808 0.361969 -0.447466
C1    C     C_R   0.051872 0.732850 0.489851 0.867314
C2    C     C_2   0.984180 0.062977 0.446442 -0.178885
C3    C     C_2   0.430479 0.510439 0.508217 0.005036
C4    C     C_2   0.569495 0.489871 0.491511 -0.002944
C5    C     C_R   0.092839 0.513490 0.685887 0.899496
C6    C     C_R   0.907141 0.486436 0.314112 0.866701
C7    C     C_R   0.142736 0.526648 0.793145 -0.079634
C8    C     C_R   0.857121 0.472761 0.206899 -0.071527
C9    C     C_R   0.139352 0.612963 0.960052 0.102404
C10   C     C_R   0.860334 0.385549 0.040232 0.101325
C11   C     C_R   0.079921 0.591817 0.859224 -0.243430
C12   C     C_R   0.944990 0.266540 0.502850 0.863956
C13   C     C_R   0.919921 0.407293 0.140983 -0.252144
C14   C     C_R   0.263588 0.482156 0.826945 -0.234082
C15   C     C_R   0.736062 0.516822 0.173041 -0.239897
C16   C     C_R   0.333553 0.514232 0.923112 0.031105
C17   C     C_R   0.665967 0.484077 0.077021 0.031486
C18   C     C_R   0.266547 0.571844 0.993730 0.143685
C19   C     C_R   0.732986 0.426316 0.006501 0.143767
C20   C     C_R   0.468221 0.489094 0.949761 0.063449
C21   C     C_R   0.531204 0.508872 0.050398 0.063191
C22   C     C_R   0.456192 0.548589 0.122388 -0.250691
C23   C     C_R   0.543200 0.449102 0.877826 -0.246111
C24   C     C_R   0.328087 0.583651 0.095053 0.082827
C25   C     C_R   0.671318 0.414069 0.905215 0.080482
C26   C     C_2   0.076902 0.865020 0.471571 0.098360
C27   C     C_2   0.907528 0.131940 0.492292 0.100201
C28   C     C_2   0.970336 0.928122 0.448205 -0.182299
H1    H     H_    0.697742 0.577164 0.223998 0.163306
H2    H     H_    0.418229 0.582695 0.562631 0.179584
H3    H     H_    0.252425 0.554660 0.222404 0.220035
H4    H     H_    0.317851 0.704186 0.210964 0.214498
H5    H     H_    0.746826 0.442537 0.777735 0.219644
H6    H     H_    0.681481 0.293087 0.789572 0.223408
H7    H     H_    0.061686 0.770290 0.997145 0.202105
H8    H     H_    0.977556 0.635147 0.024090 0.200081
H9    H     H_    0.022021 0.363346 0.976073 0.200745
H10   H     H_    0.938374 0.228245 0.003606 0.201239
H11   H     H_    0.301814 0.422020 0.775805 0.167967
H12   H     H_    0.014185 0.371729 0.167595 0.182599
H13   H     H_    0.985773 0.627627 0.832681 0.185281
H14   H     H_    0.493164 0.551665 0.201840 0.163467
H15   H     H_    0.506248 0.445746 0.798374 0.164298
H16   H     H_    0.067481 0.106981 0.414781 0.224293
H17   H     H_    0.869446 0.880689 0.439252 0.212456
H18   H     H_    0.581713 0.417954 0.436810 0.179204
N1    N     N_2   0.322180 0.446120 0.460900 -0.001326
N2    N     N_2   0.677820 0.553880 0.539100 -0.003429
N3    N     N_3   0.259875 0.626017 0.172084 -0.417971
N4    N     N_3   0.739458 0.371392 0.828246 -0.412449
N5    N     N_3   0.072949 0.681758 0.025619 -0.420963
N6    N     N_3   0.926771 0.316559 0.974814 -0.416408
O1    O     O_R   0.935190 0.693030 0.507870 -0.588165
O2    O     O_R   0.064810 0.306970 0.492130 -0.588692
O3    O     O_R   0.142080 0.658430 0.482770 -0.586050
O4    O     O_R   0.857920 0.341570 0.517230 -0.584412
O5    O     O_R   0.969700 0.527180 0.651960 -0.588335
O6    O     O_R   0.030300 0.472820 0.348040 -0.597652
O7    O     O_R   0.176600 0.492580 0.626860 -0.618792
O8    O     O_R   0.823400 0.507420 0.373140 -0.628412
Zn1   Zn    Zn3+2 0.861850 0.523100 0.516760 1.023779
Zn2   Zn    Zn3+2 0.138150 0.476900 0.483240 1.023221

loop_
_geom_bond_atom_site_label_1
_geom_bond_atom_site_label_2
_ccdc_geom_bond_type
C10   C19   A    
C9    C18   A    
C10   N6    S    
Br3   N2    S    
H9    N6    S    
O5    Zn1   S    
C23   C25   A    
C4    N2    D    
C22   C24   A    
H6    N4    S    
C20   C23   A    
C1    O1    A    
Br2   C26   S    
H8    N5    S    
O1    Zn1   S    
O8    Zn1   S    
C9    N5    S    
C17   C19   A    
C2    C27   D    
C12   O2    A    
C13   H12   S    
C3    N1    D    
C3    C4    S    
C7    C14   A    
C18   C24   A    
C14   H11   S    
C12   C27   S    
C26   C28   D    
C5    C7    S    
C10   C13   A    
C6    O6    A    
C6    C8    S    
C5    O5    A    
H5    N4    S    
C19   C25   A    
C8    C15   A    
C15   C17   A    
C16   C18   A    
O4    Zn1   S    
C14   C16   A    
C9    C11   A    
O3    Zn2   S    
C15   H1    S    
C3    H2    S    
C6    O8    A    
C28   H17   S    
O7    Zn2   S    
H3    N3    S    
C25   N4    S    
C1    O3    A    
Br4   N1    S    
C4    H18   S    
C8    C13   A    
Br1   C27   S    
O6    Zn2   S    
C20   C21   A    
C1    C26   S    
C12   O4    A    
C23   H15   S    
C11   H13   S    
C17   C21   A    
H4    N3    S    
H10   N6    S    
C21   C22   A    
C5    O7    A    
C22   H14   S    
C7    C11   A    
O2    Zn2   S    
H7    N5    S    
N2    Zn1   S    
C16   C20   A    
C24   N3    S    
C2    C28   S    
N1    Zn2   S    
C2    H16   S    
