data_mof_unit_15017.cif
_audit_creation_date              2012-12-11T16:26:06-0500
_audit_creation_method            fapswitch 2.2
_symmetry_space_group_name_H-M    P1
_symmetry_Int_Tables_number       1
_space_group_crystal_system       monoclinic
_cell_length_a                    14.000384
_cell_length_b                    14.000384
_cell_length_c                    31.915847
_cell_angle_alpha                 90.0
_cell_angle_beta                  90.0
_cell_angle_gamma                 120.00024
_cell_volume                      5417.7112063

loop_
_atom_site_label
_atom_site_type_symbol
_atom_type_description
_atom_site_fract_x
_atom_site_fract_y
_atom_site_fract_z
_atom_type_partial_charge
C1    C     C_R   0.567758 0.443989 0.810555 0.546215
C2    C     C_R   0.876230 0.432242 0.689445 0.546214
C3    C     C_R   0.556011 0.123769 0.810555 0.546214
C4    C     C_R   0.567758 0.443989 0.689445 0.546215
C5    C     C_R   0.876230 0.432242 0.810555 0.546214
C6    C     C_R   0.556011 0.123769 0.689445 0.546215
C7    C     C_R   0.443989 0.567758 0.310555 0.546215
C8    C     C_R   0.432242 0.876231 0.189445 0.546214
C9    C     C_R   0.123769 0.556011 0.310555 0.546214
C10   C     C_R   0.443989 0.567758 0.189445 0.546215
C11   C     C_R   0.432242 0.876231 0.310555 0.546214
C12   C     C_R   0.123769 0.556011 0.189445 0.546214
C13   C     C_1   0.003281 0.520123 0.018745 0.076544
C14   C     C_1   0.516842 0.996720 0.481254 0.076544
C15   C     C_1   0.479876 0.483158 0.018745 0.076543
C16   C     C_1   0.003280 0.520122 0.481254 0.076544
C17   C     C_1   0.516841 0.996717 0.018745 0.076544
C18   C     C_1   0.479878 0.483157 0.481254 0.076543
C19   C     C_1   0.520126 0.003287 0.518745 0.076544
C20   C     C_1   0.996714 0.516839 0.981255 0.076544
C21   C     C_1   0.483162 0.479873 0.518745 0.076544
C22   C     C_1   0.520125 0.003285 0.981255 0.076544
C23   C     C_1   0.996712 0.516838 0.518745 0.076544
C24   C     C_1   0.483161 0.479875 0.981255 0.076544
C25   C     C_R   0.931083 0.470618 0.851511 -0.040495
C26   C     C_R   0.539535 0.068918 0.648489 -0.040494
C27   C     C_R   0.529382 0.460464 0.851511 -0.040495
C28   C     C_R   0.931082 0.470618 0.648489 -0.040495
C29   C     C_R   0.539535 0.068917 0.851511 -0.040494
C30   C     C_R   0.529382 0.460464 0.648489 -0.040494
C31   C     C_R   0.470619 0.931084 0.351510 -0.040495
C32   C     C_R   0.068916 0.539535 0.148490 -0.040494
C33   C     C_R   0.460465 0.529381 0.351510 -0.040495
C34   C     C_R   0.470619 0.931083 0.148489 -0.040495
C35   C     C_R   0.068916 0.539535 0.351510 -0.040495
C36   C     C_R   0.460465 0.529381 0.148489 -0.040495
C37   C     C_R   0.928925 0.558263 0.872105 -0.107153
C38   C     C_R   0.629337 0.071074 0.627896 -0.107153
C39   C     C_R   0.441737 0.370662 0.872105 -0.107153
C40   C     C_R   0.928925 0.558263 0.627895 -0.107153
C41   C     C_R   0.629337 0.071074 0.872104 -0.107154
C42   C     C_R   0.441737 0.370662 0.627895 -0.107153
C43   C     C_R   0.558263 0.928926 0.372104 -0.107153
C44   C     C_R   0.071074 0.629337 0.127896 -0.107153
C45   C     C_R   0.370662 0.441736 0.372104 -0.107152
C46   C     C_R   0.558263 0.928926 0.127895 -0.107153
C47   C     C_R   0.071074 0.629337 0.372104 -0.107153
C48   C     C_R   0.370662 0.441736 0.127896 -0.107153
C49   C     C_R   0.955774 0.578824 0.914899 0.132633
C50   C     C_R   0.623049 0.044225 0.585101 0.132632
C51   C     C_R   0.421176 0.376950 0.914899 0.132633
C52   C     C_R   0.955774 0.578824 0.585101 0.132632
C53   C     C_R   0.623049 0.044225 0.914899 0.132632
C54   C     C_R   0.421176 0.376949 0.585101 0.132631
C55   C     C_R   0.578825 0.955776 0.414899 0.132634
C56   C     C_R   0.044223 0.623049 0.085101 0.132633
C57   C     C_R   0.376951 0.421174 0.414899 0.132635
C58   C     C_R   0.578825 0.955776 0.085101 0.132634
C59   C     C_R   0.044223 0.623048 0.414899 0.132634
C60   C     C_R   0.376950 0.421174 0.085101 0.132634
C61   C     C_R   0.986077 0.510146 0.936533 0.067332
C62   C     C_R   0.524069 0.013924 0.563467 0.067332
C63   C     C_R   0.489854 0.475931 0.936533 0.067333
C64   C     C_R   0.986076 0.510145 0.563467 0.067332
C65   C     C_R   0.524068 0.013922 0.936532 0.067332
C66   C     C_R   0.489855 0.475930 0.563467 0.067333
C67   C     C_R   0.510149 0.986082 0.436532 0.067333
C68   C     C_R   0.013919 0.524067 0.063468 0.067333
C69   C     C_R   0.475933 0.489851 0.436532 0.067333
C70   C     C_R   0.510148 0.986080 0.063468 0.067333
C71   C     C_R   0.013917 0.524066 0.436532 0.067333
C72   C     C_R   0.475932 0.489852 0.063468 0.067333
C73   C     C_R   0.999313 0.430041 0.914968 0.155687
C74   C     C_R   0.430727 0.000689 0.585031 0.155687
C75   C     C_R   0.569959 0.569273 0.914968 0.155687
C76   C     C_R   0.999311 0.430039 0.585031 0.155687
C77   C     C_R   0.430727 0.000686 0.914968 0.155687
C78   C     C_R   0.569961 0.569272 0.585031 0.155687
C79   C     C_R   0.430045 0.999319 0.414967 0.155687
C80   C     C_R   0.000682 0.430726 0.085032 0.155687
C81   C     C_R   0.569275 0.569956 0.414967 0.155687
C82   C     C_R   0.430043 0.999317 0.085032 0.155687
C83   C     C_R   0.000680 0.430725 0.414967 0.155687
C84   C     C_R   0.569274 0.569957 0.085032 0.155687
C85   C     C_R   0.971265 0.410249 0.872735 -0.114256
C86   C     C_R   0.438984 0.028737 0.627265 -0.114255
C87   C     C_R   0.589752 0.561016 0.872735 -0.114256
C88   C     C_R   0.971263 0.410248 0.627265 -0.114256
C89   C     C_R   0.438983 0.028735 0.872735 -0.114256
C90   C     C_R   0.589752 0.561016 0.627265 -0.114256
C91   C     C_R   0.410252 0.971269 0.372734 -0.114257
C92   C     C_R   0.028732 0.438982 0.127265 -0.114257
C93   C     C_R   0.561018 0.589749 0.372734 -0.114257
C94   C     C_R   0.410250 0.971267 0.127265 -0.114257
C95   C     C_R   0.028731 0.438982 0.372734 -0.114258
C96   C     C_R   0.561017 0.589750 0.127265 -0.114257
Cr1   Cr    Cr6+3 0.504240 0.249200 0.750000 1.014794
Cr2   Cr    Cr6+3 0.744960 0.495760 0.750000 1.014794
Cr3   Cr    Cr6+3 0.750800 0.255040 0.750000 1.014794
Cr4   Cr    Cr6+3 0.249200 0.504240 0.250000 1.014795
Cr5   Cr    Cr6+3 0.495760 0.744960 0.250000 1.014795
Cr6   Cr    Cr6+3 0.255040 0.750800 0.250000 1.014795
H1    H     H_    0.899198 0.605388 0.855372 0.135661
H2    H     H_    0.706190 0.100801 0.644629 0.135661
H3    H     H_    0.394612 0.293809 0.855372 0.135660
H4    H     H_    0.899198 0.605389 0.644628 0.135661
H5    H     H_    0.706190 0.100802 0.855371 0.135661
H6    H     H_    0.394611 0.293809 0.644628 0.135661
H7    H     H_    0.605387 0.899196 0.355372 0.135661
H8    H     H_    0.100803 0.706191 0.144628 0.135661
H9    H     H_    0.293809 0.394612 0.355372 0.135660
H10   H     H_    0.605388 0.899197 0.144628 0.135661
H11   H     H_    0.100804 0.706191 0.355372 0.135661
H12   H     H_    0.293809 0.394612 0.144628 0.135660
H13   H     H_    0.024155 0.368077 0.142843 0.153137
H14   H     H_    0.343924 0.975847 0.357156 0.153138
H15   H     H_    0.631923 0.656079 0.142843 0.153137
H16   H     H_    0.024153 0.368076 0.357156 0.153137
H17   H     H_    0.343922 0.975845 0.142843 0.153138
H18   H     H_    0.631923 0.656077 0.357156 0.153137
H19   H     H_    0.368078 0.024160 0.642842 0.153137
H20   H     H_    0.975842 0.343920 0.857157 0.153137
H21   H     H_    0.656081 0.631922 0.642843 0.153137
H22   H     H_    0.368078 0.024158 0.857157 0.153137
H23   H     H_    0.975840 0.343919 0.642843 0.153137
H24   H     H_    0.656080 0.631922 0.857157 0.153137
O1    O     O_R   0.480350 0.140770 0.796330 -0.516678
O2    O     O_R   0.660420 0.519650 0.703670 -0.516678
O3    O     O_R   0.859230 0.339580 0.796330 -0.516677
O4    O     O_R   0.480350 0.140770 0.703670 -0.516678
O5    O     O_R   0.660420 0.519650 0.796330 -0.516678
O6    O     O_R   0.859230 0.339580 0.703670 -0.516677
O7    O     O_R   0.140770 0.480350 0.296330 -0.516677
O8    O     O_R   0.519650 0.660420 0.203670 -0.516677
O9    O     O_R   0.339580 0.859230 0.296330 -0.516677
O10   O     O_R   0.140770 0.480350 0.203670 -0.516677
O11   O     O_R   0.519650 0.660420 0.296330 -0.516677
O12   O     O_R   0.339580 0.859230 0.203670 -0.516677
O13   O     O_R   0.514930 0.348530 0.793250 -0.499635
O14   O     O_R   0.833600 0.485070 0.706750 -0.499635
O15   O     O_R   0.651470 0.166400 0.793250 -0.499634
O16   O     O_R   0.514930 0.348530 0.706750 -0.499635
O17   O     O_R   0.833600 0.485070 0.793250 -0.499635
O18   O     O_R   0.651470 0.166400 0.706750 -0.499634
O19   O     O_R   0.348530 0.514930 0.293250 -0.499634
O20   O     O_R   0.485070 0.833600 0.206750 -0.499635
O21   O     O_R   0.166400 0.651470 0.293250 -0.499635
O22   O     O_R   0.348530 0.514930 0.206750 -0.499634
O23   O     O_R   0.485070 0.833600 0.293250 -0.499635
O24   O     O_R   0.166400 0.651470 0.206750 -0.499635
O25   O     O_3   0.666667 0.333333 0.750000 -0.230047
O26   O     O_3   0.333333 0.666667 0.250000 -0.230048
N1    N     N_2   0.051015 0.715285 0.062910 -0.495023
H25   H     H_    0.092399 0.733956 0.034691 0.285892
C97   C     C_3   0.060920 0.809130 0.085750 -0.249937
H26   H     H_    0.051184 0.865116 0.063744 0.190881
H27   H     H_    0.143467 0.855536 0.100624 0.160574
H28   H     H_    0.995128 0.781548 0.109866 0.161120
N2    N     N_2   0.664270 0.948984 0.437090 -0.495023
H29   H     H_    0.641555 0.907601 0.465309 0.285891
C98   C     C_3   0.748209 0.939078 0.414251 -0.249937
H30   H     H_    0.813930 0.948813 0.436256 0.190881
H31   H     H_    0.786419 0.004869 0.390135 0.161120
H32   H     H_    0.712066 0.856530 0.399377 0.160574
N3    N     N_2   0.284714 0.335728 0.062910 -0.495023
H33   H     H_    0.266045 0.358441 0.034691 0.285892
C99   C     C_3   0.190868 0.251790 0.085750 -0.249938
H34   H     H_    0.134881 0.186068 0.063744 0.190880
H35   H     H_    0.144463 0.287932 0.100623 0.160575
H36   H     H_    0.218449 0.213580 0.109866 0.161119
N4    N     N_2   0.051015 0.715285 0.437090 -0.495022
H37   H     H_    0.092398 0.733954 0.465309 0.285891
C100  C     C_3   0.060923 0.809131 0.414250 -0.249937
H38   H     H_    0.051188 0.865117 0.436256 0.190881
H39   H     H_    0.995132 0.781551 0.390134 0.161120
H40   H     H_    0.143471 0.855536 0.399377 0.160575
N5    N     N_2   0.664270 0.948985 0.062910 -0.495023
H41   H     H_    0.641556 0.907600 0.034691 0.285892
C101  C     C_3   0.748210 0.939080 0.085750 -0.249936
H42   H     H_    0.813932 0.948816 0.063744 0.190881
H43   H     H_    0.712069 0.856534 0.100624 0.160573
H44   H     H_    0.786420 0.004872 0.109865 0.161120
N6    N     N_2   0.284714 0.335728 0.437089 -0.495021
H45   H     H_    0.266047 0.358440 0.465310 0.285890
C102  C     C_3   0.190867 0.251791 0.414250 -0.249937
H46   H     H_    0.134880 0.186069 0.436256 0.190880
H47   H     H_    0.218445 0.213581 0.390133 0.161118
H48   H     H_    0.144463 0.287936 0.399377 0.160576
N7    N     N_2   0.715285 0.051015 0.562910 -0.495024
H49   H     H_    0.733959 0.092402 0.534692 0.285895
C103  C     C_3   0.809126 0.060913 0.585750 -0.249938
H50   H     H_    0.865111 0.051175 0.563744 0.190880
H51   H     H_    0.781540 0.995119 0.609865 0.161122
H52   H     H_    0.855535 0.143458 0.600625 0.160573
N8    N     N_2   0.948984 0.664270 0.937090 -0.495024
H53   H     H_    0.907597 0.641555 0.965309 0.285894
C104  C     C_3   0.939084 0.748212 0.914250 -0.249938
H54   H     H_    0.948820 0.813934 0.936256 0.190881
H55   H     H_    0.856538 0.712073 0.899375 0.160573
H56   H     H_    0.004877 0.786421 0.890135 0.161121
N9    N     N_2   0.335730 0.284713 0.562910 -0.495026
H57   H     H_    0.358446 0.266038 0.534692 0.285895
C105  C     C_3   0.251785 0.190872 0.585750 -0.249938
H58   H     H_    0.186063 0.134887 0.563744 0.190880
H59   H     H_    0.213578 0.218460 0.609864 0.161123
H60   H     H_    0.287921 0.144463 0.600625 0.160572
N10   N     N_2   0.715286 0.051015 0.937090 -0.495024
H61   H     H_    0.733958 0.092402 0.965308 0.285894
C106  C     C_3   0.809128 0.060915 0.914250 -0.249938
H62   H     H_    0.865113 0.051178 0.936256 0.190881
H63   H     H_    0.855535 0.143461 0.899375 0.160573
H64   H     H_    0.781542 0.995122 0.890134 0.161121
N11   N     N_2   0.948984 0.664270 0.562910 -0.495025
H65   H     H_    0.907596 0.641555 0.534691 0.285895
C107  C     C_3   0.939086 0.748213 0.585750 -0.249937
H66   H     H_    0.948823 0.813935 0.563744 0.190881
H67   H     H_    0.004880 0.786421 0.609865 0.161121
H68   H     H_    0.856541 0.712076 0.600625 0.160572
N12   N     N_2   0.335729 0.284713 0.937090 -0.495024
H69   H     H_    0.358444 0.266041 0.965309 0.285894
C108  C     C_3   0.251787 0.190871 0.914250 -0.249937
H70   H     H_    0.186065 0.134885 0.936256 0.190880
H71   H     H_    0.287925 0.144463 0.899375 0.160573
H72   H     H_    0.213579 0.218456 0.890135 0.161121
Br1   Br    Br    0.949035 0.291409 0.057457 -0.511555
Br2   Br    Br    0.342376 0.050968 0.442543 -0.511551
Br3   Br    Br    0.708590 0.657627 0.057456 -0.511554
Br4   Br    Br    0.949031 0.291408 0.442543 -0.511553
Br5   Br    Br    0.342373 0.050963 0.057457 -0.511553
Br6   Br    Br    0.708592 0.657625 0.442543 -0.511553
Br7   Br    Br    0.291413 0.949047 0.557455 -0.511559
Br8   Br    Br    0.050957 0.342369 0.942544 -0.511556
Br9   Br    Br    0.657633 0.708587 0.557455 -0.511559
Br10  Br    Br    0.291411 0.949042 0.942544 -0.511557
Br11  Br    Br    0.050954 0.342367 0.557455 -0.511559
Br12  Br    Br    0.657631 0.708589 0.942544 -0.511557

loop_
_geom_bond_atom_site_label_1
_geom_bond_atom_site_label_2
_ccdc_geom_bond_type
C68   C80   A    
C44   H8    S    
C39   C51   A    
C105  H58   S    
N3    H33   S    
C82   C94   A    
C46   H10   S    
Cr2   O17   S    
C97   H27   S    
C18   C21   T    
C33   C45   A    
N9    H57   S    
C3    O15   A    
Cr1   O1    S    
C35   C47   A    
C29   C89   A    
C98   H30   S    
N9    C105  S    
C99   H35   S    
C32   C92   A    
N11   H65   S    
C78   C90   A    
C15   C72   S    
N4    C100  S    
C45   C57   A    
C108  H70   S    
C31   C43   A    
Cr3   O6    S    
C40   H4    S    
Cr1   O4    S    
C108  H72   S    
C107  H67   S    
C4    O16   A    
C21   C66   S    
C3    O1    A    
C5    O17   A    
C60   C72   A    
C19   C62   S    
C106  H64   S    
C37   C49   A    
C91   H14   S    
C8    O12   A    
Cr6   O12   S    
Cr5   O23   S    
C20   C61   S    
C104  H55   S    
C50   N7    S    
C44   C56   A    
Cr6   O9    S    
C52   N11   S    
C38   H2    S    
C25   C37   A    
C11   O23   A    
C27   C39   A    
N5    C101  S    
N12   H69   S    
Cr2   O5    S    
C28   C88   A    
C2    O6    A    
C14   C67   S    
N2    C98   S    
C34   C46   A    
C93   H18   S    
C80   Br1   S    
N1    C97   S    
C53   C65   A    
C76   C88   A    
C79   Br2   S    
C79   C91   A    
C1    O13   A    
C51   C63   A    
C6    O4    A    
Cr2   O25   S    
C101  H44   S    
C64   C76   A    
C18   C69   S    
Cr2   O2    S    
C11   C31   S    
C17   C70   S    
N3    C99   S    
C100  H38   S    
C46   C58   A    
C97   H28   S    
C7    C33   S    
N7    H49   S    
C16   C71   S    
C59   N4    S    
C98   H31   S    
C48   C60   A    
C99   H36   S    
C71   C83   A    
C83   Br4   S    
N11   C107  S    
C95   H16   S    
Cr1   O25   S    
C66   C78   A    
C105  H60   S    
C8    O20   A    
Cr5   O20   S    
C49   C61   A    
C38   C50   A    
Cr3   O3    S    
C28   C40   A    
C9    C35   S    
N10   H61   S    
Cr5   O8    S    
C101  H43   S    
C12   O24   A    
C96   H15   S    
C75   Br12  S    
C67   C79   A    
C52   C64   A    
C107  H68   S    
C99   H34   S    
C7    O11   A    
C4    O2    A    
C58   C70   A    
C102  H48   S    
N8    H53   S    
C49   N8    S    
C61   C73   A    
C56   C68   A    
Cr3   O25   S    
C9    O21   A    
Cr4   O26   S    
C103  H50   S    
Cr2   O14   S    
Cr3   O18   S    
C80   C92   A    
C104  H56   S    
C107  H66   S    
C103  H51   S    
C22   C65   S    
C88   H23   S    
C11   O9    A    
Cr6   O21   S    
N12   C108  S    
C65   C77   A    
C105  H59   S    
C94   H17   S    
C36   C96   A    
C55   C67   A    
N2    H29   S    
Cr4   O19   S    
C26   C86   A    
C62   C74   A    
C83   C95   A    
C86   H19   S    
C25   C85   A    
C106  H62   S    
C32   C44   A    
N6    H45   S    
C85   H20   S    
C8    C34   S    
C74   C86   A    
C27   C87   A    
N4    H37   S    
C41   C53   A    
C72   C84   A    
C100  H39   S    
Cr6   O24   S    
C69   C81   A    
C5    C25   S    
C75   C87   A    
C15   C24   T    
C82   Br5   S    
C16   C23   T    
C31   C91   A    
C81   Br6   S    
C50   C62   A    
N8    C104  S    
C5    O3    A    
C6    O18   A    
C84   C96   A    
C57   N6    S    
C98   H32   S    
Cr4   O7    S    
C48   H12   S    
Cr6   O26   S    
C73   C85   A    
C100  H40   S    
C43   C55   A    
C47   H11   S    
C23   C64   S    
Cr5   O11   S    
C41   H5    S    
C13   C20   T    
C29   C41   A    
C81   C93   A    
C77   C89   A    
C14   C19   T    
Cr3   O15   S    
C26   C38   A    
C34   C94   A    
N10   C106  S    
C56   N1    S    
C1    O5    A    
C33   C93   A    
C58   N5    S    
C39   H3    S    
C37   H1    S    
C45   H9    S    
C73   Br8   S    
C54   C66   A    
C89   H22   S    
C35   C95   A    
C24   C63   S    
C54   N9    S    
Cr5   O26   S    
C60   N3    S    
C74   Br7   S    
C2    O14   A    
C90   H21   S    
C103  H52   S    
C108  H71   S    
C40   C52   A    
C42   C54   A    
C3    C29   S    
C102  H46   S    
C6    C26   S    
C63   C75   A    
Cr4   O22   S    
C78   Br9   S    
C55   N2    S    
C77   Br10  S    
C53   N10   S    
C10   C36   S    
C36   C48   A    
C76   Br11  S    
C87   H24   S    
C104  H54   S    
C70   C82   A    
C92   H13   S    
C4    C30   S    
Cr1   O16   S    
C102  H47   S    
C47   C59   A    
C101  H42   S    
C10   O8    A    
C17   C22   T    
N6    C102  S    
N5    H41   S    
C12   O10   A    
C59   C71   A    
C97   H26   S    
C1    C27   S    
C51   N12   S    
C106  H63   S    
C30   C42   A    
C2    C28   S    
C43   H7    S    
C57   C69   A    
N1    H25   S    
C84   Br3   S    
C42   H6    S    
Cr1   O13   S    
C30   C90   A    
C12   C32   S    
Cr4   O10   S    
C10   O22   A    
N7    C103  S    
C7    O19   A    
C13   C68   S    
C9    O7    A    
