data_mof_unit_65243.cif
_audit_creation_date              2013-03-05T16:23:47-0500
_audit_creation_method            fapswitch 2.2
_symmetry_space_group_name_H-M    P1
_symmetry_Int_Tables_number       1
_space_group_crystal_system       triclinic
_cell_length_a                    18.920639
_cell_length_b                    18.928431
_cell_length_c                    18.703396
_cell_angle_alpha                 109.536608
_cell_angle_beta                  109.482341
_cell_angle_gamma                 109.862855
_cell_volume                      5126.37121796

loop_
_atom_site_label
_atom_site_type_symbol
_atom_site_description
_atom_site_fract_x
_atom_site_fract_y
_atom_site_fract_z
_atom_type_partial_charge
O1    O     O_R   0.090190 0.947810 0.538000 -0.579935
O2    O     O_R   0.090150 0.052180 0.642350 -0.586354
C1    C     C_R   0.116460 0.998439 0.619426 0.764190
O3    O     O_R   0.090200 0.037990 0.447830 -0.580575
O4    O     O_R   0.090160 0.142360 0.552180 -0.587300
C2    C     C_R   0.117203 0.118730 0.498183 0.801925
Cu1   Cu    Cu3+1 0.000020 0.938200 0.438220 1.008443
Cu2   Cu    Cu3+1 0.999980 0.061800 0.561780 0.982185
O5    O     O_R   0.909850 0.947820 0.357650 -0.568334
O6    O     O_R   0.909810 0.052190 0.462000 -0.581022
O7    O     O_R   0.909840 0.857640 0.447820 -0.571578
O8    O     O_R   0.909800 0.962010 0.552170 -0.589122
C3    C     C_R   0.881487 0.999746 0.380901 0.792451
C4    C     C_R   0.881354 0.881427 0.500003 0.780959
C5    C     C_R   0.044442 0.946620 0.207783 -0.043441
C6    C     C_R   0.114966 0.019479 0.290235 0.211131
C7    C     C_R   0.107755 0.092452 0.330839 0.020904
C8    C     C_R   0.030896 0.092226 0.290080 -0.247128
H1    H     H_    0.024959 0.147906 0.320933 0.142790
C9    C     C_R   0.961567 0.021145 0.209254 -0.105436
H2    H     H_    0.902893 0.023260 0.179938 0.184460
C10   C     C_R   0.967049 0.948013 0.166883 -0.046012
C11   C     C_R   0.248302 0.234673 0.417038 -0.056607
C12   C     C_R   0.314058 0.312447 0.497801 -0.094080
C13   C     C_R   0.312323 0.326581 0.576000 -0.015725
C14   C     C_R   0.246667 0.262662 0.574028 -0.221062
H3    H     H_    0.246273 0.273380 0.634585 0.167000
C15   C     C_R   0.182106 0.185150 0.495405 -0.085125
C16   C     C_R   0.181096 0.171289 0.415882 -0.066364
C17   C     C_R   0.455741 0.423679 0.716082 -0.119526
H4    H     H_    0.472387 0.373593 0.697498 0.153880
C18   C     C_R   0.515065 0.502114 0.796029 0.188048
C19   C     C_R   0.493403 0.567298 0.820936 0.194270
C20   C     C_R   0.412068 0.552297 0.764806 -0.184950
H5    H     H_    0.393813 0.601075 0.782921 0.161034
C21   C     C_R   0.353762 0.474355 0.684720 -0.202865
H6    H     H_    0.291594 0.464147 0.642101 0.158022
C22   C     C_R   0.375322 0.409763 0.659959 0.038528
C23   C     C_R   0.258682 0.013589 0.689975 0.084938
C24   C     C_R   0.181469 0.999724 0.689250 -0.169242
C25   C     C_R   0.175093 0.002928 0.763849 -0.066289
C26   C     C_R   0.242406 0.006216 0.831161 -0.062408
C27   C     C_R   0.315211 0.008916 0.823160 -0.192554
C28   C     C_R   0.324457 0.018902 0.755871 0.046593
C29   C     C_3   0.345995 0.970327 0.693358 -0.196572
C30   C     C_3   0.273863 0.965564 0.620625 -0.503206
H7    H     H_    0.331664 0.905919 0.687010 0.153511
H8    H     H_    0.296584 0.004406 0.591320 0.189369
H9    H     H_    0.218236 0.898083 0.572105 0.213370
C31   C     C_R   0.820292 0.746064 0.503623 -0.023458
C32   C     C_R   0.814200 0.815601 0.499389 -0.060302
C33   C     C_R   0.740313 0.820292 0.495598 -0.185116
H10   H     H_    0.732472 0.873323 0.492031 0.154951
C34   C     C_R   0.675046 0.754911 0.494648 -0.196336
H11   H     H_    0.618249 0.758987 0.490679 0.162000
C35   C     C_R   0.684539 0.685872 0.500471 -0.093960
C36   C     C_R   0.759067 0.684903 0.505863 0.065943
C37   C     C_3   0.805953 0.635410 0.511234 0.283659
C38   C     C_3   0.876702 0.706254 0.509388 -0.135768
H12   H     H_    0.882294 0.682389 0.449623 0.170831
C39   C     C_R   0.729829 0.931008 0.264884 0.007678
C40   C     C_R   0.815502 0.000167 0.314592 -0.078871
C41   C     C_R   0.833787 0.075847 0.308978 -0.209627
H13   H     H_    0.898496 0.132780 0.351318 0.142427
C42   C     C_R   0.769350 0.076583 0.245207 -0.198054
H14   H     H_    0.785640 0.134024 0.238923 0.170247
C43   C     C_R   0.685353 0.002549 0.188832 -0.076754
C44   C     C_R   0.665676 0.932750 0.203976 0.122170
C45   C     C_3   0.619840 0.837205 0.141542 -0.511324
C46   C     C_3   0.690564 0.834920 0.208881 -0.211642
H15   H     H_    0.554785 0.802184 0.133654 0.210320
H16   H     H_    0.619726 0.822605 0.078675 0.188260
H17   H     H_    0.665948 0.798124 0.239054 0.180322
O9    O     O_R   0.447790 0.590200 0.538040 -0.590339
O10   O     O_R   0.552160 0.590170 0.642390 -0.593315
C47   C     C_R   0.500673 0.619051 0.619544 0.799485
O11   O     O_R   0.357620 0.409850 0.447860 -0.572081
O12   O     O_R   0.461990 0.409820 0.552210 -0.590175
C48   C     C_R   0.381237 0.381126 0.499850 0.875561
Cu3   Cu    Cu3+1 0.438190 0.500040 0.438260 0.966850
Cu4   Cu    Cu3+1 0.561780 0.500000 0.561820 0.996415
O13   O     O_R   0.447810 0.409860 0.357690 -0.586027
O14   O     O_R   0.552180 0.409830 0.462050 -0.580087
O15   O     O_R   0.537970 0.590210 0.447870 -0.604862
O16   O     O_R   0.642350 0.590180 0.552220 -0.557689
C49   C     C_R   0.499599 0.381247 0.380639 0.858413
C50   C     C_R   0.618626 0.618598 0.499918 0.805778
O17   O     O_R   0.552210 0.142430 0.090170 -0.570511
O18   O     O_R   0.447820 0.038100 0.090220 -0.589958
C51   C     C_R   0.499757 0.118674 0.118448 0.761929
O19   O     O_R   0.462030 0.052220 0.909860 -0.580681
O20   O     O_R   0.357640 0.947890 0.909900 -0.563450
C52   C     C_R   0.381295 0.002040 0.883302 0.771713
Cu5   Cu    Cu3+1 0.561810 0.061820 0.000020 1.004100
Cu6   Cu    Cu3+1 0.438190 0.938280 0.000080 1.021200
O21   O     O_R   0.552180 0.962000 0.909880 -0.560723
O22   O     O_R   0.447790 0.857670 0.909930 -0.556919
O23   O     O_R   0.642360 0.052210 0.090200 -0.586143
O24   O     O_R   0.537970 0.947880 0.090240 -0.584586
C53   C     C_R   0.499949 0.881205 0.881424 0.808464
C54   C     C_R   0.618890 0.000143 0.119094 0.779972
C55   C     C_R   0.423438 0.683617 0.675610 0.072795
C56   C     C_R   0.500419 0.683584 0.688388 -0.075817
C57   C     C_R   0.576507 0.743871 0.770996 -0.199255
H18   H     H_    0.636360 0.742864 0.784640 0.175494
C58   C     C_R   0.576942 0.809512 0.834785 -0.217577
H19   H     H_    0.636627 0.857624 0.896953 0.178233
C59   C     C_R   0.500772 0.813653 0.816929 -0.104677
C60   C     C_R   0.423408 0.747064 0.739452 0.174853
C61   C     C_3   0.359802 0.753752 0.672358 -0.246080
C62   C     C_3   0.358571 0.682460 0.602246 -0.504223
H20   H     H_    0.388994 0.817254 0.675569 0.164677
H21   H     H_    0.296174 0.619151 0.561084 0.195995
H22   H     H_    0.386036 0.705159 0.564820 0.215100
C63   C     C_R   0.464112 0.297654 0.227201 0.080853
C64   C     C_R   0.494884 0.311238 0.312484 -0.037017
C65   C     C_R   0.516538 0.252183 0.329654 -0.146924
H23   H     H_    0.535165 0.256976 0.393234 0.161623
C66   C     C_R   0.516547 0.187675 0.265104 -0.180131
H24   H     H_    0.534861 0.143659 0.279697 0.144463
C67   C     C_R   0.498144 0.183902 0.184297 -0.007864
C68   C     C_R   0.468234 0.236888 0.165325 -0.023899
C69   C     C_3   0.486076 0.289567 0.122130 -0.233982
C70   C     C_3   0.480634 0.357510 0.190686 0.249509
H25   H     H_    0.431781 0.256683 0.053670 0.104329
C71   C     C_2   0.890238 0.873142 0.081332 0.321406
H26   H     H_    0.884260 0.809695 0.054956 0.071500
O25   O     O_2   0.831475 0.881232 0.039199 -0.563202
N1    N     N_3   0.553429 0.647243 0.903538 -0.590766
H27   H     H_    0.607266 0.681358 0.899715 0.227056
H28   H     H_    0.525831 0.686423 0.913676 0.218712
C72   C     C_2   0.097602 0.000561 0.769101 0.483189
H29   H     H_    0.034000 0.961456 0.710059 0.035648
O26   O     O_2   0.104642 0.045320 0.838431 -0.507028
C73   C     C_2   0.236880 0.004245 0.908033 0.502694
H30   H     H_    0.295115 0.043486 0.972506 0.033921
O27   O     O_2   0.168584 0.956099 0.899493 -0.501012
C74   C     C_2   0.435595 0.025400 0.711517 0.438440
H31   H     H_    0.456788 0.090415 0.720865 0.069908
O28   O     O_2   0.485354 0.997411 0.716171 -0.541307
C75   C     C_2   0.052937 0.871011 0.163144 0.395648
H32   H     H_    0.017481 0.831781 0.092097 0.050144
O29   O     O_2   0.099422 0.851193 0.205097 -0.493014
N2    N     N_3   0.832836 0.631869 0.592563 -0.515640
H33   H     H_    0.855025 0.691477 0.646092 0.225329
H34   H     H_    0.884520 0.620054 0.603956 0.244652
N3    N     N_3   0.757576 0.548775 0.433218 -0.537980
H35   H     H_    0.799927 0.524674 0.434654 0.238849
H36   H     H_    0.738829 0.553756 0.376600 0.223897
N4    N     N_3   0.961305 0.761789 0.591011 -0.571794
H37   H     H_    0.002849 0.806075 0.581661 0.222512
H38   H     H_    0.955820 0.798839 0.642496 0.226340
N5    N     N_3   0.193925 0.019396 0.331691 -0.515728
H39   H     H_    0.245099 0.070748 0.338669 0.224025
H40   H     H_    0.206917 0.029497 0.394247 0.234344
C76   C     C_2   0.746321 0.810889 0.176365 0.460195
H41   H     H_    0.774913 0.844146 0.147398 0.099414
O30   O     O_2   0.759876 0.754054 0.182615 -0.536091
C77   C     C_2   0.273620 0.727073 0.668949 0.379531
H42   H     H_    0.218490 0.714032 0.612626 0.077709
O31   O     O_2   0.264939 0.721058 0.728877 -0.509516
C78   C     C_2   0.573918 0.318767 0.128356 0.467402
H43   H     H_    0.579680 0.319930 0.072925 0.047548
O32   O     O_2   0.638766 0.342388 0.195004 -0.510022
N6    N     N_3   0.562060 0.441248 0.252602 -0.532944
H44   H     H_    0.554316 0.478947 0.301536 0.213159
H45   H     H_    0.572619 0.474348 0.218881 0.233856
N7    N     N_3   0.406049 0.367731 0.151610 -0.589638
H46   H     H_    0.348892 0.306768 0.111427 0.227720
H47   H     H_    0.398893 0.403813 0.202076 0.238430
C79   C     C_2   0.248813 0.217921 0.333447 0.342327
H48   H     H_    0.188023 0.181227 0.271538 0.096588
O33   O     O_2   0.316777 0.241260 0.332278 -0.559796
N8    N     N_3   0.596740 0.514148 0.851467 -0.590969
H49   H     H_    0.646505 0.568476 0.860479 0.227481
H50   H     H_    0.602388 0.527315 0.912665 0.251273

loop_
_geom_bond_atom_site_label_1
_geom_bond_atom_site_label_2
_geom_bond_distance
_ccdc_geom_bond_type
C39   C46   1.498540 S    
C79   H48   1.084893 S    
C41   C42   1.400697 A    
C71   H26   1.082900 S    
C7    C16   1.488457 S    
C25   C26   1.426592 A    
N3    H35   1.045553 S    
C39   C44   1.379192 A    
O15   C50   1.291223 A    
Cu3   O15   1.971904 S    
C57   C58   1.400840 A    
C69   C70   1.543952 S    
C29   C30   1.522268 S    
C59   C60   1.393198 A    
Cu1   O7    1.971862 S    
C79   O33   1.220007 D    
C30   H9    1.112147 S    
C15   C16   1.413516 A    
C14   H3    1.084904 S    
N6    H44   1.044994 S    
O9    C47   1.295248 A    
C46   C76   1.502911 S    
C31   C38   1.497575 S    
C11   C16   1.408698 A    
C21   H6    1.083238 S    
N3    H36   1.046443 S    
C20   H5    1.082634 S    
C45   C46   1.526540 S    
C65   C66   1.401006 A    
C70   N7    1.468057 S    
C17   H4    1.083685 S    
O7    C4    1.291384 A    
Cu6   O24   1.969566 S    
C69   H25   1.112344 S    
C6    C7    1.413803 A    
C58   H19   1.083377 S    
Cu5   O23   1.969677 S    
C5    C6    1.419548 A    
C64   C65   1.408571 A    
C17   C22   1.401342 A    
C49   C64   1.450152 S    
C8    H1    1.083198 S    
C29   H7    1.109490 S    
C45   H15   1.111412 S    
O5    C3    1.292813 A    
N8    H49   1.045329 S    
O20   C52   1.294662 A    
C61   H20   1.109910 S    
C5    C75   1.489219 S    
C73   O27   1.220889 D    
C76   O30   1.219977 D    
C5    C10   1.422203 A    
C2    C15   1.458922 S    
C3    C40   1.441337 S    
C77   H42   1.084826 S    
C72   H29   1.084941 S    
C42   C43   1.407807 A    
C11   C12   1.418223 A    
C77   O31   1.221358 D    
N5    H40   1.045224 S    
C8    C9    1.390632 A    
C47   C56   1.451294 S    
N7    H47   1.045291 S    
C38   H12   1.112842 S    
N6    H45   1.045715 S    
C63   C68   1.378138 A    
O9    Cu3   1.965037 S    
C41   H13   1.083217 S    
C25   C72   1.488535 S    
C55   C62   1.492627 S    
C39   C40   1.394429 A    
O3    Cu1   1.972241 S    
C57   H18   1.083092 S    
Cu4   O14   1.965019 S    
C33   C34   1.410306 A    
C7    C8    1.396448 A    
C78   O32   1.222079 D    
C66   C67   1.403737 A    
C34   C35   1.411890 A    
C53   C59   1.443873 S    
O16   C50   1.292614 A    
C43   C44   1.396684 A    
N7    H46   1.046780 S    
C73   H30   1.085553 S    
C12   C13   1.410005 A    
Cu3   O13   1.972666 S    
C23   C24   1.388250 A    
C69   C78   1.511620 S    
C37   N3    1.464538 S    
C44   C45   1.494209 S    
C35   C50   1.442348 S    
C13   C14   1.388037 A    
O13   C49   1.293550 A    
C18   N8    1.431475 S    
O20   Cu6   1.969677 S    
C61   C62   1.521804 S    
C26   C73   1.487588 S    
O1    C1    1.296167 A    
O18   Cu6   1.968800 S    
C45   H16   1.113333 S    
O10   C47   1.292627 A    
C40   C41   1.403865 A    
C13   C22   1.479264 S    
O19   C52   1.294110 A    
N2    H34   1.045552 S    
C12   C48   1.455471 S    
C4    C32   1.439405 S    
O12   C48   1.292596 A    
Cu2   O8    1.972241 S    
C46   H17   1.112778 S    
C31   C32   1.385189 A    
O11   C48   1.292156 A    
Cu5   Cu6   2.688074 S    
C62   H21   1.112570 S    
Cu5   O21   1.968802 S    
C67   C68   1.393485 A    
C74   O28   1.220550 D    
C23   C30   1.492856 S    
O3    C2    1.292072 A    
C24   C25   1.423227 A    
O24   C54   1.294831 A    
O17   C51   1.293364 A    
C1    C24   1.451197 S    
C75   H32   1.083570 S    
C27   C28   1.390598 A    
C51   C67   1.440768 S    
N4    H38   1.046099 S    
C35   C36   1.386704 A    
C9    C10   1.404893 A    
O18   C51   1.291286 A    
C56   C57   1.408073 A    
O22   C53   1.291392 A    
C33   H10   1.083266 S    
C43   C54   1.453275 S    
C78   H43   1.084543 S    
C38   N4    1.466682 S    
C19   N1    1.436915 S    
Cu1   O5    1.973429 S    
C34   H11   1.083187 S    
C76   H41   1.083822 S    
C71   O25   1.221721 D    
C63   C70   1.505678 S    
O1    Cu1   1.965927 S    
C31   C36   1.355515 A    
O10   Cu4   1.972543 S    
C28   C29   1.493965 S    
O8    C4    1.290246 A    
Cu3   Cu4   2.684493 S    
O6    C3    1.289416 A    
O4    Cu2   1.971862 S    
C66   H24   1.083469 S    
Cu6   O22   1.968766 S    
C23   C28   1.373621 A    
O23   C54   1.295921 A    
C14   C15   1.395751 A    
N2    H33   1.045884 S    
C18   C19   1.412076 A    
C75   O29   1.220942 D    
O2    C1    1.288871 A    
C37   C38   1.559896 S    
C32   C33   1.410571 A    
C60   C61   1.497172 S    
O19   Cu5   1.969567 S    
C17   C18   1.401153 A    
O11   Cu3   1.972218 S    
O12   Cu4   1.972123 S    
C36   C37   1.497635 S    
O4    C2    1.296103 A    
C58   C59   1.402817 A    
N1    H27   1.045073 S    
C72   O26   1.220779 D    
O21   C53   1.294793 A    
C21   C22   1.400694 A    
C29   C74   1.501428 S    
C27   C52   1.454643 S    
C10   C71   1.487772 S    
C19   C20   1.406071 A    
C62   H22   1.112071 S    
C20   C21   1.396799 A    
C55   C56   1.395393 A    
N8    H50   1.045561 S    
Cu1   Cu2   2.683368 S    
C74   H31   1.086195 S    
C70   N6    1.466221 S    
C30   H8    1.112512 S    
C37   N2    1.467072 S    
O14   C49   1.293755 A    
C11   C79   1.491834 S    
C9    H2    1.083295 S    
Cu2   O6    1.965927 S    
C42   H14   1.082972 S    
C26   C27   1.420324 A    
O2    Cu2   1.973428 S    
C6    N5    1.436249 S    
C68   C69   1.500974 S    
O17   Cu5   1.968766 S    
N4    H37   1.045517 S    
C55   C60   1.381984 A    
N5    H39   1.044347 S    
C65   H23   1.083104 S    
Cu4   O16   1.972095 S    
C61   C77   1.505838 S    
C63   C64   1.397816 A    
N1    H28   1.045821 S    
