data_mof_unit_64146.cif
_audit_creation_date              2012-12-10T21:01:43-0500
_audit_creation_method            fapswitch 2.2
_symmetry_space_group_name_H-M    P1
_symmetry_Int_Tables_number       1
_space_group_crystal_system       triclinic
_cell_length_a                    15.753809
_cell_length_b                    15.847628
_cell_length_c                    15.108662
_cell_angle_alpha                 89.999779
_cell_angle_beta                  89.972373
_cell_angle_gamma                 89.981334
_cell_volume                      3772.03554028

loop_
_atom_site_label
_atom_site_type_symbol
_atom_type_description
_atom_site_fract_x
_atom_site_fract_y
_atom_site_fract_z
_atom_type_partial_charge
C1    C     C_R   0.500021 0.338918 0.499985 0.912823
C2    C     C_R   0.499979 0.661082 0.500015 0.912822
C3    C     C_R   0.499999 0.913134 0.500005 0.161711
C4    C     C_R   0.500001 0.086865 0.499995 0.161711
C5    C     C_R   0.496791 0.956246 0.419503 -0.158531
C6    C     C_R   0.503209 0.043754 0.580497 -0.158530
C7    C     C_1   0.499992 0.824338 0.500010 -0.046404
C8    C     C_1   0.500008 0.175661 0.499990 -0.046404
C9    C     C_1   0.500015 0.250509 0.499987 -0.149941
C10   C     C_1   0.499985 0.749490 0.500013 -0.149941
C11   C     C_R   0.440428 0.450948 0.952053 0.151709
C12   C     C_R   0.559572 0.549052 0.047947 0.151709
C13   C     C_R   0.500551 0.500413 0.905069 -0.028883
C14   C     C_R   0.499449 0.499587 0.094931 -0.028883
C15   C     C_R   0.560284 0.549583 0.953172 0.158815
C16   C     C_R   0.439716 0.450417 0.046828 0.158815
C17   C     C_1   0.500266 0.500176 0.806894 0.112410
C18   C     C_1   0.499734 0.499824 0.193105 0.112411
C19   C     C_R   0.337537 0.499983 0.499999 0.902445
C20   C     C_R   0.662463 0.500017 0.500000 0.902445
C21   C     C_3   0.972121 0.428167 0.535950 0.279790
C22   C     C_3   0.027879 0.571833 0.464050 0.279790
C23   C     C_3   0.027956 0.434488 0.452610 0.279384
C24   C     C_3   0.972043 0.565511 0.547390 0.279384
C25   C     C_1   0.248790 0.499989 0.500063 -0.130842
C26   C     C_1   0.751210 0.500011 0.499937 -0.130842
C27   C     C_3   0.028265 0.493625 0.584264 -0.312743
C28   C     C_3   0.971735 0.506375 0.415736 -0.312743
C29   C     C_3   0.082943 0.500009 0.500100 -0.055713
C30   C     C_3   0.917057 0.499991 0.499900 -0.055713
C31   C     C_1   0.173647 0.499999 0.500136 0.100877
C32   C     C_1   0.826353 0.500001 0.499863 0.100877
C33   C     C_R   0.503208 0.956252 0.580502 -0.157881
C34   C     C_R   0.496792 0.043748 0.419498 -0.157881
H1    H     H_    0.947189 0.511563 0.347087 0.206855
H2    H     H_    0.052811 0.488437 0.652913 0.206855
H3    H     H_    0.505690 0.077673 0.642734 0.152197
H4    H     H_    0.494310 0.922327 0.357266 0.152197
H5    H     H_    0.505688 0.922337 0.642743 0.152519
H6    H     H_    0.494312 0.077663 0.357257 0.152519
N1    N     N_1   0.499980 0.500020 0.270550 -0.089440
N2    N     N_1   0.500020 0.499980 0.729450 -0.089440
O1    O     O_R   0.500000 0.378020 0.573650 -0.608631
O2    O     O_R   0.500000 0.621980 0.426350 -0.608631
O3    O     O_R   0.500040 0.378020 0.426320 -0.608726
O4    O     O_R   0.499960 0.621980 0.573680 -0.608726
O5    O     O_R   0.376760 0.499990 0.573650 -0.612589
O6    O     O_R   0.623240 0.500010 0.426350 -0.612589
O7    O     O_R   0.376800 0.499990 0.426320 -0.600105
O8    O     O_R   0.623200 0.500010 0.573680 -0.600105
Zn1   Zn    Zn3+2 0.499970 0.500000 0.598370 1.002820
Zn2   Zn    Zn3+2 0.500030 0.500000 0.401630 1.002820
Br1   Br    Br    0.070485 0.340298 0.383900 -0.407445
Br2   Br    Br    0.929515 0.659702 0.616100 -0.407445
Br3   Br    Br    0.929737 0.324788 0.588196 -0.402560
Br4   Br    Br    0.070263 0.675212 0.411804 -0.402560
C35   C     C_3   0.374904 0.397140 0.095857 -0.835677
H7    H     H_    0.379621 0.401143 0.168839 0.242572
H8    H     H_    0.309835 0.418003 0.078021 0.252909
H9    H     H_    0.383429 0.329673 0.078129 0.244448
C36   C     C_3   0.625095 0.602860 0.904143 -0.835677
H10   H     H_    0.620378 0.598857 0.831161 0.242572
H11   H     H_    0.616571 0.670327 0.921871 0.244448
H12   H     H_    0.690165 0.581997 0.921979 0.252909
C37   C     C_3   0.377531 0.399135 0.898602 -0.843091
H13   H     H_    0.332310 0.361857 0.938585 0.251155
H14   H     H_    0.339343 0.441730 0.855928 0.243583
H15   H     H_    0.412551 0.353940 0.855878 0.240180
C38   C     C_3   0.622468 0.600865 0.101398 -0.843091
H16   H     H_    0.667690 0.638143 0.061415 0.251155
H17   H     H_    0.587449 0.646060 0.144122 0.240180
H18   H     H_    0.660657 0.558270 0.144072 0.243583

loop_
_geom_bond_atom_site_label_1
_geom_bond_atom_site_label_2
_ccdc_geom_bond_type
C25   C31   T    
C38   H18   S    
C20   O8    A    
C12   C38   S    
C12   C15   A    
C26   C32   T    
C22   C29   S    
C27   H2    S    
C7    C10   T    
C11   C16   A    
C14   C18   S    
N1    Zn2   S    
C22   Br4   S    
C6    C33   A    
C13   C17   S    
N2    Zn1   S    
C4    C8    S    
C37   H15   S    
O1    Zn1   S    
C5    C34   A    
O2    Zn2   S    
C28   C30   S    
O8    Zn1   S    
C15   C36   S    
C6    H3    S    
C37   H13   S    
C29   C31   S    
C33   H5    S    
C5    H4    S    
C2    O4    A    
C36   H12   S    
C30   C32   S    
C11   C13   A    
C1    O3    A    
C35   H7    S    
C20   O6    A    
C20   C26   S    
O4    Zn1   S    
C34   H6    S    
C23   C29   S    
C38   H16   S    
C22   C28   S    
C12   C14   A    
C23   Br1   S    
C3    C7    S    
C16   C35   S    
C13   C15   A    
C4    C34   A    
C21   C27   S    
C36   H10   S    
C19   C25   S    
C22   C24   S    
C35   H8    S    
C24   C30   S    
C27   C29   S    
C24   C27   S    
C3    C33   A    
C24   Br2   S    
C2    C10   S    
C11   C37   S    
O6    Zn2   S    
C1    C9    S    
C28   H1    S    
C38   H17   S    
C4    C6    A    
C21   C30   S    
C19   O5    A    
C36   H11   S    
C19   O7    A    
C17   N2    T    
C21   Br3   S    
O5    Zn1   S    
C3    C5    A    
O3    Zn2   S    
C37   H14   S    
C14   C16   A    
C23   C28   S    
C21   C23   S    
C1    O1    A    
C18   N1    T    
O7    Zn2   S    
C2    O2    A    
C8    C9    T    
C35   H9    S    
