data_mof_unit_21255.cif
_audit_creation_date              2012-12-11T14:10:59-0500
_audit_creation_method            fapswitch 2.2
_symmetry_space_group_name_H-M    P1
_symmetry_Int_Tables_number       1
_space_group_crystal_system       triclinic
_cell_length_a                    19.727615
_cell_length_b                    17.22031
_cell_length_c                    15.423806
_cell_angle_alpha                 90.000047
_cell_angle_beta                  52.499179
_cell_angle_gamma                 89.999918
_cell_volume                      4156.89430944

loop_
_atom_site_label
_atom_site_type_symbol
_atom_type_description
_atom_site_fract_x
_atom_site_fract_y
_atom_site_fract_z
_atom_type_partial_charge
C1    C     C_R   0.374074 0.196887 0.995356 -0.103180
C2    C     C_3   0.751939 0.773290 0.448138 0.275780
C3    C     C_3   0.663877 0.278304 0.466595 0.285467
C4    C     C_3   0.336132 0.721682 0.533393 0.285470
C5    C     C_3   0.836086 0.778247 0.533451 0.285430
C6    C     C_3   0.163874 0.221692 0.466599 0.285468
C7    C     C_3   0.251918 0.726777 0.448176 0.275822
C8    C     C_3   0.748077 0.273235 0.551832 0.275818
C9    C     C_2   0.191127 0.742950 0.094151 -0.172241
C10   C     C_2   0.808873 0.257050 0.905849 -0.172223
C11   C     C_2   0.713927 0.687714 0.045070 -0.181137
C12   C     C_R   0.625925 0.803113 0.004645 -0.103171
C13   C     C_2   0.286074 0.312286 0.954928 -0.181137
C14   C     C_2   0.786073 0.187714 0.954930 -0.181138
C15   C     C_2   0.213927 0.812286 0.045071 -0.181139
C16   C     C_2   0.308874 0.242950 0.905848 -0.172223
C17   C     C_2   0.691126 0.757050 0.094151 -0.172217
C18   C     C_R   0.390611 0.802925 0.213995 -0.115907
C19   C     C_R   0.609390 0.197075 0.786005 -0.115903
C20   C     C_R   0.651706 0.828669 0.778797 -0.125582
C21   C     C_R   0.348297 0.171334 0.221206 -0.125587
C22   C     C_R   0.848298 0.328665 0.221206 -0.125585
C23   C     C_R   0.660616 0.175204 0.951306 -0.092786
C24   C     C_R   0.151702 0.671335 0.778794 -0.125586
C25   C     C_R   0.109389 0.302925 0.786005 -0.115902
C26   C     C_R   0.890599 0.697072 0.214000 -0.115912
C27   C     C_R   0.329959 0.913087 0.950926 -0.124857
C28   C     C_R   0.670041 0.086913 0.049075 -0.124847
C29   C     C_R   0.634771 0.890017 0.102843 -0.145051
C30   C     C_R   0.365228 0.109983 0.897157 -0.145051
C31   C     C_R   0.865228 0.390017 0.897158 -0.145058
C32   C     C_R   0.134771 0.609983 0.102842 -0.145053
C33   C     C_R   0.170041 0.413087 0.049074 -0.124849
C34   C     C_R   0.339384 0.824796 0.048695 -0.092787
C35   C     C_R   0.829959 0.586913 0.950925 -0.124814
C36   C     C_R   0.357008 0.079389 0.316989 -0.093592
C37   C     C_R   0.642996 0.920613 0.683013 -0.093623
C38   C     C_R   0.602773 0.104759 0.689613 -0.126338
C39   C     C_R   0.397229 0.895240 0.310386 -0.126322
C40   C     C_R   0.897213 0.604756 0.310394 -0.126369
C41   C     C_R   0.102772 0.395240 0.689613 -0.126328
C42   C     C_R   0.142991 0.579390 0.683011 -0.093574
C43   C     C_R   0.857009 0.420609 0.316989 -0.093598
C44   C     C_R   0.346509 0.185551 0.933210 0.145268
C45   C     C_R   0.839385 0.675205 0.048693 -0.092796
C46   C     C_R   0.653491 0.814449 0.066790 0.145277
C47   C     C_R   0.712357 0.148186 0.977076 0.154997
C48   C     C_R   0.287642 0.851814 0.022925 0.155001
C49   C     C_R   0.787643 0.648186 0.022923 0.154991
C50   C     C_R   0.212358 0.351814 0.977074 0.154999
C51   C     C_R   0.153491 0.685551 0.066789 0.145268
C52   C     C_R   0.846508 0.314449 0.933211 0.145271
C53   C     C_R   0.373729 0.820252 0.312271 0.100278
C54   C     C_R   0.626274 0.179747 0.687728 0.100281
C55   C     C_R   0.693014 0.861776 0.676565 0.097184
C56   C     C_R   0.160616 0.324796 0.951305 -0.092783
C57   C     C_R   0.306994 0.138231 0.323439 0.097191
C58   C     C_R   0.806995 0.361768 0.323439 0.097186
C59   C     C_R   0.193004 0.638232 0.676560 0.097187
C60   C     C_R   0.126273 0.320253 0.687728 0.100279
C61   C     C_R   0.873702 0.679742 0.312284 0.100297
C62   C     C_3   0.211925 0.152415 0.538590 -0.241356
C63   C     C_3   0.788129 0.847602 0.461404 -0.241340
C64   C     C_3   0.699728 0.203828 0.480635 -0.247302
C65   C     C_3   0.300289 0.796167 0.519360 -0.247300
C66   C     C_3   0.800198 0.703810 0.519388 -0.247303
C67   C     C_R   0.125926 0.696887 0.004644 -0.103181
C68   C     C_3   0.199723 0.296170 0.480636 -0.247302
C69   C     C_3   0.288064 0.652418 0.461411 -0.241354
C70   C     C_3   0.711923 0.347585 0.538591 -0.241356
C71   C     C_3   0.716248 0.746002 0.563177 -0.199897
C72   C     C_3   0.283714 0.254039 0.436805 -0.199948
C73   C     C_3   0.373047 0.694985 0.416099 -0.199686
C74   C     C_3   0.626949 0.305006 0.583892 -0.199677
C75   C     C_3   0.126949 0.194991 0.583894 -0.199681
C76   C     C_3   0.873066 0.804964 0.416142 -0.199633
C77   C     C_3   0.783717 0.245962 0.436806 -0.199945
C78   C     C_R   0.874074 0.303113 0.995356 -0.103180
C79   C     C_3   0.216291 0.754046 0.563199 -0.199958
C80   C     C_3   0.752736 0.819865 0.576417 0.060067
C81   C     C_3   0.247265 0.180135 0.423590 0.060074
C82   C     C_3   0.335409 0.768555 0.404374 0.059134
C83   C     C_3   0.664594 0.231444 0.595624 0.059132
C84   C     C_3   0.164593 0.268555 0.595625 0.059134
C85   C     C_3   0.835384 0.731441 0.404386 0.059133
C86   C     C_3   0.747266 0.319864 0.423590 0.060073
C87   C     C_3   0.252735 0.680136 0.576409 0.060080
C88   C     C_3   0.248078 0.226767 0.551830 0.275818
H1    H     H_    0.381231 0.251537 0.023316 0.081638
H2    H     H_    0.610991 0.253863 0.814633 0.106852
H3    H     H_    0.671221 0.777724 0.799278 0.118314
H4    H     H_    0.328780 0.222278 0.200725 0.118285
H5    H     H_    0.828781 0.277721 0.200724 0.118288
H6    H     H_    0.171219 0.722279 0.799275 0.118280
H7    H     H_    0.110990 0.246137 0.814633 0.106850
H8    H     H_    0.889000 0.753861 0.185372 0.106881
H9    H     H_    0.309674 0.946758 0.911231 0.104657
H10   H     H_    0.690326 0.053241 0.088769 0.104665
H11   H     H_    0.638510 0.916093 0.163634 0.112728
H12   H     H_    0.618768 0.748463 0.976686 0.081643
H13   H     H_    0.361490 0.083907 0.836366 0.112702
H14   H     H_    0.861489 0.416093 0.836366 0.112709
H15   H     H_    0.138510 0.583907 0.163634 0.112700
H16   H     H_    0.190326 0.446759 0.088768 0.104656
H17   H     H_    0.809675 0.553241 0.911230 0.104663
H18   H     H_    0.346177 0.045531 0.383275 0.103202
H19   H     H_    0.653830 0.954470 0.616724 0.103232
H20   H     H_    0.597476 0.076810 0.631210 0.101974
H21   H     H_    0.402526 0.923189 0.368788 0.101965
H22   H     H_    0.902509 0.576810 0.368799 0.101985
H23   H     H_    0.670395 0.224616 0.902040 0.107189
H24   H     H_    0.097475 0.423189 0.631211 0.101965
H25   H     H_    0.153822 0.545531 0.616725 0.103196
H26   H     H_    0.846178 0.454467 0.383276 0.103200
H27   H     H_    0.651085 0.722262 0.624589 0.161955
H28   H     H_    0.348855 0.277815 0.375371 0.161931
H29   H     H_    0.438520 0.672587 0.353260 0.158822
H30   H     H_    0.561471 0.327397 0.646725 0.158829
H31   H     H_    0.061472 0.172599 0.646729 0.158827
H32   H     H_    0.938565 0.827321 0.353330 0.158846
H33   H     H_    0.848859 0.222188 0.375374 0.161933
H34   H     H_    0.329605 0.775384 0.097960 0.107184
H35   H     H_    0.151154 0.777828 0.624637 0.161927
H36   H     H_    0.216993 0.092751 0.561386 0.148059
H37   H     H_    0.783115 0.907283 0.438601 0.148079
H38   H     H_    0.694915 0.144397 0.456969 0.146998
H39   H     H_    0.305114 0.855595 0.543023 0.146991
H40   H     H_    0.804957 0.644363 0.543065 0.146988
H41   H     H_    0.194907 0.355601 0.456972 0.146988
H42   H     H_    0.282988 0.592758 0.438615 0.148057
H43   H     H_    0.716988 0.407250 0.561387 0.148058
H44   H     H_    0.212735 0.722605 0.140071 0.154639
H45   H     H_    0.829606 0.724618 0.097957 0.107204
H46   H     H_    0.787265 0.277395 0.859929 0.154645
H47   H     H_    0.690415 0.666623 0.001630 0.125956
H48   H     H_    0.309586 0.333377 0.998367 0.125945
H49   H     H_    0.809585 0.166624 0.998369 0.125949
H50   H     H_    0.190415 0.833376 0.001631 0.125947
H51   H     H_    0.287265 0.222604 0.859928 0.154642
H52   H     H_    0.712735 0.777395 0.140071 0.154670
H53   H     H_    0.170395 0.275384 0.902039 0.107187
H54   H     H_    0.118769 0.751537 0.976684 0.081640
H55   H     H_    0.881231 0.248463 0.023316 0.081640
H56   H     H_    0.389010 0.746137 0.185367 0.106845
I1    I     I_    0.320964 0.229213 0.612453 -0.440733
I2    I     I_    0.679088 0.770939 0.387461 -0.440863
I3    I     I_    0.599012 0.284135 0.395574 -0.382006
I4    I     I_    0.401011 0.715832 0.604394 -0.382023
I5    I     I_    0.900915 0.783987 0.604527 -0.382084
I6    I     I_    0.099006 0.215857 0.395581 -0.382013
I7    I     I_    0.179025 0.729240 0.387562 -0.440717
I8    I     I_    0.820960 0.270794 0.612460 -0.440743
N1    N     N_R   0.408680 0.130810 0.995780 -0.045071
N2    N     N_R   0.578590 0.132790 0.846380 -0.043342
N3    N     N_R   0.578590 0.867210 0.846380 -0.048874
N4    N     N_R   0.421410 0.132790 0.153620 -0.048870
N5    N     N_R   0.921410 0.367210 0.153620 -0.048870
N6    N     N_R   0.078590 0.632790 0.846380 -0.048868
N7    N     N_R   0.078590 0.367210 0.846380 -0.043343
N8    N     N_R   0.921410 0.632790 0.153620 -0.043348
N9    N     N_R   0.403840 0.921910 0.935760 -0.045236
N10   N     N_R   0.596160 0.078090 0.064240 -0.045237
N11   N     N_R   0.596160 0.921910 0.064240 -0.043459
N12   N     N_R   0.591320 0.869190 0.004220 -0.045074
N13   N     N_R   0.403840 0.078090 0.935760 -0.043455
N14   N     N_R   0.903840 0.421910 0.935760 -0.043459
N15   N     N_R   0.096160 0.578090 0.064240 -0.043455
N16   N     N_R   0.096160 0.421910 0.064240 -0.045236
N17   N     N_R   0.903840 0.578090 0.935760 -0.045237
N18   N     N_R   0.426250 0.076100 0.213650 -0.045716
N19   N     N_R   0.573750 0.923900 0.786350 -0.045716
N20   N     N_R   0.573750 0.076100 0.786350 -0.042420
N21   N     N_R   0.426250 0.923900 0.213650 -0.042421
N22   N     N_R   0.926250 0.576100 0.213650 -0.042420
N23   N     N_R   0.591320 0.130810 0.004220 -0.051902
N24   N     N_R   0.073750 0.423900 0.786350 -0.042422
N25   N     N_R   0.073750 0.576100 0.786350 -0.045715
N26   N     N_R   0.926250 0.423900 0.213650 -0.045714
N27   N     N_R   0.408680 0.869190 0.995780 -0.051902
N28   N     N_R   0.908680 0.630810 0.995780 -0.051902
N29   N     N_R   0.091320 0.369190 0.004220 -0.051902
N30   N     N_R   0.091320 0.630810 0.004220 -0.045072
N31   N     N_R   0.908680 0.369190 0.995780 -0.045073
N32   N     N_R   0.421410 0.867210 0.153620 -0.043341
Ni1   Ni    Ni4+2 0.500000 0.131570 0.000000 0.215627
Ni2   Ni    Ni4+2 0.500000 0.868430 0.000000 0.215624
Ni3   Ni    Ni4+2 0.000000 0.631570 0.000000 0.215631
Ni4   Ni    Ni4+2 1.000000 0.368430 0.000000 0.215626
Ni5   Ni    Ni4+2 0.488900 1.000000 0.862310 0.230930
Ni6   Ni    Ni4+2 0.511100 1.000000 0.137690 0.230934
Ni7   Ni    Ni4+2 0.988900 0.500000 0.862310 0.230939
Ni8   Ni    Ni4+2 0.011100 0.500000 0.137690 0.230930

loop_
_geom_bond_atom_site_label_1
_geom_bond_atom_site_label_2
_ccdc_geom_bond_type
C27   C48   A    
N14   N31   A    
C28   C47   A    
C3    I3    S    
C65   C79   S    
C20   N3    A    
C36   N18   A    
C8    C83   S    
C64   C77   S    
C29   N11   A    
C62   C81   S    
N11   N12   A    
C9    C51   S    
N5    Ni4   S    
C74   C83   S    
C39   N21   A    
C10   C52   S    
N6    Ni3   S    
C66   C85   S    
C62   H36   S    
C28   N10   A    
C6    C75   S    
C43   N26   A    
N27   Ni2   S    
C3    C64   S    
N15   Ni8   S    
C76   H32   S    
N1    Ni1   S    
N25   Ni7   S    
C65   H39   S    
C67   N30   A    
C26   C61   A    
C37   H19   S    
N12   Ni2   S    
C43   H26   S    
C4    C65   S    
C24   N6    A    
C75   C84   S    
C9    H44   S    
N15   N30   A    
C12   N12   A    
C56   N29   A    
C42   N25   A    
C4    I4    S    
N21   Ni6   S    
C5    I5    S    
C8    C70   S    
N19   Ni5   S    
C2    C85   S    
N14   Ni7   S    
C3    C74   S    
C70   C74   S    
C71   C80   S    
C1    C44   A    
C18   C53   A    
C11   C17   D    
N21   N32   A    
N32   Ni2   S    
C69   H42   S    
C41   H24   S    
C35   C49   A    
N13   Ni5   S    
C88   I1    S    
C14   H49   S    
C69   C73   S    
C25   C60   A    
C18   N32   A    
N9    N27   A    
C16   C44   S    
N17   N28   A    
C72   C81   S    
C45   N28   A    
C68   C72   S    
N2    N20   A    
C15   H50   S    
C6    C68   S    
C34   H34   S    
C6    C81   S    
C3    C86   S    
C30   C44   A    
C34   N27   A    
C15   C48   S    
C20   C55   A    
C52   C78   A    
C58   C86   S    
C79   C87   S    
C54   C83   S    
C72   C88   S    
N29   Ni4   S    
C37   N19   A    
C63   C80   S    
C26   H8    S    
C74   H30   S    
N2    Ni1   S    
C73   H29   S    
C29   H11   S    
C36   H18   S    
C68   C84   S    
C31   H14   S    
C84   C88   S    
C23   C47   A    
C17   C46   S    
C30   N13   A    
N9    Ni5   S    
C36   C57   A    
C10   C14   D    
C4    C87   S    
C25   N7    A    
N24   Ni7   S    
C40   H22   S    
N10   N23   A    
C33   C50   A    
N4    Ni1   S    
C62   C88   S    
C50   C56   A    
C40   C61   A    
C53   C82   S    
C6    I6    S    
N7    Ni4   S    
C1    N1    A    
C64   C83   S    
C21   C57   A    
C11   C49   S    
N28   Ni3   S    
C24   H6    S    
N23   Ni1   S    
N26   Ni8   S    
N11   Ni6   S    
C42   H25   S    
C66   C71   S    
C38   C54   A    
C31   N14   A    
C45   C49   A    
C71   H27   S    
C32   H15   S    
C75   H31   S    
C51   C67   A    
C5    C80   S    
C26   N8    A    
C4    C73   S    
C63   H37   S    
C61   C85   S    
C7    I7    S    
C56   H53   S    
C19   C54   A    
C12   C46   A    
C41   N24   A    
C77   C86   S    
C25   H7    S    
C64   H38   S    
N7    N24   A    
C8    C77   S    
C35   N17   A    
C13   H48   S    
C57   C81   S    
C62   C75   S    
C13   C16   D    
C33   N16   A    
C34   C48   A    
N17   Ni7   S    
C2    C71   S    
C70   C86   S    
C73   C82   S    
N10   Ni6   S    
C2    C63   S    
C7    C79   S    
C32   C51   A    
C28   H10   S    
C72   H28   S    
C27   H9    S    
C1    H1    S    
N1    N13   A    
N8    N22   A    
N6    N25   A    
C11   H47   S    
C10   H46   S    
C41   C60   A    
C5    C66   S    
C8    I8    S    
N3    Ni2   S    
C69   C87   S    
C42   C59   A    
C22   C58   A    
C38   N20   A    
C14   C47   S    
C22   N5    A    
N20   Ni5   S    
C2    I2    S    
C23   H23   S    
N18   Ni6   S    
C45   H45   S    
N16   Ni8   S    
C31   C52   A    
C29   C46   A    
N5    N26   A    
C5    C76   S    
C18   H56   S    
C7    C69   S    
C9    C15   D    
C19   H2    S    
C78   H55   S    
C27   N9    A    
C40   N22   A    
C55   C80   S    
C60   C84   S    
C65   C82   S    
C39   C53   A    
C79   H35   S    
C24   C59   A    
C30   H13   S    
N4    N18   A    
C70   H43   S    
C22   H5    S    
C21   N4    A    
C66   H40   S    
C17   H52   S    
N30   Ni3   S    
C38   H20   S    
C68   H41   S    
C59   C87   S    
C12   H12   S    
C77   H33   S    
C33   H16   S    
C13   C50   S    
C37   C55   A    
N3    N19   A    
C20   H3    S    
C39   H21   S    
C7    C82   S    
C23   N23   A    
N16   N29   A    
C63   C76   S    
C32   N15   A    
C16   H51   S    
C19   N2    A    
C43   C58   A    
C35   H17   S    
N8    Ni3   S    
N31   Ni4   S    
C67   H54   S    
C76   C85   S    
C78   N31   A    
N22   Ni8   S    
C21   H4    S    
