data_mof_unit_8967.cif
_audit_creation_date              2012-12-11T14:46:26-0500
_audit_creation_method            fapswitch 2.2
_symmetry_space_group_name_H-M    P1
_symmetry_Int_Tables_number       1
_space_group_crystal_system       triclinic
_cell_length_a                    17.435286
_cell_length_b                    17.675911
_cell_length_c                    6.93269
_cell_angle_alpha                 89.975601
_cell_angle_beta                  90.389702
_cell_angle_gamma                 89.925892
_cell_volume                      2136.49663344

loop_
_atom_site_label
_atom_site_type_symbol
_atom_type_description
_atom_site_fract_x
_atom_site_fract_y
_atom_site_fract_z
_atom_type_partial_charge
O1    O     O_R   0.796490 0.328940 0.373020 -0.518139
O2    O     O_R   0.203510 0.671060 0.626980 -0.520339
O3    O     O_R   0.203510 0.828940 0.626980 -0.515229
O4    O     O_R   0.796490 0.171060 0.373020 -0.524216
O5    O     O_R   0.805560 0.173330 0.702970 -0.545092
O6    O     O_R   0.194440 0.826670 0.297030 -0.550898
O7    O     O_R   0.194440 0.673330 0.297030 -0.549050
O8    O     O_R   0.805560 0.326670 0.702970 -0.513900
O9    O     O_R   0.658440 0.172360 0.870170 -0.539900
O10   O     O_R   0.341560 0.827640 0.129830 -0.535092
O11   O     O_R   0.341560 0.672360 0.129830 -0.535813
O12   O     O_R   0.658440 0.327640 0.870170 -0.536980
C1    C     C_R   0.824077 0.146683 0.534810 0.671100
C2    C     C_R   0.175987 0.853996 0.465414 0.687657
C3    C     C_R   0.176588 0.646039 0.465095 0.687238
C4    C     C_R   0.823627 0.354269 0.535017 0.709005
O13   O     O_3   0.679200 0.250000 0.537050 -0.381030
O14   O     O_3   0.320800 0.750000 0.462950 -0.373425
V1    V     V_3+5 0.736420 0.250000 0.813120 1.517572
V2    V     V_3+5 0.263580 0.750000 0.186880 1.460276
O15   O     O_R   0.649370 0.327980 0.199650 -0.540990
O16   O     O_R   0.350630 0.672020 0.800350 -0.538453
O17   O     O_R   0.350630 0.827980 0.800350 -0.539240
O18   O     O_R   0.649370 0.172020 0.199650 -0.540338
C5    C     C_R   0.630525 0.354426 0.030012 0.734162
C6    C     C_R   0.369475 0.645573 0.969987 0.735117
C7    C     C_R   0.369486 0.854440 0.969954 0.732906
C8    C     C_R   0.630501 0.145569 0.030042 0.718001
V3    V     V_3+5 0.718510 0.250000 0.312740 1.505231
V4    V     V_3+5 0.281490 0.750000 0.687260 1.490403
O19   O     O_3   0.775740 0.250000 0.038930 -0.341467
O20   O     O_3   0.224260 0.750000 0.961070 -0.362256
C9    C     C_1   0.574064 0.083151 0.017979 -0.172801
C10   C     C_1   0.425917 0.916861 0.982008 -0.180246
C11   C     C_1   0.425901 0.583156 0.982085 -0.171613
C12   C     C_1   0.574090 0.416836 0.017911 -0.180294
C13   C     C_1   0.527450 0.030908 0.006805 0.026041
C14   C     C_1   0.472530 0.969106 0.993177 0.024379
C15   C     C_1   0.472531 0.530893 0.993219 0.030698
C16   C     C_1   0.527455 0.469094 0.006775 0.027899
C17   C     C_R   0.878658 0.082393 0.524318 -0.203049
C18   C     C_R   0.120330 0.918085 0.482805 -0.219168
C19   C     C_R   0.122725 0.581149 0.477937 -0.253498
C20   C     C_R   0.879440 0.418285 0.520456 -0.164616
C21   C     C_R   0.077397 0.025018 0.679665 0.014768
C22   C     C_R   0.910415 0.958445 0.390740 -0.010369
C23   C     C_R   0.928310 0.516956 0.308677 0.006996
C24   C     C_R   0.083083 0.472771 0.671429 -0.015425
C25   C     C_R   0.134878 0.973805 0.625673 0.282024
C26   C     C_R   0.855909 0.014975 0.430576 0.275087
C27   C     C_R   0.867896 0.471303 0.370433 0.286008
C28   C     C_R   0.140911 0.521716 0.606156 0.370113
C29   C     C_R   0.048719 0.918314 0.384517 -0.069773
C30   C     C_R   0.954699 0.089654 0.592998 -0.040108
C31   C     C_R   0.949289 0.419252 0.627089 -0.064222
C32   C     C_R   0.049281 0.583910 0.392212 -0.061119
C33   C     C_R   0.988773 0.967960 0.446785 0.044137
C34   C     C_R   0.007009 0.027974 0.575225 0.038727
C35   C     C_R   0.009241 0.471668 0.577986 -0.052566
C36   C     C_R   0.996053 0.523839 0.423242 0.042347
C37   C     C_2   0.089676 0.067594 0.862653 0.513054
H1    H     H_    0.146745 0.086178 0.904070 0.095370
O21   O     O_2   0.036771 0.078803 0.973696 -0.525096
C38   C     C_2   0.879974 0.885409 0.318332 0.507946
H2    H     H_    0.835838 0.884542 0.207191 0.094231
O22   O     O_2   0.900697 0.825851 0.390805 -0.498728
C39   C     C_2   0.920868 0.550216 0.111701 0.482859
H3    H     H_    0.865173 0.567385 0.056111 0.111805
O23   O     O_2   0.976306 0.555167 0.005822 -0.562763
C40   C     C_2   0.102813 0.426658 0.843768 0.476683
H4    H     H_    0.068004 0.430232 0.972507 0.079829
O24   O     O_2   0.158649 0.384879 0.843746 -0.483386
C41   C     C_2   0.981695 0.165735 0.653439 0.405627
H5    H     H_    0.945231 0.201847 0.739282 0.056854
O25   O     O_2   0.044181 0.189332 0.602461 -0.526246
C42   C     C_2   0.040205 0.872780 0.205656 0.482812
H6    H     H_    0.061240 0.815346 0.199233 0.051876
O26   O     O_2   0.010712 0.900214 0.061402 -0.523125
C43   C     C_2   0.024522 0.655452 0.298050 0.441370
H7    H     H_    0.061072 0.683552 0.195001 0.058720
O27   O     O_2   0.962558 0.683577 0.336520 -0.495117
C44   C     C_2   0.959558 0.362681 0.782022 0.338440
H8    H     H_    0.003108 0.319418 0.768415 0.088268
O28   O     O_2   0.922256 0.366743 0.930077 -0.505131
O29   O     O_3   0.780425 0.001943 0.376130 -0.655104
H9    H     H_    0.745676 0.035196 0.450091 0.286853
O30   O     O_3   0.205077 0.978721 0.719210 -0.653976
H10   H     H_    0.245831 0.962509 0.629225 0.287897
O31   O     O_3   0.213793 0.514332 0.684832 -0.611842
H11   H     H_    0.251727 0.535077 0.593163 0.285774
O32   O     O_3   0.798672 0.476549 0.272388 -0.645825
H12   H     H_    0.756736 0.463689 0.362430 0.282893

loop_
_geom_bond_atom_site_label_1
_geom_bond_atom_site_label_2
_ccdc_geom_bond_type
O10   C7    A    
O30   H10   S    
C31   C35   A    
O13   V3    S    
C41   H5    S    
C25   O30   S    
V1    O19   S    
C1    C17   S    
O29   H9    S    
C32   C43   S    
C42   O26   D    
C18   C29   A    
C30   C34   A    
C19   C28   A    
O4    C1    A    
C37   O21   D    
O18   V3    S    
C26   O29   S    
C27   O32   S    
C23   C36   A    
O9    V1    S    
O10   V2    S    
C40   H4    S    
O14   V4    S    
O17   C7    A    
C4    C20   S    
O5    C1    A    
O4    V3    S    
C2    C18   S    
O7    C3    A    
C35   C36   A    
O8    C4    A    
C41   O25   D    
C28   O31   S    
C23   C39   S    
C7    C10   S    
C21   C34   A    
O11   V2    S    
O8    V1    S    
C39   H3    S    
O17   V4    S    
C12   C16   T    
C42   H6    S    
O32   H12   S    
C43   O27   D    
C29   C33   A    
C23   C27   A    
C5    C12   S    
O11   C6    A    
O15   V3    S    
C9    C13   T    
C32   C36   A    
C22   C38   S    
C39   O23   D    
C38   O22   D    
O3    V4    S    
C11   C15   T    
C13   C14   S    
O6    C2    A    
C30   C41   S    
C19   C32   A    
C21   C25   A    
O1    V3    S    
O1    C4    A    
C31   C44   S    
O2    C3    A    
O3    C2    A    
C20   C27   A    
C8    C9    S    
C44   H8    S    
C44   O28   D    
C22   C33   A    
C29   C42   S    
C17   C26   A    
C15   C16   S    
C24   C35   A    
V2    O20   S    
O15   C5    A    
O16   V4    S    
C10   C14   T    
O18   C8    A    
C24   C40   S    
O5    V1    S    
O6    V2    S    
C22   C26   A    
O12   C5    A    
O2    V4    S    
C38   H2    S    
C3    C19   S    
V3    O19   S    
V4    O20   S    
C20   C31   A    
C33   C34   A    
O12   V1    S    
C21   C37   S    
O13   V1    S    
O14   V2    S    
C37   H1    S    
C17   C30   A    
C18   C25   A    
C43   H7    S    
C6    C11   S    
C24   C28   A    
O7    V2    S    
O16   C6    A    
C40   O24   D    
O31   H11   S    
O9    C8    A    
