data_mof_unit_37279.cif
_audit_creation_date              2012-12-11T16:22:22-0500
_audit_creation_method            fapswitch 2.2
_symmetry_space_group_name_H-M    P1
_symmetry_Int_Tables_number       1
_space_group_crystal_system       triclinic
_cell_length_a                    16.935014
_cell_length_b                    16.782668
_cell_length_c                    19.607291
_cell_angle_alpha                 117.728125
_cell_angle_beta                  62.799756
_cell_angle_gamma                 100.485582
_cell_volume                      4383.9185863

loop_
_atom_site_label
_atom_site_type_symbol
_atom_type_description
_atom_site_fract_x
_atom_site_fract_y
_atom_site_fract_z
_atom_type_partial_charge
C1    C     C_R   0.040291 0.757890 0.009995 -0.130954
C2    C     C_R   0.238164 0.573904 0.835052 -0.128120
C3    C     C_R   0.185724 0.484313 0.082316 -0.164795
C4    C     C_R   0.753127 0.447255 0.171910 -0.129209
C5    C     C_R   0.993134 0.337242 0.758424 -0.121219
C6    C     C_R   0.264960 0.523219 0.050701 0.056934
C7    C     C_R   0.950005 0.258396 0.757394 0.051056
C8    C     C_R   0.237102 0.550729 0.757908 0.038491
C9    C     C_R   0.032092 0.223688 0.001018 0.072410
C10   C     C_R   0.827947 0.927276 0.468738 -0.199492
C11   C     C_R   0.858167 0.849004 0.392669 -0.168196
C12   C     C_R   0.746977 0.492585 0.253722 0.037325
C13   C     C_R   0.943072 0.845007 0.327977 0.145640
C14   C     C_R   0.993708 0.921822 0.336108 -0.181064
C15   C     C_R   0.964504 0.998904 0.412353 -0.159034
C16   C     C_R   0.805022 0.561615 0.962162 -0.128278
C17   C     C_R   0.884334 0.999640 0.480473 0.105927
C18   C     C_R   0.874104 0.156937 0.583228 -0.155344
C19   C     C_R   0.896807 0.221068 0.647471 -0.164335
C20   C     C_R   0.916917 0.194600 0.695787 0.093445
C21   C     C_R   0.907136 0.105385 0.684459 -0.156392
C22   C     C_R   0.887148 0.039407 0.618537 -0.030100
C23   C     C_R   0.724412 0.549218 0.020843 0.056090
C24   C     C_R   0.873393 0.065758 0.565572 0.002363
C25   C     C_R   0.507819 0.510320 0.406212 -0.156277
C26   C     C_R   0.587205 0.476861 0.334146 -0.179403
C27   C     C_R   0.664466 0.525056 0.330776 0.144232
C28   C     C_R   0.965125 0.674980 0.248406 -0.125815
C29   C     C_R   0.660710 0.609391 0.398158 -0.157619
C30   C     C_R   0.581099 0.643223 0.470052 -0.182788
C31   C     C_R   0.504896 0.592464 0.475547 0.116231
C32   C     C_R   0.447682 0.625374 0.625813 -0.162437
C33   C     C_R   0.382953 0.609763 0.693249 -0.167448
C34   C     C_R   0.980112 0.760683 0.252773 0.033574
C35   C     C_R   0.299270 0.581905 0.694508 0.140220
C36   C     C_R   0.278131 0.579683 0.632271 -0.161420
C37   C     C_R   0.343316 0.595039 0.564361 -0.176224
C38   C     C_R   0.429808 0.612305 0.558351 0.112080
C39   C     C_R   0.638570 0.594543 0.057737 0.129562
C40   C     C_R   0.738853 0.481389 0.035698 -0.118984
C41   C     C_R   0.336118 0.542140 0.078900 0.018713
C42   C     C_R   0.417255 0.515746 0.142005 -0.209621
C43   C     C_R   0.348818 0.492797 0.116048 -0.029001
C44   C     C_R   0.394476 0.610431 0.066443 -0.256241
C45   C     C_R   0.255344 0.557419 0.002065 -0.104602
C46   C     C_R   0.471099 0.620492 0.078018 0.187670
C47   C     C_R   0.482038 0.573045 0.116520 0.134832
C48   C     C_R   0.564226 0.569161 0.113953 -0.255049
C49   C     C_R   0.626960 0.650884 0.027664 -0.166970
C50   C     C_R   0.542005 0.666980 0.041093 -0.214322
C51   C     C_R   0.840176 0.179656 0.134284 0.108874
C52   C     C_R   0.033668 0.752035 0.171506 -0.123115
C53   C     C_R   0.965496 0.861049 0.990198 0.123716
C54   C     C_R   0.892376 0.946340 0.961346 -0.215227
C55   C     C_R   0.930394 0.865734 0.939459 -0.170320
C56   C     C_R   0.927563 0.259300 0.834712 -0.140318
C57   C     C_R   0.965311 0.939918 0.061524 -0.271742
C58   C     C_R   0.926301 0.020883 0.084513 0.185812
C59   C     C_R   0.888153 0.023677 0.034738 0.183096
C60   C     C_R   0.844865 0.103308 0.060379 -0.278835
C61   C     C_R   0.879040 0.177456 0.182717 -0.156233
C62   C     C_R   0.922004 0.098458 0.158127 -0.220094
C63   C     C_R   0.831337 0.518081 0.247827 -0.143553
C64   C     C_R   0.963507 0.688991 0.933081 -0.135483
C65   C     C_R   0.991567 0.772769 0.975746 0.060870
C66   C     C_2   0.891040 0.943558 0.601379 0.471286
C67   C     C_R   0.159572 0.505372 0.758815 -0.121415
C68   C     C_2   0.302080 0.409276 0.117277 0.475654
C69   C     C_R   0.053880 0.308471 0.050062 -0.125831
C70   C     C_R   0.975829 0.239989 0.974141 -0.118060
H1    H     H_    0.081923 0.805889 0.036893 0.087982
H2    H     H_    0.817200 0.790685 0.385745 0.114493
H3    H     H_    0.058773 0.920235 0.286221 0.114582
H4    H     H_    0.701701 0.409803 0.153570 0.085975
H5    H     H_    0.008420 0.054805 0.420845 0.125519
H6    H     H_    0.864624 0.177191 0.542351 0.124991
H7    H     H_    0.901462 0.290506 0.657373 0.113771
H8    H     H_    0.922442 0.085951 0.722776 0.155042
H9    H     H_    0.450267 0.468944 0.409900 0.123964
H10   H     H_    0.588622 0.412146 0.282364 0.115413
H11   H     H_    0.719140 0.649222 0.395325 0.107323
H12   H     H_    0.881520 0.215785 0.860352 0.096399
H13   H     H_    0.579844 0.706747 0.523040 0.118242
H14   H     H_    0.514233 0.637834 0.622167 0.119113
H15   H     H_    0.816119 0.605242 0.932673 0.090784
H16   H     H_    0.401240 0.612766 0.740497 0.110688
H17   H     H_    0.213091 0.561694 0.633303 0.111448
H18   H     H_    0.328390 0.585921 0.513071 0.124399
H19   H     H_    0.571387 0.532511 0.143975 0.118751
H20   H     H_    0.683074 0.676400 0.988386 0.117859
H21   H     H_    0.428370 0.477637 0.169109 0.163341
H22   H     H_    0.534208 0.705209 0.012554 0.126261
H23   H     H_    0.131945 0.487046 0.713727 0.088027
H24   H     H_    0.385983 0.649774 0.039411 0.119960
H25   H     H_    0.814451 0.106602 0.023668 0.124386
H26   H     H_    0.930528 0.658908 0.301749 0.092162
H27   H     H_    0.875341 0.237045 0.239655 0.124727
H28   H     H_    0.864234 0.947567 0.922071 0.140720
H29   H     H_    0.950871 0.097685 0.197049 0.131749
H30   H     H_    0.930309 0.806612 0.883749 0.121456
H31   H     H_    0.991100 0.937493 0.101955 0.122048
H32   H     H_    0.689821 0.447865 0.070712 0.090006
H33   H     H_    0.060454 0.806042 0.153412 0.088448
H34   H     H_    0.094775 0.321780 0.083068 0.106947
H35   H     H_    0.851125 0.545217 0.299202 0.092988
H36   H     H_    0.934207 0.673416 0.889911 0.084021
H37   H     H_    0.298472 0.601740 0.975868 0.084058
H38   H     H_    0.897862 0.888839 0.540709 0.034338
H39   H     H_    0.279996 0.365942 0.068139 0.009589
H40   H     H_    0.944121 0.189448 0.936511 0.101399
H41   H     H_    0.281263 0.620608 0.861120 0.087990
H42   H     H_    0.161602 0.467317 0.135108 0.101827
H43   H     H_    0.009291 0.364222 0.713288 0.089507
H44   H     H_    0.765547 0.927932 0.521134 0.122124
N1    N     N_R   0.034930 0.670790 0.995440 -0.038290
N2    N     N_R   0.867000 0.509260 0.948460 -0.040726
N3    N     N_R   0.003780 0.616410 0.165900 -0.037269
N4    N     N_R   0.825670 0.461520 0.995440 -0.041212
N5    N     N_R   0.045120 0.664150 0.118920 -0.038942
N6    N     N_R   0.884940 0.497570 0.165910 -0.036022
N7    N     N_R   0.985840 0.628110 0.948460 -0.037669
N8    N     N_R   0.174330 0.538480 0.004560 -0.041826
N9    N     N_R   0.954880 0.335850 0.881080 -0.039131
N10   N     N_R   0.115060 0.502430 0.834090 -0.039479
N11   N     N_R   0.014160 0.371890 0.051540 -0.043563
N12   N     N_R   0.965070 0.329210 0.004560 -0.044949
N13   N     N_R   0.164150 0.545120 0.881070 -0.039654
N14   N     N_R   0.133000 0.490740 0.051540 -0.037611
N15   N     N_R   0.996220 0.383590 0.834100 -0.040109
N16   N     N_R   0.835850 0.454880 0.118930 -0.037264
Ni1   Ni    Ni4+2 0.103690 0.603690 0.000000 0.212124
Ni2   Ni    Ni4+2 0.896310 0.396310 0.000000 0.213623
Ni3   Ni    Ni4+2 0.991110 0.505800 0.892250 0.210646
Ni4   Ni    Ni4+2 0.008890 0.494200 0.107750 0.219140
O1    O     O_2   0.887661 0.924233 0.655494 -0.588449
O2    O     O_2   0.289936 0.386506 0.172027 -0.583310

loop_
_geom_bond_atom_site_label_1
_geom_bond_atom_site_label_2
_ccdc_geom_bond_type
N11   Ni4   S    
C25   C31   A    
C40   N4    A    
C52   H33   S    
C58   C62   A    
N1    N7    A    
C6    C45   A    
N9    Ni2   S    
C27   C29   A    
C37   H18   S    
C15   H5    S    
C35   C36   A    
C51   C61   A    
C49   H20   S    
C3    C6    A    
C67   N10   A    
N1    Ni1   S    
C26   C27   A    
C1    H1    S    
N10   Ni3   S    
N6    N16   A    
C36   C37   A    
C9    C69   A    
C18   C19   A    
C28   N3    A    
N3    N5    A    
C30   C31   A    
C10   C17   A    
C64   N7    A    
C42   H21   S    
C30   H13   S    
C19   H7    S    
C22   C66   S    
C70   H40   S    
C54   C55   A    
C19   C20   A    
C43   C68   S    
C6    C41   S    
C55   H30   S    
N5    Ni1   S    
C32   C38   A    
C63   H35   S    
C29   C30   A    
C53   C65   S    
C4    H4    S    
C10   H44   S    
C68   H39   S    
C2    N13   A    
C70   N12   A    
C5    N15   A    
C69   N11   A    
C59   C60   A    
C25   H9    S    
C13   C14   A    
N9    N15   A    
C41   C43   A    
C7    C56   A    
N3    Ni4   S    
C16   N2    A    
C44   C46   A    
C54   C59   A    
C53   C55   A    
C36   H17   S    
C32   H14   S    
C61   H27   S    
C2    H41   S    
C17   C24   S    
C12   C27   S    
C14   H3    S    
C68   O2    D    
C44   H24   S    
C9    C70   A    
C5    C7    A    
C12   C63   A    
C53   C57   A    
C3    N14   A    
C4    N16   A    
N2    Ni3   S    
C25   C26   A    
C40   H32   S    
C26   H10   S    
C66   O1    D    
C60   H25   S    
C8    C35   S    
C21   H8    S    
N16   Ni2   S    
C33   H16   S    
C56   N9    A    
C29   H11   S    
C37   C38   A    
N14   Ni4   S    
C1    C65   A    
C47   C48   A    
N12   Ni2   S    
C3    H42   S    
C64   H36   S    
N10   N13   A    
N15   Ni3   S    
C50   H22   S    
C39   C49   A    
C7    C20   S    
C16   C23   A    
C48   H19   S    
N11   N12   A    
C41   C44   A    
C18   C24   A    
C4    C12   A    
C42   C43   A    
N8    Ni1   S    
C69   H34   S    
C15   C17   A    
C46   C47   A    
C18   H6    S    
C5    H43   S    
C11   H2    S    
C2    C8    A    
C66   H38   S    
N6    Ni4   S    
C56   H12   S    
C45   N8    A    
C57   H31   S    
C46   C50   A    
C34   C52   A    
C31   C38   S    
C28   H26   S    
C64   C65   A    
C58   C59   A    
C13   C34   S    
C32   C33   A    
C63   N6    A    
C11   C13   A    
C57   C58   A    
C16   H15   S    
C23   C39   S    
C33   C35   A    
N2    N4    A    
C22   C24   A    
C42   C47   A    
N8    N14   A    
C61   C62   A    
N13   Ni1   S    
N4    Ni2   S    
C10   C11   A    
C28   C34   A    
C62   H29   S    
C52   N5    A    
C45   H37   S    
C20   C21   A    
C8    C67   A    
C49   C50   A    
C67   H23   S    
C14   C15   A    
C54   H28   S    
C51   C60   A    
C1    N1    A    
N7    Ni3   S    
C21   C22   A    
C23   C40   A    
C39   C48   A    
