data_mof_unit_44797.cif
_audit_creation_date              2012-10-26T19:02:14-0400
_audit_creation_method            fapswitch 2.2
_symmetry_space_group_name_H-M    P1
_symmetry_Int_Tables_number       1
_space_group_crystal_system       triclinic
_cell_length_a                    23.506415
_cell_length_b                    10.799065
_cell_length_c                    22.257291
_cell_angle_alpha                 90.793626
_cell_angle_beta                  89.127666
_cell_angle_gamma                 88.33586
_cell_volume                      5646.33832135

loop_
_atom_site_label
_atom_site_type_symbol
_atom_type_description
_atom_site_fract_x
_atom_site_fract_y
_atom_site_fract_z
_atom_type_partial_charge
C1    C     C_R   0.499424 0.262049 0.499651 0.570959
C2    C     C_R   0.702142 0.521704 0.445663 -0.134449
C3    C     C_R   0.238728 0.469996 0.553354 -0.096981
C4    C     C_R   0.761398 0.522302 0.445443 -0.108219
C5    C     C_R   0.209091 0.499961 0.501245 0.262417
C6    C     C_R   0.791009 0.501499 0.498570 0.263076
C7    C     C_R   0.349061 0.239752 0.377276 -0.107592
C8    C     C_R   0.649947 0.760519 0.624883 -0.103745
C9    C     C_R   0.377677 0.173825 0.422482 0.074611
C10   C     C_R   0.621858 0.825397 0.578935 0.068046
C11   C     C_R   0.433717 0.125808 0.409821 0.010601
C12   C     C_R   0.500660 0.737947 0.500350 0.572211
C13   C     C_R   0.565828 0.874384 0.590779 0.010511
C14   C     C_R   0.458430 0.142594 0.352768 -0.076795
C15   C     C_R   0.540566 0.859370 0.647703 -0.077590
C16   C     C_R   0.390768 0.499986 0.500354 0.562371
C17   C     C_R   0.609252 0.500279 0.499646 0.562001
C18   C     C_R   0.429228 0.208695 0.308970 -0.100214
C19   C     C_R   0.569202 0.794202 0.692200 -0.104687
C20   C     C_R   0.374803 0.257758 0.321285 -0.130835
C21   C     C_R   0.623631 0.744341 0.680743 -0.127213
C22   C     C_R   0.470577 0.934165 0.456477 -0.096716
C23   C     C_R   0.238768 0.527942 0.448194 0.332239
C24   C     C_R   0.529643 0.065850 0.543482 -0.097609
C25   C     C_R   0.501051 0.871630 0.500870 0.053658
C26   C     C_R   0.499153 0.128361 0.499105 0.052818
C27   C     C_R   0.531278 0.937461 0.544544 0.014735
C28   C     C_R   0.468864 0.062547 0.455494 0.012875
C29   C     C_R   0.504887 0.385277 0.872429 0.413402
C30   C     C_R   0.494203 0.615116 0.127611 0.412835
C31   C     C_R   0.508153 0.605778 0.872650 0.401236
C32   C     C_R   0.490830 0.394626 0.127387 0.399929
C33   C     C_R   0.504922 0.610134 0.936187 0.033439
C34   C     C_R   0.761331 0.478381 0.552240 0.332264
C35   C     C_R   0.494018 0.390273 0.063848 0.033049
C36   C     C_R   0.501455 0.498968 0.968045 -0.027284
C37   C     C_R   0.497498 0.501438 0.031990 -0.027323
C38   C     C_R   0.501825 0.385380 0.936089 0.026914
C39   C     C_R   0.497162 0.615023 0.063947 0.026662
C40   C     C_R   0.878645 0.608412 0.512189 0.434605
C41   C     C_R   0.121410 0.393366 0.487822 0.409460
C42   C     C_R   0.504550 0.723125 0.968576 -0.118618
C43   C     C_R   0.494369 0.277285 0.031459 -0.119152
C44   C     C_R   0.500717 0.725531 0.031496 -0.121634
C45   C     C_R   0.298382 0.529820 0.448554 -0.122016
C46   C     C_R   0.498239 0.274875 0.968539 -0.121334
C47   C     C_R   0.539187 0.445646 0.252314 -0.088722
C48   C     C_R   0.460256 0.554297 0.747444 -0.088301
C49   C     C_R   0.541689 0.441246 0.315400 0.171272
C50   C     C_R   0.458088 0.558502 0.684347 0.171536
C51   C     C_R   0.456231 0.562747 0.323607 0.006869
C52   C     C_R   0.543760 0.437707 0.676620 0.007305
C53   C     C_R   0.452226 0.566382 0.260445 -0.105766
C54   C     C_R   0.547461 0.434223 0.739814 -0.104533
C55   C     C_R   0.494020 0.506344 0.223913 0.188820
C56   C     C_R   0.701676 0.480096 0.552463 -0.127406
C57   C     C_R   0.505386 0.493978 0.776110 0.189954
C58   C     C_R   0.881730 0.394454 0.483316 0.417015
C59   C     C_R   0.118421 0.608065 0.515255 0.445549
C60   C     C_R   0.941775 0.391173 0.483330 0.047312
C61   C     C_R   0.058375 0.611846 0.514369 0.040642
C62   C     C_R   0.970017 0.501199 0.498269 -0.086285
C63   C     C_R   0.030115 0.501868 0.499420 -0.085110
C64   C     C_R   0.938213 0.610464 0.512641 -0.018653
C65   C     C_R   0.061881 0.392069 0.486100 -0.010252
C66   C     C_R   0.974292 0.282131 0.468804 0.269912
C67   C     C_R   0.328268 0.499878 0.500816 -0.017739
C68   C     C_R   0.025875 0.721635 0.527419 0.266165
C69   C     C_R   0.033763 0.283374 0.471400 -0.106812
C70   C     C_R   0.966348 0.719105 0.527519 -0.098917
C71   C     C_3   0.954754 0.142615 0.395008 -0.094867
C72   C     C_3   0.049469 0.913322 0.496543 -0.066475
C73   C     C_2   0.590933 0.371835 0.339961 0.589646
C74   C     C_2   0.408913 0.627156 0.659338 0.594511
C75   C     C_3   0.217216 0.472554 0.352267 -0.115040
C76   C     C_3   0.786986 0.339310 0.623445 -0.099956
C77   C     C_2   0.347390 0.156728 0.481125 0.560521
C78   C     C_R   0.671801 0.500268 0.499118 -0.016114
C79   C     C_2   0.652623 0.840425 0.520404 0.557277
C80   C     C_R   0.298008 0.469575 0.553145 -0.131656
Cu1   Cu    Cu3+1 0.500000 0.499970 0.559570 1.015569
Cu2   Cu    Cu3+1 0.500000 0.500030 0.440430 1.015296
H1    H     H_    0.501044 0.106502 0.342671 0.159631
H2    H     H_    0.498311 0.185955 0.945425 0.168106
H3    H     H_    0.572209 0.399709 0.224907 0.161379
H4    H     H_    0.426988 0.599993 0.774610 0.159984
H5    H     H_    0.423826 0.610803 0.350716 0.131137
H6    H     H_    0.576368 0.389897 0.649679 0.127751
H7    H     H_    0.416630 0.615182 0.240282 0.133807
H8    H     H_    0.583035 0.385747 0.760188 0.133192
H9    H     H_    0.057832 0.198198 0.461922 0.149030
H10   H     H_    0.942300 0.803104 0.539620 0.182948
H11   H     H_    0.321154 0.556104 0.408258 0.120090
H12   H     H_    0.497976 0.896288 0.657196 0.161949
H13   H     H_    0.678886 0.466226 0.594374 0.116595
H14   H     H_    0.320147 0.444259 0.593648 0.179872
H15   H     H_    0.680092 0.540181 0.404294 0.179512
H16   H     H_    0.215703 0.446781 0.593971 0.143202
H17   H     H_    0.784424 0.539634 0.404048 0.132983
H18   H     H_    0.352342 0.309547 0.287262 0.118031
H19   H     H_    0.645653 0.693372 0.715352 0.134816
H20   H     H_    0.306545 0.278068 0.385164 0.147881
H21   H     H_    0.692516 0.721631 0.617769 0.181680
H22   H     H_    0.938539 0.219677 0.366595 0.136243
H23   H     H_    0.449022 0.222566 0.265532 0.178940
H24   H     H_    0.929370 0.060177 0.384716 0.160946
H25   H     H_    0.999871 0.118485 0.383105 0.088677
H26   H     H_    0.068547 0.871686 0.454537 0.129716
H27   H     H_    0.074714 0.994945 0.508550 0.176585
H28   H     H_    0.005071 0.946798 0.488677 0.136129
H29   H     H_    0.675684 0.336686 0.335265 0.345031
H30   H     H_    0.323790 0.657271 0.661438 0.349665
H31   H     H_    0.207095 0.378366 0.368346 0.155729
H32   H     H_    0.261328 0.473457 0.333596 0.094571
H33   H     H_    0.187917 0.494407 0.315033 0.151671
H34   H     H_    0.548985 0.781805 0.735542 0.180940
H35   H     H_    0.800909 0.272581 0.587152 0.166904
H36   H     H_    0.743089 0.319662 0.639169 0.102608
H37   H     H_    0.815716 0.324554 0.661928 0.161322
H38   H     H_    0.274682 0.182245 0.529895 0.363838
H39   H     H_    0.725268 0.810618 0.471989 0.361015
H40   H     H_    0.446936 0.882962 0.423348 0.124502
H41   H     H_    0.553200 0.117092 0.576666 0.121558
H42   H     H_    0.507124 0.810356 0.945401 0.169238
H43   H     H_    0.491783 0.190056 0.054633 0.169005
H44   H     H_    0.500661 0.814449 0.054610 0.167874
N1    N     N_R   0.851927 0.501646 0.497775 -0.388763
N2    N     N_R   0.148172 0.500258 0.501901 -0.386931
N3    N     N_R   0.507585 0.494559 0.841619 -0.386759
N4    N     N_R   0.491529 0.505832 0.158421 -0.387014
N5    N     N_R   0.500010 0.500010 0.350920 -0.247002
N6    N     N_R   0.499990 0.499990 0.649080 -0.247188
O1    O     O_R   0.500000 0.319610 0.550310 -0.512232
O2    O     O_2   0.152464 0.288820 0.475321 -0.490556
O3    O     O_2   0.853049 0.291923 0.469173 -0.446792
O4    O     O_2   0.147150 0.710696 0.529091 -0.413796
O5    O     O_2   0.503950 0.276765 0.841787 -0.487046
O6    O     O_2   0.495239 0.723617 0.158252 -0.487632
O7    O     O_2   0.511761 0.712469 0.842263 -0.524791
O8    O     O_2   0.487158 0.287944 0.157779 -0.525191
O9    O     O_3   0.948140 0.171532 0.456760 -0.525314
O10   O     O_3   0.051831 0.829592 0.544567 -0.505704
O11   O     O_2   0.584253 0.291721 0.377268 -0.487749
O12   O     O_R   0.500000 0.680390 0.449690 -0.512166
O13   O     O_R   0.645344 0.391602 0.316390 -0.724319
O14   O     O_2   0.415836 0.710097 0.623559 -0.486706
O15   O     O_R   0.354147 0.602867 0.680603 -0.717605
O16   O     O_3   0.208679 0.563204 0.397980 -0.548484
O17   O     O_3   0.791103 0.463094 0.604873 -0.546802
O18   O     O_2   0.371080 0.105810 0.523008 -0.507574
O19   O     O_R   0.290781 0.198659 0.488336 -0.684026
O20   O     O_2   0.629673 0.892169 0.478303 -0.511271
O21   O     O_R   0.708823 0.795561 0.513539 -0.676598
O22   O     O_R   0.499990 0.319670 0.449690 -0.456185
O23   O     O_R   0.500010 0.680330 0.550310 -0.456675
O24   O     O_R   0.417880 0.499930 0.550320 -0.471934
O25   O     O_R   0.582120 0.500070 0.449680 -0.471678
O26   O     O_R   0.417880 0.499990 0.449700 -0.529976
O27   O     O_R   0.582120 0.500010 0.550300 -0.530251
O28   O     O_2   0.847521 0.712173 0.526052 -0.453055

loop_
_geom_bond_atom_site_label_1
_geom_bond_atom_site_label_2
_ccdc_geom_bond_type
C56   H13   S    
C71   H22   S    
C63   C65   A    
C34   C56   A    
C23   C45   A    
C71   H25   S    
C76   O17   S    
C14   C18   A    
C3    H16   S    
C24   C27   A    
C49   C73   S    
C45   H11   S    
C43   H43   S    
C15   H12   S    
C32   N4    A    
Cu1   Cu2   S    
C42   H42   S    
C48   C57   A    
C47   C49   A    
C66   O9    S    
C72   O10   S    
C49   N5    A    
C44   H44   S    
Cu1   O24   S    
H39   O21   S    
C30   O6    S    
C33   C42   A    
C47   H3    S    
C57   N3    S    
C36   C37   A    
C19   C21   A    
C74   O14   D    
C24   C26   A    
C6    N1    S    
C54   H8    S    
C50   C74   S    
Cu2   O26   S    
C11   C14   A    
C66   C69   A    
C58   C60   A    
C59   O4    S    
C33   C36   A    
C56   C78   A    
C60   C62   A    
C61   C63   A    
C62   C64   A    
C15   C19   A    
C29   N3    A    
C72   H26   S    
C2    H15   S    
C22   C25   A    
C5    C23   A    
C29   C38   A    
C45   C67   A    
C31   C33   A    
C68   O10   S    
C75   H31   S    
C64   C70   A    
C80   H14   S    
C35   C43   A    
C71   O9    S    
C21   H19   S    
C48   C50   A    
C60   C66   A    
C58   N1    A    
C22   C28   A    
C41   N2    A    
C77   O19   S    
C42   C44   A    
C14   H1    S    
C1    O1    A    
C3    C80   A    
C31   N3    A    
C41   O2    S    
C43   C46   A    
C34   O17   S    
C52   C54   A    
C22   H40   S    
C53   C55   A    
C72   H28   S    
C59   C61   A    
C76   H37   S    
C16   O26   A    
C52   N6    A    
C32   C35   A    
C74   O15   S    
C52   H6    S    
Cu2   O12   S    
C51   H5    S    
C75   H32   S    
Cu2   O25   S    
C51   N5    A    
Cu1   N6    S    
C41   C65   A    
C59   N2    A    
C30   N4    A    
C40   N1    A    
C7    H20   S    
C24   H41   S    
C76   H36   S    
C6    C34   A    
C73   O13   S    
C51   C53   A    
C2    C4    A    
C16   O24   A    
C62   C63   A    
C2    C78   A    
C79   O21   S    
C20   H18   S    
C10   C79   S    
C55   N4    S    
C8    C21   A    
C16   C67   S    
C9    C77   S    
C9    C11   A    
C50   N6    A    
C46   H2    S    
C4    C6    A    
C13   C15   A    
C53   H7    S    
C1    C26   S    
C58   O3    S    
C48   H4    S    
C4    H17   S    
C75   H33   S    
C12   O23   A    
C31   O7    S    
C11   C28   S    
C17   O25   A    
C47   C55   A    
C73   O11   D    
C7    C9    A    
C72   H27   S    
H38   O19   S    
C35   C37   A    
C40   O28   S    
C70   H10   S    
C67   C80   A    
C3    C5    A    
C10   C13   A    
C40   C64   A    
C77   O18   D    
Cu1   O27   S    
Cu1   O1    S    
C39   C44   A    
C75   O16   S    
C25   C27   A    
C29   O5    S    
C23   O16   S    
C26   C28   A    
C76   H35   S    
Cu1   O23   S    
H30   O15   S    
C12   C25   S    
H29   O13   S    
C18   H23   S    
C37   C39   A    
C61   C68   A    
C19   H34   S    
C65   C69   A    
C5    N2    S    
C36   C38   A    
C17   C78   S    
C30   C39   A    
C18   C20   A    
C32   O8    S    
C1    O22   A    
C17   O27   A    
C8    H21   S    
C38   C46   A    
Cu2   O22   S    
C12   O12   A    
C8    C10   A    
C7    C20   A    
C71   H24   S    
C68   C70   A    
C13   C27   S    
Cu2   N5    S    
C69   H9    S    
C79   O20   D    
C54   C57   A    
