data_mof_unit_30231.cif
_audit_creation_date              2013-03-05T15:43:29-0500
_audit_creation_method            fapswitch 2.2
_symmetry_space_group_name_H-M    P1
_symmetry_Int_Tables_number       1
_space_group_crystal_system       triclinic
_cell_length_a                    14.407989
_cell_length_b                    16.170631
_cell_length_c                    7.028619
_cell_angle_alpha                 89.999975
_cell_angle_beta                  80.98969
_cell_angle_gamma                 90.0
_cell_volume                      1617.36440076

loop_
_atom_site_label
_atom_site_type_symbol
_atom_site_description
_atom_site_fract_x
_atom_site_fract_y
_atom_site_fract_z
_atom_type_partial_charge
O1    O     O_R   0.337460 0.413110 0.524760 -0.555050
O2    O     O_R   0.662540 0.913110 0.475240 -0.555050
O3    O     O_R   0.348690 0.587910 0.191230 -0.554606
O4    O     O_R   0.651310 0.087910 0.808770 -0.554606
O5    O     O_R   0.166530 0.586890 0.082470 -0.535047
O6    O     O_R   0.833470 0.086890 0.917530 -0.535047
C1    C     C_R   0.370867 0.616023 0.353668 0.863485
C2    C     C_R   0.629133 0.116024 0.646332 0.863486
O7    O     O_R   0.348700 0.413830 0.191250 -0.546244
O8    O     O_R   0.651300 0.913830 0.808750 -0.546245
O9    O     O_R   0.166530 0.411570 0.082490 -0.532269
O10   O     O_R   0.833470 0.911570 0.917510 -0.532271
C3    C     C_R   0.370892 0.385630 0.353581 0.905497
C4    C     C_R   0.629108 0.885630 0.646419 0.905496
O11   O     O_R   0.337460 0.588430 0.524740 -0.584553
O12   O     O_R   0.662540 0.088430 0.475260 -0.584553
O13   O     O_3   0.192230 0.499460 0.407330 -0.232463
O14   O     O_3   0.807770 0.999460 0.592670 -0.232465
V1    V     V_3+5 0.263080 0.500100 0.108540 1.272582
V2    V     V_3+5 0.736920 0.000100 0.891460 1.272581
O15   O     O_R   0.155290 0.412090 0.756570 -0.485605
O16   O     O_R   0.844710 0.912090 0.243430 -0.485605
C5    C     C_R   0.134400 0.381823 0.931423 0.940660
C6    C     C_R   0.865600 0.881823 0.068577 0.940658
O17   O     O_R   0.155290 0.586170 0.756550 -0.566439
O18   O     O_R   0.844710 0.086170 0.243450 -0.566439
C7    C     C_R   0.134049 0.615540 0.932021 0.881785
C8    C     C_R   0.865951 0.115540 0.067979 0.881785
V3    V     V_3+5 0.240910 0.499900 0.616030 1.284274
V4    V     V_3+5 0.759090 0.999900 0.383970 1.284274
O19   O     O_3   0.311760 0.500540 0.867100 -0.300884
O20   O     O_3   0.688240 0.000540 0.132900 -0.300884
C9    C     C_3   0.084824 0.743475 0.132894 0.205254
C10   C     C_3   0.915176 0.243474 0.867104 0.205255
C11   C     C_3   0.012965 0.815743 0.166192 0.187826
C12   C     C_3   0.987036 0.315743 0.833807 0.187826
H1    H     H_    0.050791 0.874765 0.124024 0.142085
H2    H     H_    0.949210 0.374764 0.875973 0.142083
C13   C     C_3   0.960378 0.647791 0.022762 0.115619
C14   C     C_3   0.039622 0.147791 0.977240 0.115619
C15   C     C_3   0.058666 0.737856 0.785479 -0.215275
C16   C     C_3   0.941333 0.237857 0.214520 -0.215278
C17   C     C_3   0.061767 0.684915 0.968854 -0.297686
C18   C     C_3   0.938234 0.184915 0.031146 -0.297687
C19   C     C_3   0.933434 0.807178 0.038677 -0.323587
C20   C     C_3   0.066566 0.307178 0.961323 -0.323587
C21   C     C_3   0.880497 0.718374 0.052167 0.487909
C22   C     C_3   0.119504 0.218373 0.947836 0.487909
C23   C     C_3   0.990493 0.811974 0.833536 -0.245873
C24   C     C_3   0.009507 0.311974 0.166463 -0.245876
H3    H     H_    0.030858 0.870202 0.809856 0.213291
H4    H     H_    0.969142 0.370202 0.190142 0.213290
H5    H     H_    0.564430 0.808302 0.354273 0.136573
H6    H     H_    0.435570 0.308302 0.645727 0.136572
C25   C     C_2   0.440102 0.684045 0.344148 -0.123392
C26   C     C_2   0.559898 0.184045 0.655852 -0.123392
C27   C     C_2   0.465328 0.716958 0.504929 -0.054631
C28   C     C_2   0.534672 0.216958 0.495071 -0.054630
C29   C     C_2   0.559685 0.817758 0.656170 -0.127112
C30   C     C_2   0.440315 0.317758 0.343830 -0.127112
C31   C     C_2   0.534187 0.784990 0.495487 -0.021375
C32   C     C_2   0.465813 0.284990 0.504513 -0.021375
H7    H     H_    0.079782 0.706942 0.267260 0.140830
H8    H     H_    0.920220 0.206940 0.732738 0.140830
H9    H     H_    0.938582 0.814280 0.738676 0.252234
H10   H     H_    0.061418 0.314280 0.261323 0.252234
H11   H     H_    0.951986 0.610045 0.895029 0.132664
H12   H     H_    0.048012 0.110045 0.104974 0.132664
N1    N     N_R   0.820741 0.714475 0.897772 0.079228
O21   O     O_R   0.744593 0.758904 0.914103 -0.333930
O22   O     O_R   0.835468 0.661932 0.755943 -0.253650
N2    N     N_R   0.179259 0.214475 0.102232 0.079230
O23   O     O_R   0.255404 0.258907 0.085906 -0.333931
O24   O     O_R   0.164537 0.161927 0.244051 -0.253646
H13   H     H_    0.434930 0.693723 0.646116 0.121204
H14   H     H_    0.565070 0.193723 0.353884 0.121203
H15   H     H_    0.529361 0.793927 0.796833 0.088893
H16   H     H_    0.470639 0.293927 0.203167 0.088892
H17   H     H_    0.470599 0.707805 0.203521 0.094967
H18   H     H_    0.529401 0.207805 0.796479 0.094966
N3    N     N_R   0.181757 0.775286 0.095022 0.079163
O25   O     O_R   0.239905 0.756990 0.212817 -0.361927
O26   O     O_R   0.208118 0.828080 0.957387 -0.332465
N4    N     N_R   0.818244 0.275286 0.904973 0.079164
O27   O     O_R   0.760097 0.256989 0.787176 -0.361928
O28   O     O_R   0.791882 0.328080 0.042607 -0.332467
N5    N     N_R   0.976078 0.823487 0.368425 0.069564
O29   O     O_R   0.927929 0.763300 0.456462 -0.316178
O30   O     O_R   0.987298 0.892460 0.457727 -0.323971
N6    N     N_R   0.023924 0.323486 0.631574 0.069564
O31   O     O_R   0.072073 0.263299 0.543537 -0.316178
O32   O     O_R   0.012705 0.392459 0.542271 -0.323972
N7    N     N_R   0.953436 0.586974 0.180511 0.116672
O33   O     O_R   0.965148 0.606987 0.354218 -0.271842
O34   O     O_R   0.926876 0.512059 0.149286 -0.322464
N8    N     N_R   0.046565 0.086973 0.819492 0.116671
O35   O     O_R   0.034854 0.106986 0.645784 -0.271841
O36   O     O_R   0.073124 0.012058 0.850720 -0.322464
N9    N     N_R   0.814885 0.704863 0.234056 0.161282
O37   O     O_R   0.775860 0.632421 0.264253 -0.223718
O38   O     O_R   0.768688 0.766691 0.320958 -0.313592
N10   N     N_R   0.185116 0.204863 0.765947 0.161281
O39   O     O_R   0.224141 0.132421 0.735751 -0.223717
O40   O     O_R   0.231313 0.266691 0.679046 -0.313594
H19   H     H_    0.034860 0.699284 0.671538 0.191401
H20   H     H_    0.965139 0.199285 0.328463 0.191398
H21   H     H_    0.129578 0.760167 0.722035 0.190896
H22   H     H_    0.870421 0.260168 0.277962 0.190897

loop_
_geom_bond_atom_site_label_1
_geom_bond_atom_site_label_2
_geom_bond_distance
_ccdc_geom_bond_type
C28   C32   1.475918 S    
N5    O29   1.294960 A    
N7    O33   1.299380 A    
O6    C8    1.306465 A    
O13   V3    1.722197 S    
C1    C25   1.479375 S    
O4    C2    1.313984 A    
V1    O19   1.731747 S    
C29   H15   1.086992 S    
N3    O25   1.300834 A    
N6    O31   1.294964 A    
C28   H14   1.087024 S    
C3    C30   1.479296 S    
C4    C29   1.479297 S    
C30   H16   1.086993 S    
C15   H19   1.110903 S    
C6    C19   1.546623 S    
C11   H1    1.115879 S    
N4    O28   1.301469 A    
O3    C1    1.313983 A    
O12   V4    2.028965 S    
C10   N4    1.472938 S    
C21   N9    1.482304 S    
C30   C32   1.349519 D    
N1    O22   1.301697 A    
O7    C3    1.313864 A    
C21   N1    1.488457 S    
C9    C11   1.554522 S    
O5    C7    1.306466 A    
C11   N5    1.442895 S    
O7    V1    2.007613 S    
C13   N7    1.473700 S    
O8    V2    2.007615 S    
C23   H3    1.105528 S    
N8    O36   1.299407 A    
C24   H4    1.105528 S    
O3    V1    2.024850 S    
O14   V4    1.722196 S    
C15   H21   1.109128 S    
C10   C12   1.554521 S    
C1    O11   1.302024 A    
C2    O12   1.302023 A    
C5    C20   1.546625 S    
C15   C17   1.553741 S    
C2    C26   1.479375 S    
N10   O39   1.302326 A    
C16   C18   1.553740 S    
C22   N2    1.488458 S    
C15   C23   1.552882 S    
N3    O26   1.301468 A    
O11   V3    2.028963 S    
C19   C21   1.621809 S    
O17   V3    2.015387 S    
C20   C22   1.621811 S    
C29   C31   1.349520 D    
C9    C17   1.567294 S    
C10   C18   1.567294 S    
N4    O27   1.300833 A    
N2    O24   1.301695 A    
O8    C4    1.313864 A    
C13   C17   1.569877 S    
H6    C32   1.087034 S    
O15   V3    2.032758 S    
C8    C18   1.525018 S    
N10   O40   1.299365 A    
C25   H17   1.087027 S    
N6    O32   1.302259 A    
N9    O37   1.302331 A    
C19   C23   1.545810 S    
C9    H7    1.106660 S    
C22   N10   1.482304 S    
N8    O35   1.299380 A    
O10   V2    2.024319 S    
C10   H8    1.106660 S    
C12   C20   1.567528 S    
C24   H10   1.077740 S    
C23   H9    1.077740 S    
C16   C24   1.552881 S    
N9    O38   1.299366 A    
C16   H20   1.110903 S    
O18   V4    2.015385 S    
C25   C27   1.349467 D    
O16   C6    1.313261 A    
O1    C3    1.302123 A    
H5    C31   1.087035 S    
C12   H2    1.115879 S    
C11   C19   1.567528 S    
C13   C21   1.611077 S    
V2    O20   1.731747 S    
C12   N6    1.442896 S    
C14   C22   1.611077 S    
O10   C6    1.314172 A    
O16   V4    2.032759 S    
C13   H11   1.107793 S    
N2    O23   1.301381 A    
C27   C31   1.475918 S    
O5    V1    2.004550 S    
O17   C7    1.312279 A    
O6    V2    2.004550 S    
C20   C24   1.545808 S    
O18   C8    1.312280 A    
C26   H18   1.087027 S    
O2    V4    2.009181 S    
C27   H13   1.087024 S    
O15   C5    1.313262 A    
C14   N8    1.473699 S    
V3    O19   2.172663 S    
V4    O20   2.172665 S    
O1    V3    2.009181 S    
C16   H22   1.109128 S    
O9    C5    1.314171 A    
O13   V1    2.186553 S    
C26   C28   1.349466 D    
O14   V2    2.186551 S    
O9    V1    2.024320 S    
N1    O21   1.301384 A    
O2    C4    1.302123 A    
O4    V2    2.024850 S    
C7    C17   1.525019 S    
C14   C18   1.569876 S    
N7    O34   1.299409 A    
C14   H12   1.107792 S    
N5    O30   1.302259 A    
C9    N3    1.472938 S    
