data_mof_unit_66449.cif
_audit_creation_date              2012-12-10T18:16:08-0500
_audit_creation_method            fapswitch 2.2
_symmetry_space_group_name_H-M    P1
_symmetry_Int_Tables_number       1
_space_group_crystal_system       triclinic
_cell_length_a                    42.382078
_cell_length_b                    29.209196
_cell_length_c                    29.202801
_cell_angle_alpha                 90.0
_cell_angle_beta                  133.850132
_cell_angle_gamma                 90.000056
_cell_volume                      26070.8136239

loop_
_atom_site_label
_atom_site_type_symbol
_atom_type_description
_atom_site_fract_x
_atom_site_fract_y
_atom_site_fract_z
_atom_type_partial_charge
C1    C     C_R   0.499977 0.586678 0.499997 0.908073
C2    C     C_1   0.834548 0.000001 0.335462 -0.055059
C3    C     C_3   0.760836 0.962858 0.239867 0.204813
C4    C     C_1   0.372572 0.500000 0.373190 -0.200489
C5    C     C_1   0.872572 0.000000 0.373190 -0.200489
C6    C     C_1   0.121249 0.500000 0.121324 -0.201186
C7    C     C_1   0.621249 0.000000 0.121324 -0.201186
C8    C     C_3   0.261236 0.499898 0.305607 -0.245141
C9    C     C_3   0.761236 0.999818 0.305607 -0.245141
C10   C     C_3   0.288986 0.500001 0.289862 0.179089
C11   C     C_3   0.788986 0.000002 0.289862 0.179088
C12   C     C_3   0.278101 0.579644 0.233201 -0.921222
C13   C     C_1   0.159284 0.500001 0.159602 -0.059981
C14   C     C_3   0.278100 0.420577 0.232823 -0.921206
C15   C     C_3   0.778102 0.079730 0.233350 -0.921225
C16   C     C_3   0.778100 0.920663 0.232675 -0.921197
C17   C     C_1   0.659284 0.000001 0.159602 -0.059981
C18   C     C_1   0.499960 0.637262 0.499954 -0.221642
C19   C     C_1   0.499960 0.362738 0.499954 -0.221643
C20   C     C_1   0.999960 0.137262 0.499954 -0.221642
C21   C     C_1   0.999960 0.862738 0.499954 -0.221643
C22   C     C_1   0.499950 0.679399 0.499937 0.004579
C23   C     C_1   0.499950 0.320601 0.499938 0.004577
C24   C     C_1   0.999950 0.179399 0.499937 0.004579
C25   C     C_R   0.499977 0.413322 0.499997 0.908070
C26   C     C_1   0.999950 0.820601 0.499938 0.004576
C27   C     C_1   0.499945 0.729135 0.499934 0.006998
C28   C     C_1   0.499945 0.270865 0.499934 0.006997
C29   C     C_1   0.999945 0.229135 0.499934 0.006999
C30   C     C_1   0.999945 0.770865 0.499934 0.006996
C31   C     C_1   0.499944 0.771272 0.499940 0.006670
C32   C     C_1   0.499944 0.228728 0.499940 0.006668
C33   C     C_1   0.999944 0.271272 0.499940 0.006670
C34   C     C_1   0.999944 0.728728 0.499940 0.006668
C35   C     C_1   0.499947 0.821008 0.499953 0.004802
C36   C     C_R   0.999977 0.086678 0.499997 0.908074
C37   C     C_1   0.499947 0.178992 0.499953 0.004802
C38   C     C_1   0.999947 0.321008 0.499953 0.004803
C39   C     C_1   0.999947 0.678992 0.499953 0.004801
C40   C     C_1   0.499951 0.863146 0.499967 -0.213579
C41   C     C_1   0.499951 0.136854 0.499967 -0.213580
C42   C     C_1   0.999951 0.363146 0.499967 -0.213579
C43   C     C_1   0.999951 0.636854 0.499967 -0.213580
C44   C     C_R   0.417118 0.500000 0.417314 0.951902
C45   C     C_R   0.917118 0.999999 0.417314 0.951901
C46   C     C_1   0.635842 0.500000 0.635498 -0.221167
C47   C     C_R   0.999977 0.913322 0.499997 0.908069
C48   C     C_1   0.135842 1.000000 0.635498 -0.221167
C49   C     C_1   0.677114 0.500000 0.676747 0.016894
C50   C     C_1   0.177114 1.000000 0.676747 0.016894
C51   C     C_1   0.726260 0.500000 0.725956 0.003387
C52   C     C_1   0.226260 1.000000 0.725956 0.003387
C53   C     C_1   0.767533 0.500000 0.767309 0.003384
C54   C     C_1   0.267533 1.000000 0.767309 0.003384
C55   C     C_1   0.816679 0.500000 0.816566 0.016886
C56   C     C_1   0.316679 1.000000 0.816566 0.016886
C57   C     C_1   0.857952 0.500000 0.857930 -0.221381
C58   C     C_3   0.204780 0.500002 0.205276 0.127304
C59   C     C_1   0.357952 1.000000 0.857930 -0.221381
C60   C     C_R   0.994866 0.500000 0.081684 0.909102
C61   C     C_R   0.494866 0.000000 0.081684 0.909102
C62   C     C_R   0.076690 0.500000 0.076480 0.951398
C63   C     C_R   0.576690 1.000000 0.076480 0.951398
C64   C     C_R   0.992979 0.500000 0.906349 0.907132
C65   C     C_R   0.492979 0.000000 0.906349 0.907132
C66   C     C_R   0.907987 0.500000 0.908065 0.890859
C67   C     C_R   0.407987 1.000000 0.908065 0.890859
C68   C     C_R   0.585809 0.500000 0.585700 0.890713
C69   C     C_3   0.704780 0.000003 0.205276 0.127304
C70   C     C_R   0.085809 0.000000 0.585700 0.890713
C71   C     C_R   0.499067 0.000000 0.412878 0.897458
C72   C     C_R   0.999067 0.500000 0.412878 0.897458
C73   C     C_R   0.499957 0.913729 0.499983 0.897203
C74   C     C_R   0.499957 0.086271 0.499983 0.897203
C75   C     C_R   0.999957 0.413729 0.499983 0.897203
C76   C     C_R   0.999957 0.586271 0.499983 0.897203
C77   C     C_R   0.500779 0.000000 0.587068 0.897052
C78   C     C_R   0.000779 0.500000 0.587068 0.897052
C79   C     C_1   0.995614 0.500000 0.133003 -0.221874
C80   C     C_3   0.232190 0.500105 0.188963 -0.180108
C81   C     C_1   0.495614 0.000000 0.133003 -0.221874
C82   C     C_1   0.996249 0.500000 0.175770 0.004405
C83   C     C_1   0.496249 0.000000 0.175770 0.004405
C84   C     C_1   0.996991 0.500000 0.226237 0.006980
C85   C     C_1   0.496991 0.000000 0.226237 0.006980
C86   C     C_1   0.497595 0.000000 0.268973 0.006646
C87   C     C_1   0.997595 0.500000 0.268973 0.006646
C88   C     C_1   0.498251 1.000000 0.319354 0.004641
C89   C     C_1   0.998251 0.500000 0.319354 0.004641
C90   C     C_1   0.498713 0.000000 0.361949 -0.213677
C91   C     C_3   0.732190 0.000188 0.188963 -0.180109
C92   C     C_1   0.998713 0.500000 0.361949 -0.213677
C93   C     C_1   0.994041 0.500000 0.856813 -0.221728
C94   C     C_1   0.494041 1.000000 0.856813 -0.221728
C95   C     C_3   0.232385 0.537787 0.254980 -0.161822
C96   C     C_3   0.232384 0.462112 0.254800 -0.161824
C97   C     C_3   0.732385 0.037747 0.255051 -0.161819
C98   C     C_3   0.732384 0.962073 0.254730 -0.161824
C99   C     C_1   0.995275 0.500000 0.815914 0.004484
C100  C     C_1   0.495275 0.000000 0.815914 0.004484
C101  C     C_1   0.996911 0.500000 0.767821 0.006733
C102  C     C_1   0.334548 0.500001 0.335462 -0.055059
C103  C     C_1   0.496910 0.000000 0.767821 0.006733
C104  C     C_1   0.498286 0.000000 0.727070 0.006481
C105  C     C_1   0.998286 0.500000 0.727070 0.006481
C106  C     C_1   0.499733 1.000000 0.678781 0.004894
C107  C     C_1   0.999733 0.500000 0.678781 0.004894
C108  C     C_1   0.500588 0.000000 0.637490 -0.213882
C109  C     C_1   0.000588 0.500000 0.637490 -0.213882
C110  C     C_3   0.260836 0.537289 0.240113 0.204828
C111  C     C_3   0.260836 0.462817 0.239936 0.204816
C112  C     C_3   0.760837 0.037329 0.240182 0.204833
H1    H     H_    0.219135 0.568532 0.259199 0.146679
H2    H     H_    0.298398 0.600052 0.277615 0.247125
H3    H     H_    0.298331 0.569248 0.223744 0.247554
H4    H     H_    0.250240 0.399481 0.192631 0.246662
H5    H     H_    0.298330 0.431114 0.223415 0.247560
H6    H     H_    0.298397 0.400055 0.277139 0.247124
H7    H     H_    0.750242 0.100906 0.193299 0.246669
H8    H     H_    0.798399 0.100093 0.277801 0.247124
H9    H     H_    0.798331 0.069389 0.223873 0.247549
H10   H     H_    0.750240 0.899590 0.192444 0.246658
H11   H     H_    0.798329 0.931256 0.223286 0.247561
H12   H     H_    0.219134 0.431285 0.258873 0.146683
H13   H     H_    0.798396 0.900097 0.276952 0.247123
H14   H     H_    0.719135 0.068459 0.259327 0.146677
H15   H     H_    0.719134 0.931213 0.258745 0.146684
H16   H     H_    0.218973 0.500190 0.140255 0.142929
H17   H     H_    0.718973 0.000338 0.140255 0.142930
H18   H     H_    0.274552 0.499814 0.354366 0.155867
H19   H     H_    0.774552 0.999668 0.354365 0.155867
H20   H     H_    0.250242 0.600797 0.193110 0.246667
O1    O     O_R   0.500400 0.563130 0.536080 -0.597139
O2    O     O_R   0.963990 0.500000 0.400890 -0.593530
O3    O     O_R   0.534410 1.000000 0.471310 -0.593933
O4    O     O_R   0.034410 0.500000 0.471310 -0.593933
O5    O     O_R   0.464750 0.936830 0.464780 -0.593786
O6    O     O_R   0.464750 0.063170 0.464780 -0.593787
O7    O     O_R   0.964750 0.436830 0.464780 -0.593786
O8    O     O_R   0.964750 0.563170 0.464780 -0.593787
O9    O     O_R   0.535170 0.936820 0.535200 -0.593691
O10   O     O_R   0.535170 0.063180 0.535200 -0.593690
O11   O     O_R   0.035170 0.436820 0.535200 -0.593691
O12   O     O_R   0.500400 0.436870 0.536080 -0.597141
O13   O     O_R   0.035170 0.563180 0.535200 -0.593690
O14   O     O_R   0.465520 0.000000 0.528690 -0.593629
O15   O     O_R   0.965520 0.500000 0.528690 -0.593629
O16   O     O_R   0.535930 1.000000 0.599110 -0.593601
O17   O     O_R   0.035930 0.500000 0.599110 -0.593601
O18   O     O_R   0.499540 0.563080 0.463930 -0.596898
O19   O     O_R   0.499540 0.436920 0.463930 -0.596897
O20   O     O_R   0.999540 0.063080 0.463930 -0.596898
O21   O     O_R   0.999540 0.936920 0.463930 -0.596897
O22   O     O_R   0.438030 0.500000 0.473700 -0.614824
O23   O     O_R   0.000400 0.063130 0.536080 -0.597139
O24   O     O_R   0.938030 1.000000 0.473700 -0.614824
O25   O     O_R   0.437170 0.500000 0.401550 -0.613358
O26   O     O_R   0.937170 0.000000 0.401550 -0.613358
O27   O     O_R   0.562760 0.500000 0.598450 -0.591659
O28   O     O_R   0.062760 0.000000 0.598450 -0.591659
O29   O     O_R   0.561900 0.500000 0.526300 -0.591727
O30   O     O_R   0.061900 1.000000 0.526300 -0.591727
O31   O     O_R   0.994600 0.535610 0.057840 -0.596990
O32   O     O_R   0.994600 0.464390 0.057840 -0.596989
O33   O     O_R   0.494600 0.035610 0.057840 -0.596990
O34   O     O_R   0.000400 0.936870 0.536080 -0.597141
O35   O     O_R   0.494600 0.964390 0.057840 -0.596988
O36   O     O_R   0.056200 0.535620 0.056290 -0.614039
O37   O     O_R   0.056200 0.464380 0.056290 -0.614039
O38   O     O_R   0.556200 0.035620 0.056290 -0.614038
O39   O     O_R   0.556200 0.964380 0.056290 -0.614039
O40   O     O_R   0.993060 0.535640 0.930020 -0.597121
O41   O     O_R   0.993060 0.464360 0.930020 -0.597121
O42   O     O_R   0.493060 0.035640 0.930020 -0.597121
O43   O     O_R   0.493060 0.964360 0.930020 -0.597120
O44   O     O_R   0.931470 0.535630 0.931560 -0.591651
O45   O     O_R   0.931470 0.464370 0.931560 -0.591652
O46   O     O_R   0.431470 0.035630 0.931560 -0.591651
O47   O     O_R   0.431470 0.964370 0.931560 -0.591652
O48   O     O_R   0.463990 1.000000 0.400890 -0.593530
Zn1   Zn    Zn3+2 0.500540 0.500000 0.548170 0.968273
Zn2   Zn    Zn3+2 0.952950 0.500000 0.452980 0.969172
Zn3   Zn    Zn3+2 0.546980 1.000000 0.547020 0.968923
Zn4   Zn    Zn3+2 0.046980 0.500000 0.547020 0.968923
Zn5   Zn    Zn3+2 0.000540 0.000000 0.548170 0.968273
Zn6   Zn    Zn3+2 0.499390 0.500000 0.451830 0.968728
Zn7   Zn    Zn3+2 0.999390 0.000000 0.451830 0.968728
Zn8   Zn    Zn3+2 0.993830 0.547580 0.993940 0.968513
Zn9   Zn    Zn3+2 0.993830 0.452420 0.993940 0.968512
Zn10  Zn    Zn3+2 0.493830 0.047580 0.993940 0.968513
Zn11  Zn    Zn3+2 0.493830 0.952420 0.993940 0.968512
Zn12  Zn    Zn3+2 0.452950 0.000000 0.452980 0.969172

loop_
_geom_bond_atom_site_label_1
_geom_bond_atom_site_label_2
_ccdc_geom_bond_type
C71   O48   A    
O19   Zn6   S    
C62   O36   A    
C21   C26   T    
C60   C79   S    
C17   C69   S    
C9    C98   S    
O36   Zn8   S    
C65   O42   A    
O34   Zn5   S    
C53   C55   S    
C8    C96   S    
C84   C87   T    
O37   Zn9   S    
C57   C66   S    
O14   Zn12  S    
O26   Zn7   S    
C104  C106  S    
C73   O9    A    
C68   O29   A    
C15   H8    S    
C105  C107  S    
C46   C49   T    
C1    C18   S    
C73   O5    A    
C75   O7    A    
C16   H11   S    
C95   H1    S    
C64   C93   S    
C38   C42   T    
C71   O3    A    
O30   Zn7   S    
C72   C92   S    
C86   C88   S    
C72   O4    A    
O22   Zn1   S    
C29   C33   T    
C60   O31   A    
C40   C73   S    
C3    C91   S    
C58   C96   S    
C24   C29   S    
C16   H10   S    
C59   C67   S    
C41   C74   S    
C63   O39   A    
C14   H4    S    
C20   C24   T    
C14   H6    S    
C4    C102  T    
O17   Zn4   S    
C50   C52   S    
C66   O45   A    
O3    Zn3   S    
C68   O27   A    
C12   H20   S    
C16   H13   S    
C93   C99   T    
C61   O33   A    
C58   C80   S    
C12   H3    S    
C69   C98   S    
C48   C50   T    
O10   Zn3   S    
C74   O10   A    
C65   O43   A    
C44   O25   A    
C107  C109  T    
C66   O44   A    
C8    C95   S    
O28   Zn5   S    
O2    Zn2   S    
O20   Zn7   S    
C1    O1    A    
C2    C11   S    
C70   O30   A    
C12   C110  S    
C81   C83   T    
C52   C54   T    
O44   Zn8   S    
C12   H2    S    
C9    H19   S    
C101  C105  T    
C14   C111  S    
C96   C111  S    
C54   C56   S    
O45   Zn9   S    
C96   H12   S    
C27   C31   T    
C34   C39   S    
C28   C32   T    
O25   Zn6   S    
O48   Zn12  S    
C47   O34   A    
C30   C34   T    
C36   O20   A    
C63   O38   A    
C39   C43   T    
C13   C58   S    
C80   H16   S    
C49   C51   S    
O24   Zn5   S    
C5    C45   S    
C67   O46   A    
C100  C103  S    
O8    Zn2   S    
C4    C44   S    
O31   Zn8   S    
C51   C53   T    
C20   C36   S    
C91   C112  S    
C64   O40   A    
C19   C23   T    
C58   C95   S    
C46   C68   S    
O29   Zn6   S    
O5    Zn12  S    
C74   O6    A    
C72   O2    A    
O13   Zn4   S    
C94   C100  T    
C14   H5    S    
O4    Zn4   S    
O33   Zn10  S    
C42   C75   S    
O39   Zn11  S    
C1    O18   A    
C45   O24   A    
C32   C37   S    
O27   Zn1   S    
C89   C92   T    
C9    C11   S    
C77   O16   A    
C7    C63   S    
C85   C86   T    
O7    Zn2   S    
C75   O11   A    
C78   O15   A    
O42   Zn10  S    
O15   Zn2   S    
O1    Zn1   S    
C65   C94   S    
C99   C101  S    
C88   C90   T    
C76   O13   A    
C26   C30   S    
C82   C84   S    
C22   C27   S    
C87   C89   S    
O23   Zn5   S    
C31   C35   S    
C25   O12   A    
C23   C28   S    
C76   O8    A    
C61   O35   A    
O32   Zn9   S    
O35   Zn11  S    
C43   C76   S    
C97   C112  S    
C62   O37   A    
O12   Zn1   S    
C98   H15   S    
C9    C97   S    
C15   H9    S    
C83   C85   S    
C11   C112  S    
C18   C22   T    
C15   C112  S    
C77   C108  S    
O6    Zn12  S    
C45   O26   A    
C48   C70   S    
C97   H14   S    
C95   C110  S    
C7    C17   T    
O18   Zn6   S    
C79   C82   T    
C10   C111  S    
C91   H17   S    
C47   O21   A    
O38   Zn10  S    
C33   C38   S    
C56   C59   T    
C25   O19   A    
C44   O22   A    
O11   Zn4   S    
C6    C62   S    
C55   C57   T    
C35   C40   T    
C67   O47   A    
C6    C13   T    
C8    H18   S    
C3    C98   S    
C71   C90   S    
C106  C108  T    
O40   Zn8   S    
O16   Zn3   S    
O46   Zn10  S    
C80   C111  S    
O41   Zn9   S    
C60   O32   A    
C15   H7    S    
C10   C110  S    
C78   C109  S    
C70   O28   A    
C37   C41   T    
C19   C25   S    
O43   Zn11  S    
C3    C11   S    
O21   Zn7   S    
C2    C5    T    
O47   Zn11  S    
C36   O23   A    
C8    C10   S    
C80   C110  S    
C103  C104  T    
C61   C81   S    
O9    Zn3   S    
C64   O41   A    
C69   C91   S    
C77   O14   A    
C10   C102  S    
C3    C16   S    
C78   O17   A    
C21   C47   S    
C69   C97   S    
