data_mof_unit_52263.cif
_audit_creation_date              2012-12-10T16:42:59-0500
_audit_creation_method            fapswitch 2.2
_symmetry_space_group_name_H-M    P1
_symmetry_Int_Tables_number       1
_space_group_crystal_system       triclinic
_cell_length_a                    7.593063
_cell_length_b                    8.701052
_cell_length_c                    12.960029
_cell_angle_alpha                 84.80564
_cell_angle_beta                  78.360537
_cell_angle_gamma                 102.781402
_cell_volume                      809.620440065

loop_
_atom_site_label
_atom_site_type_symbol
_atom_type_description
_atom_site_fract_x
_atom_site_fract_y
_atom_site_fract_z
_atom_type_partial_charge
C1    C     C_R   0.453695 0.200286 0.507954 0.840664
C2    C     C_R   0.546152 0.799550 0.495221 0.835019
C3    C     C_R   0.465743 0.496232 0.700527 0.790044
C4    C     C_R   0.533237 0.499811 0.298919 0.812062
C5    C     C_R   0.551527 0.501884 0.184134 -0.088146
C6    C     C_R   0.447839 0.480545 0.814223 -0.056965
C7    C     C_R   0.340599 0.302089 0.979840 0.177543
C8    C     C_R   0.729974 0.626468 0.007634 0.182943
C9    C     C_R   0.340600 0.337187 0.873360 -0.200955
C10   C     C_R   0.713551 0.597554 0.117007 -0.237145
C11   C     C_R   0.568737 0.589013 0.858148 0.136587
C12   C     C_R   0.410159 0.414315 0.140622 0.098478
C13   C     C_R   0.583030 0.547533 0.963831 0.076357
C14   C     C_R   0.443690 0.418558 0.029101 0.063614
C15   C     C_2   0.437653 0.033126 0.533245 0.068015
C16   C     C_2   0.565517 0.967651 0.475594 0.028958
Cu1   Cu    Cu3+1 0.686350 0.517570 0.488220 1.125287
Cu2   Cu    Cu3+1 0.313650 0.482430 0.511780 1.126231
H1    H     H_    0.824263 0.658489 0.150814 0.202592
H2    H     H_    0.264838 0.247938 0.834547 0.166675
N1    N     N_2   0.033570 0.455950 0.529530 0.086831
N2    N     N_2   0.966430 0.544050 0.470470 0.081905
O1    O     O_R   0.621060 0.286250 0.492350 -0.574706
O2    O     O_R   0.378940 0.713750 0.507650 -0.535614
O3    O     O_R   0.306310 0.256580 0.512240 -0.547416
O4    O     O_R   0.693690 0.743420 0.487760 -0.527679
O5    O     O_R   0.631800 0.512400 0.642670 -0.513498
O6    O     O_R   0.368200 0.487600 0.357330 -0.560716
O7    O     O_R   0.317060 0.482730 0.662570 -0.548743
O8    O     O_R   0.682940 0.517270 0.337430 -0.567910
C17   C     C_3   0.217884 0.336654 0.210009 -0.793907
H3    H     H_    0.157595 0.427414 0.249113 0.270793
H4    H     H_    0.114559 0.288416 0.164781 0.230372
H5    H     H_    0.224694 0.240288 0.270339 0.230624
C18   C     C_3   0.658944 0.754175 0.796800 -0.785891
H6    H     H_    0.583042 0.785321 0.736459 0.198622
H7    H     H_    0.653360 0.845559 0.850969 0.224807
H8    H     H_    0.803535 0.762252 0.754260 0.265698
C19   C     C_3   0.257671 0.130899 0.030618 -0.875465
H9    H     H_    0.309070 0.050051 0.976736 0.237783
H10   H     H_    0.298933 0.103975 0.106293 0.250623
H11   H     H_    0.104129 0.102859 0.044221 0.230567
C20   C     C_3   0.914568 0.725307 0.941322 -0.836805
H12   H     H_    0.025216 0.734140 0.986641 0.227661
H13   H     H_    0.960735 0.668625 0.870856 0.272327
H14   H     H_    0.906836 0.848704 0.917334 0.224212
S1    S     S_3+6 0.913499 0.347630 0.652934 0.133872
O9    O     O_2   0.898194 0.460329 0.733632 -0.310902
O10   O     O_2   0.725659 0.246212 0.655259 -0.313222
O11   O     O_3   0.036422 0.223037 0.690801 -0.524634
H15   H     H_    0.964916 0.168775 0.762369 0.338095
S2    S     S_3+6 0.088832 0.726391 0.394650 0.118984
O12   O     O_2   0.099886 0.852241 0.466414 -0.296088
O13   O     O_2   0.278841 0.733085 0.331469 -0.311979
O14   O     O_3   0.968624 0.773683 0.306276 -0.542420
H16   H     H_    0.043900 0.877300 0.265616 0.339220
C21   C     C_3   0.306669 0.953838 0.638929 -0.766030
H17   H     H_    0.336924 0.027385 0.701945 0.209794
H18   H     H_    0.160709 0.946508 0.634830 0.281680
H19   H     H_    0.320061 0.833677 0.666354 0.213852
C22   C     C_3   0.706449 0.055487 0.375378 -0.791603
H20   H     H_    0.828458 0.131141 0.396598 0.262377
H21   H     H_    0.756501 0.971362 0.324214 0.240941
H22   H     H_    0.643308 0.129443 0.326261 0.205730

loop_
_geom_bond_atom_site_label_1
_geom_bond_atom_site_label_2
_ccdc_geom_bond_type
C22   H22   S    
C20   H12   S    
C8    C20   S    
C8    C13   A    
C1    C15   S    
S1    O11   S    
Cu2   N1    S    
C2    C16   S    
C9    H2    S    
Cu1   N2    S    
S2    O14   S    
C10   H1    S    
O14   H16   S    
C3    C6    S    
C6    C9    A    
C3    O5    A    
Cu1   Cu2   S    
C17   H5    S    
C5    C10   A    
C2    O4    A    
Cu2   O7    S    
C17   H3    S    
C13   C14   A    
C1    O3    A    
Cu1   O8    S    
C15   C21   S    
C21   H17   S    
Cu1   O1    S    
Cu2   O3    S    
Cu2   O2    S    
Cu1   O4    S    
C11   C18   S    
C18   H7    S    
S2    O13   D    
C1    O1    A    
C19   H11   S    
C7    C14   A    
C12   C17   S    
C2    O2    A    
C22   H20   S    
C20   H14   S    
N1    S1    S    
C21   H18   S    
C17   H4    S    
C19   H9    S    
C15   C16   D    
Cu1   O5    S    
C7    C9    A    
C11   C13   A    
C18   H8    S    
Cu2   O6    S    
S2    O12   D    
C19   H10   S    
C5    C12   A    
S1    O10   D    
C16   C22   S    
C6    C11   A    
C3    O7    A    
C7    C19   S    
C21   H19   S    
O11   H15   S    
N2    S2    S    
N1    N2    D    
C4    O6    A    
C20   H13   S    
C8    C10   A    
C4    O8    A    
S1    O9    D    
C12   C14   A    
C4    C5    S    
C22   H21   S    
C18   H6    S    
