data_mof_unit_8866.cif
_audit_creation_date              2013-03-05T16:00:50-0500
_audit_creation_method            fapswitch 2.2
_symmetry_space_group_name_H-M    P1
_symmetry_Int_Tables_number       1
_space_group_crystal_system       triclinic
_cell_length_a                    8.419255
_cell_length_b                    12.951456
_cell_length_c                    18.942183
_cell_angle_alpha                 101.28951
_cell_angle_beta                  92.433607
_cell_angle_gamma                 96.854428
_cell_volume                      2006.44148424

loop_
_atom_site_label
_atom_site_type_symbol
_atom_site_description
_atom_site_fract_x
_atom_site_fract_y
_atom_site_fract_z
_atom_type_partial_charge
P1    P     P_3+3 0.041040 0.394770 0.336330 0.507686
O1    O     O_2   0.873090 0.425890 0.325140 -0.392744
O2    O     O_3   0.122420 0.434370 0.414380 -0.295415
O3    O     O_3   0.659500 0.627100 0.368810 -0.326991
O4    O     O_2   0.766605 0.549437 0.243968 -0.382048
O5    O     O_3   0.023188 0.255186 0.326453 -0.582217
O6    O     O_3   0.676438 0.736288 0.254425 -0.483285
H1    H     H_    0.731810 0.823900 0.358026 0.136867
C1    C     C_3   0.645890 0.919222 0.287438 -0.957903
H2    H     H_    0.620183 0.982646 0.332270 0.215931
H3    H     H_    0.767166 0.941006 0.269937 0.301647
P2    P     P_3+3 0.672880 0.754030 0.556100 0.563576
P3    P     P_3+3 0.123280 0.819485 0.408708 0.468853
O7    O     O_2   0.848200 0.768190 0.534530 -0.427893
O8    O     O_3   0.081160 0.685950 0.404810 -0.343616
O9    O     O_2   0.994943 0.874303 0.452387 -0.398786
O10   O     O_3   0.704418 0.795998 0.650864 -0.559173
O11   O     O_3   0.084715 0.838922 0.320883 -0.528370
C2    C     C_3   0.141337 0.757209 0.271840 0.348558
H4    H     H_    0.055505 0.683134 0.264451 0.143528
H5    H     H_    0.260739 0.740685 0.290513 -0.051419
C3    C     C_3   0.159275 0.789806 0.199256 0.026047
H6    H     H_    0.236773 0.867335 0.206607 0.122910
C4    C     C_3   0.183405 0.808823 0.651103 0.789336
H7    H     H_    0.110270 0.782305 0.599347 0.028162
C5    C     C_3   0.170952 0.924334 0.686970 -0.682920
H8    H     H_    0.241655 0.943696 0.739757 0.244814
H9    H     H_    0.221156 0.978240 0.652110 0.224580
Ba1   Ba    Ba6+2 0.852780 0.548340 0.465070 1.681283
C6    C     C_3   0.866744 0.202207 0.308049 0.348354
H10   H     H_    0.772158 0.253327 0.318310 0.132546
H11   H     H_    0.844646 0.143385 0.343128 0.072970
C7    C     C_3   0.852115 0.140449 0.230273 -0.943043
H12   H     H_    0.896935 0.190941 0.192819 0.247158
H13   H     H_    0.724652 0.108464 0.214011 0.248344
H14   H     H_    0.924211 0.073345 0.225233 0.277199
C8    C     C_3   0.770911 0.720650 0.682871 0.940041
H15   H     H_    0.875332 0.695494 0.654991 -0.012517
C9    C     C_3   0.812125 0.762804 0.763984 -0.928655
H16   H     H_    0.929684 0.812275 0.775288 0.236799
H17   H     H_    0.821161 0.696583 0.792836 0.226271
H18   H     H_    0.718073 0.809371 0.787958 0.305638
P4    P     P_3+3 0.148670 0.605320 0.663680 0.626365
O12   O     O_2   0.316610 0.574140 0.674900 -0.220029
O13   O     O_3   0.067290 0.565720 0.585630 -0.346463
O14   O     O_3   0.530210 0.372990 0.631200 -0.271848
O15   O     O_3   0.152207 0.742621 0.699791 -0.572917
P5    P     P_3+3 0.062369 0.175363 0.592537 0.450591
O16   O     O_3   0.611340 0.366290 0.463630 -0.331162
O17   O     O_3   0.108550 0.314140 0.595200 -0.371212
O18   O     O_2   0.201737 0.123005 0.555927 -0.398258
O19   O     O_3   0.086629 0.156411 0.681293 -0.553358
Ba2   Ba    Ba6+2 0.337060 0.451750 0.534940 1.691788
P6    P     P_3+3 0.631863 0.611402 0.276248 0.509632
C10   C     C_3   0.640804 0.814264 0.312116 0.495249
H19   H     H_    0.519468 0.794272 0.330334 0.008407
H20   H     H_    0.555319 0.912107 0.241698 0.255931
O20   O     O_3   0.578370 0.633800 0.536380 -0.269682
C11   C     C_3   0.404341 0.245942 0.305898 0.516830
H21   H     H_    0.335525 0.299270 0.342118 0.126431
C12   C     C_3   0.292654 0.171889 0.246122 -0.918505
H22   H     H_    0.201568 0.120585 0.267413 0.272332
H23   H     H_    0.227893 0.218764 0.213756 0.222746
H24   H     H_    0.362139 0.119012 0.209416 0.248043
P7    P     P_3+3 0.516215 0.230532 0.437040 0.431792
O21   O     O_2   0.341510 0.231850 0.465510 -0.364969
O22   O     O_3   0.493436 0.184613 0.342385 -0.634918
H25   H     H_    0.216178 0.729257 0.162533 0.091014
C13   C     C_3   0.109667 0.255219 0.729256 0.310635
H26   H     H_    0.213328 0.306523 0.715052 0.134477
H27   H     H_    0.000300 0.294729 0.727994 0.056094
C14   C     C_3   0.147324 0.240311 0.805805 0.027041
H28   H     H_    0.196325 0.318045 0.840421 0.096054
H29   H     H_    0.238471 0.185024 0.805932 0.168980
P8    P     P_3+3 0.568643 0.386660 0.724154 0.514589
C15   C     C_3   0.581192 0.186903 0.694538 0.366101
H30   H     H_    0.709830 0.212468 0.687720 0.075430
O23   O     O_2   0.445312 0.455695 0.760776 -0.390188
O24   O     O_3   0.514434 0.262155 0.744402 -0.563952
H31   H     H_    0.511580 0.171693 0.641476 0.126794
H32   H     H_    0.657273 0.093197 0.769290 0.295496
C16   C     C_3   0.570993 0.084244 0.721939 -0.832813
H33   H     H_    0.597256 0.018777 0.678590 0.246881
H34   H     H_    0.449379 0.065219 0.739247 0.256022
C17   C     C_R   0.999946 0.445171 0.046892 0.046929
C18   C     C_R   0.904777 0.396640 0.094343 -0.156386
C19   C     C_R   0.781943 0.415452 0.949893 -0.157304
C20   C     C_R   0.942206 0.450822 0.975485 0.098845
C21   C     C_R   0.728542 0.417191 0.880046 -0.050222
C22   C     C_R   0.831581 0.454325 0.831429 -0.031987
C23   C     C_R   0.990407 0.499773 0.856136 -0.043653
C24   C     C_R   0.045571 0.496857 0.928804 0.081744
C25   C     C_R   0.779810 0.444150 0.758545 0.133079
C26   C     C_R   0.889810 0.474680 0.710084 0.091889
C27   C     C_R   0.038771 0.537338 0.733361 0.140666
C28   C     C_R   0.091280 0.550526 0.809529 -0.257342
C29   C     C_R   0.159709 0.487429 0.071651 0.067934
C30   C     C_R   0.216497 0.487415 0.144357 0.012168
C31   C     C_R   0.114153 0.444375 0.192673 -0.101395
C32   C     C_R   0.961254 0.396041 0.164685 -0.059736
H35   H     H_    0.604139 0.387170 0.865035 0.164543
H36   H     H_    0.880620 0.359660 0.197526 0.156143
C33   C     C_R   0.238087 0.609919 0.843364 0.593295
C34   C     C_R   0.292781 0.600669 0.912266 -0.281290
C35   C     C_R   0.203212 0.540666 0.954671 -0.032795
C36   C     C_R   0.263156 0.531071 0.024483 0.084647
C37   C     C_R   0.425732 0.561863 0.048232 -0.213528
C38   C     C_R   0.375805 0.531320 0.168434 -0.096818
C39   C     C_R   0.480077 0.562944 0.118453 -0.096063
C40   C     C_R   0.426175 0.545247 0.241940 0.072613
C41   C     C_R   0.317217 0.513445 0.290989 0.089407
C42   C     C_R   0.166050 0.454242 0.267396 0.097947
H37   H     H_    0.605719 0.590160 0.132585 0.201464
H38   H     H_    0.692823 0.385982 0.982697 0.120408
H39   H     H_    0.784700 0.357526 0.078928 0.125902
H40   H     H_    0.404440 0.648324 0.934039 0.177234
H41   H     H_    0.515366 0.584549 0.013131 0.147306
C43   C     C_R   0.775428 0.164884 0.505533 -0.353149
C44   C     C_R   0.422624 0.811634 0.478182 -0.379409
C45   C     C_R   0.391665 0.978560 0.444917 -0.163685
C46   C     C_R   0.330010 0.874792 0.447450 0.142080
C47   C     C_R   0.575956 0.849958 0.510668 0.291667
C48   C     C_R   0.640049 0.958995 0.512822 -0.074561
C49   C     C_R   0.547161 0.024629 0.478247 -0.065477
C50   C     C_R   0.616634 0.131447 0.477758 0.156188
C51   C     C_R   0.861034 0.108280 0.545371 0.203356
C52   C     C_R   0.792716 0.004565 0.548497 -0.201743
H42   H     H_    0.861715 0.959291 0.576941 0.170714
H43   H     H_    0.369393 0.732936 0.481327 0.215764
C53   C     C_1   0.010706 0.949736 0.702155 0.288610
N1    N     N_1   0.886965 0.975034 0.716237 -0.013581
Cl1   Cl    Cl    0.630177 0.610796 0.677589 -0.478044
C54   C     C_1   0.512695 0.307810 0.267348 -0.008176
N2    N     N_1   0.595777 0.352816 0.233450 -0.057147
Cl2   Cl    Cl    0.971497 0.189824 0.843501 -0.642779
Cl3   Cl    Cl    0.839143 0.428752 0.618434 -0.584147
Cl4   Cl    Cl    0.359162 0.708892 0.811308 -0.543029
Cl5   Cl    Cl    0.366094 0.555169 0.383651 -0.581153
C55   C     C_1   0.282938 0.030221 0.407505 0.352320
N3    N     N_1   0.185764 0.065913 0.378486 -0.046780
C56   C     C_1   0.859573 0.255771 0.487483 0.256162
N4    N     N_1   0.928064 0.330490 0.474250 0.075796
Cl6   Cl    Cl    0.968832 0.800438 0.158484 -0.566470
Cl7   Cl    Cl    0.383646 0.811967 0.639045 -0.642551

loop_
_geom_bond_atom_site_label_1
_geom_bond_atom_site_label_2
_geom_bond_distance
_ccdc_geom_bond_type
C10   H19   1.109735 S    
C25   C26   1.408413 A    
C44   H43   1.077159 S    
P2    Ba1   3.427904 S    
C12   H24   1.112831 S    
C27   C28   1.462046 A    
C15   O24   1.404754 S    
O6    C10   1.404346 S    
C19   C20   1.405493 A    
C43   C56   1.408361 S    
H32   C16   1.108804 S    
C48   C49   1.447851 A    
C9    H17   1.111580 S    
Ba1   O16   2.918590 S    
C17   C18   1.416721 A    
C5    H8    1.110274 S    
C51   C52   1.410080 A    
O16   P7    1.808164 S    
P3    O11   1.753289 S    
O1    Ba1   2.833246 S    
C2    H5    1.110072 S    
C4    C5    1.535001 S    
O11   C2    1.408318 S    
C33   Cl4   1.759650 S    
P1    C42   1.929515 S    
C6    H10   1.094948 S    
C17   C20   1.436193 A    
C36   C37   1.407870 A    
C30   C31   1.429291 A    
C29   C30   1.438577 A    
C7    H14   1.109614 S    
C30   C38   1.412371 A    
C38   C39   1.404052 A    
P6    C40   1.867521 S    
C13   H27   1.107102 S    
P1    O1    1.533246 D    
C12   H23   1.112699 S    
C40   C41   1.416470 A    
C34   C35   1.404896 A    
C19   H38   1.076520 S    
O19   C13   1.404018 S    
C11   O22   1.408685 S    
C23   C28   1.445804 A    
C34   H40   1.078753 S    
O12   Ba2   2.833616 S    
P4    Ba2   3.406015 S    
P5    O18   1.546755 D    
C20   C24   1.429198 A    
P7    O22   1.769550 S    
C3    Cl6   1.781982 S    
P4    C27   1.933331 S    
C1    C10   1.518164 S    
C43   C50   1.401626 A    
C18   C32   1.397372 A    
C1    H2    1.108017 S    
O3    Ba1   2.808147 S    
C5    C53   1.453625 S    
C39   H37   1.079298 S    
C21   H35   1.078541 S    
P5    O17   1.783330 S    
O13   Ba2   2.947865 S    
C11   H21   1.107781 S    
C6    C7    1.524814 S    
C37   C39   1.385029 A    
C13   H26   1.107750 S    
H1    C10   1.112196 S    
P1    Ba1   3.405395 S    
O14   P8    1.747043 S    
O8    Ba1   2.888145 S    
C9    H18   1.110983 S    
C44   C46   1.384247 A    
C11   C12   1.534684 S    
O17   Ba2   2.888813 S    
P1    O5    1.768080 S    
O4    P6    1.545620 D    
C2    C3    1.523508 S    
C15   H30   1.114585 S    
C14   H29   1.110538 S    
C15   C16   1.513698 S    
C23   C24   1.442957 A    
C14   Cl2   1.780537 S    
C11   C54   1.455565 S    
Ba1   O13   2.806947 S    
C18   H39   1.076430 S    
P1    O2    1.565718 S    
P7    C50   1.883527 S    
P2    O10   1.769509 S    
C13   C14   1.524967 S    
P4    O12   1.533564 D    
C8    H15   1.094705 S    
P3    C46   1.862566 S    
C48   C52   1.430421 A    
C31   C32   1.396359 A    
Ba2   O20   2.917933 S    
C32   H36   1.069646 S    
C7    H12   1.104029 S    
C26   C27   1.412742 A    
C45   C55   1.436873 S    
O10   C8    1.402326 S    
C4    H7    1.106638 S    
Ba2   O21   2.899210 S    
C1    H3    1.108441 S    
C3    H25   1.110299 S    
C29   C36   1.422181 A    
O5    C6    1.406712 S    
P2    O7    1.547667 D    
P7    O21   1.588825 D    
C16   H34   1.102945 S    
P3    O8    1.709868 S    
C54   N2    1.152686 T    
C28   C33   1.429315 A    
P8    O24   1.742694 S    
O7    Ba1   2.898942 S    
C52   H42   1.072384 S    
C9    H16   1.101317 S    
C45   C46   1.392402 A    
P8    C25   1.880256 S    
C22   C25   1.406166 A    
C44   C47   1.396980 A    
C41   C42   1.411399 A    
O3    P6    1.727457 S    
C4    O15   1.389653 S    
C15   H31   1.112403 S    
C14   H28   1.110477 S    
C55   N3    1.156176 T    
C35   C36   1.428821 A    
C5    H9    1.111703 S    
C8    Cl1   1.723373 S    
C2    H4    1.111551 S    
C19   C21   1.384438 A    
C53   N1    1.155309 T    
C47   C48   1.442508 A    
P2    O20   1.627476 S    
C8    C9    1.536317 S    
C56   N4    1.142752 T    
C6    H11   1.109675 S    
O2    Ba2   2.807604 S    
O2    Ba1   2.946941 S    
C22   C23   1.415878 A    
Ba1   Ba2   4.620415 S    
C4    Cl7   1.707618 S    
O16   Ba2   2.944794 S    
C31   C42   1.440133 A    
O14   Ba2   2.807497 S    
C7    H13   1.110846 S    
C38   C40   1.408656 A    
C1    H20   1.111966 S    
C12   H22   1.096269 S    
P8    O23   1.548788 D    
C17   C29   1.413839 A    
P5    C51   1.908494 S    
C24   C35   1.407024 A    
P5    O19   1.752967 S    
P2    C47   1.884419 S    
Ba1   O20   2.945723 S    
C16   H33   1.108885 S    
P3    O9    1.544386 D    
C33   C34   1.397566 A    
C3    H6    1.111096 S    
C26   Cl3   1.738363 S    
C43   C51   1.386691 A    
O6    P6    1.748696 S    
C21   C22   1.404858 A    
P4    O15   1.772101 S    
P4    O13   1.565718 S    
C37   H41   1.078931 S    
C45   C49   1.436793 A    
C41   Cl5   1.748259 S    
C49   C50   1.438211 A    
