data_mof_unit_56071.cif
_audit_creation_date              2012-12-10T20:49:26-0500
_audit_creation_method            fapswitch 2.2
_symmetry_space_group_name_H-M    P1
_symmetry_Int_Tables_number       1
_space_group_crystal_system       triclinic
_cell_length_a                    15.656907
_cell_length_b                    8.974335
_cell_length_c                    8.208864
_cell_angle_alpha                 90.333803
_cell_angle_beta                  93.187398
_cell_angle_gamma                 92.759836
_cell_volume                      1150.2682755

loop_
_atom_site_label
_atom_site_type_symbol
_atom_type_description
_atom_site_fract_x
_atom_site_fract_y
_atom_site_fract_z
_atom_type_partial_charge
C1    C     C_1   0.500590 0.065230 0.499742 -0.203872
C2    C     C_3   0.992213 0.653144 0.559883 0.421592
C3    C     C_1   0.247694 0.478022 0.480713 -0.209110
C4    C     C_1   0.751577 0.537406 0.517057 -0.240548
C5    C     C_3   0.041323 0.524062 0.639566 -0.185334
C6    C     C_3   0.956810 0.515351 0.340250 -0.233966
C7    C     C_3   0.081276 0.496650 0.473107 -0.142859
C8    C     C_3   0.918008 0.542618 0.507341 -0.098638
C9    C     C_1   0.171755 0.476582 0.470169 0.021369
C10   C     C_1   0.827426 0.551734 0.521268 0.045598
C11   C     C_3   0.954831 0.190341 0.246722 0.011824
C12   C     C_1   0.500830 0.934876 0.500660 -0.203934
C13   C     C_3   0.951976 0.021282 0.231087 -0.293606
C14   C     C_3   0.871652 0.961204 0.133131 -0.949424
C15   C     C_3   0.048615 0.889680 0.644768 0.129139
C16   C     C_3   0.056459 0.950059 0.818856 -0.391973
C17   C     C_3   0.144520 0.025492 0.859037 -0.949878
C18   C     C_3   0.867327 0.211539 0.618650 0.106838
C19   C     C_3   0.800412 0.170979 0.741498 -0.337627
C20   C     C_3   0.744411 0.034155 0.685859 -0.951413
C21   C     C_3   0.136845 0.746737 0.237775 0.046312
C22   C     C_3   0.205967 0.842929 0.333434 -0.378611
C23   C     C_R   0.500030 0.218302 0.499720 0.934505
C24   C     C_3   0.288267 0.857575 0.242522 -0.912650
C25   C     C_R   0.900972 0.520308 0.182116 0.143036
C26   C     C_R   0.926464 0.609401 0.052152 -0.109071
C27   C     C_R   0.867498 0.642715 0.925312 -0.150413
C28   C     C_R   0.783782 0.583248 0.922939 -0.108403
C29   C     C_R   0.759851 0.482272 0.041521 -0.109530
C30   C     C_R   0.817987 0.450404 0.169811 -0.173757
C31   C     C_R   0.099184 0.517689 0.795823 0.165510
C32   C     C_R   0.177784 0.601793 0.809546 -0.166746
C33   C     C_R   0.241820 0.567304 0.926559 -0.121376
C34   C     C_R   0.500585 0.781737 0.500390 0.936776
C35   C     C_R   0.227632 0.451270 0.035081 -0.135026
C36   C     C_R   0.147575 0.376614 0.033842 -0.201168
C37   C     C_R   0.084007 0.408884 0.914874 -0.130475
C38   C     C_R   0.337381 0.491459 0.494979 0.895688
C39   C     C_R   0.662465 0.510423 0.504801 0.890581
C40   C     C_3   0.966672 0.412145 0.583310 0.393565
C41   C     C_3   0.031974 0.627129 0.395368 0.380141
C42   C     C_3   0.006553 0.384489 0.419157 0.368069
H1    H     H_    0.962551 0.239762 0.125041 0.164298
H2    H     H_    0.006378 0.031547 0.835748 0.239777
H3    H     H_    0.045680 0.856565 0.903288 0.219810
H4    H     H_    0.195779 0.947079 0.839452 0.253627
H5    H     H_    0.149425 0.060110 0.989147 0.264470
H6    H     H_    0.154189 0.125136 0.781305 0.293205
H7    H     H_    0.898580 0.109629 0.580411 0.184226
H8    H     H_    0.832372 0.259817 0.512433 0.106621
H9    H     H_    0.832676 0.149224 0.861806 0.235998
H10   H     H_    0.759163 0.266912 0.756714 0.228183
H11   H     H_    0.711161 0.054894 0.565605 0.262055
H12   H     H_    0.892616 0.217633 0.290413 0.127525
H13   H     H_    0.695524 0.009796 0.776222 0.271729
H14   H     H_    0.784040 0.935374 0.675973 0.276077
H15   H     H_    0.130053 0.792249 0.113401 0.175159
H16   H     H_    0.156230 0.632045 0.221159 0.173227
H17   H     H_    0.182247 0.956126 0.352967 0.240386
H18   H     H_    0.220649 0.792597 0.454075 0.201800
H19   H     H_    0.314575 0.746372 0.225192 0.279273
H20   H     H_    0.336419 0.929355 0.314323 0.264186
H21   H     H_    0.276090 0.909538 0.121599 0.261005
H22   H     H_    0.990110 0.659677 0.051930 0.163118
H23   H     H_    0.010089 0.987100 0.172213 0.252411
H24   H     H_    0.884838 0.721761 0.833939 0.199111
H25   H     H_    0.737257 0.617631 0.830923 0.161137
H26   H     H_    0.695234 0.433241 0.037834 0.152306
H27   H     H_    0.795181 0.377459 0.263246 0.114582
H28   H     H_    0.194101 0.684218 0.720587 0.113301
H29   H     H_    0.303396 0.627799 0.929741 0.153692
H30   H     H_    0.277739 0.421593 0.122692 0.171583
H31   H     H_    0.135526 0.291030 0.122941 0.187539
H32   H     H_    0.024925 0.343886 0.914290 0.195970
H33   H     H_    0.950165 0.972470 0.354031 0.264101
H34   H     H_    0.816098 0.031487 0.148401 0.253713
H35   H     H_    0.853127 0.848223 0.176792 0.295264
H36   H     H_    0.884571 0.954173 0.002154 0.259393
H37   H     H_    0.043027 0.986031 0.562078 0.190954
H38   H     H_    0.107946 0.836742 0.615216 0.135784
N1    N     N_1   0.500010 0.500000 0.073640 -0.053124
N2    N     N_1   0.499990 0.500000 0.926360 -0.051528
O1    O     O_R   0.500000 0.285340 0.636850 -0.608716
O2    O     O_3   0.974277 0.794226 0.624275 -0.676485
O3    O     O_3   0.930177 0.310587 0.693982 -0.663409
O4    O     O_3   0.057349 0.756134 0.308456 -0.678350
O5    O     O_R   0.500000 0.714660 0.363150 -0.612734
O6    O     O_R   0.500000 0.285340 0.363150 -0.615286
O7    O     O_R   0.500000 0.714660 0.636850 -0.615572
O8    O     O_R   0.376770 0.500000 0.636850 -0.606010
O9    O     O_R   0.623230 0.500000 0.363150 -0.609929
O10   O     O_R   0.376780 0.500000 0.363100 -0.642315
O11   O     O_R   0.623220 0.500000 0.636900 -0.634150
O12   O     O_3   0.022688 0.241475 0.356525 -0.648193
Zn1   Zn    Zn3+2 0.499990 0.500000 0.682780 0.967461
Zn2   Zn    Zn3+2 0.500010 0.500000 0.317220 0.960608

loop_
_geom_bond_atom_site_label_1
_geom_bond_atom_site_label_2
_ccdc_geom_bond_type
C37   H32   S    
O6    Zn2   S    
C24   H19   S    
C2    O2    S    
C19   C20   S    
C17   H6    S    
C20   H14   S    
N1    N2    T    
O8    Zn1   S    
C13   H23   S    
C41   O4    S    
C26   C27   A    
C23   O1    A    
C28   C29   A    
C22   H18   S    
C14   H35   S    
C6    C25   S    
C2    C41   S    
C15   C16   S    
C38   O10   A    
O10   Zn2   S    
C14   H36   S    
C18   C19   S    
C7    C42   S    
C26   H22   S    
C39   O11   A    
O9    Zn2   S    
C19   H10   S    
C15   H37   S    
C35   C36   A    
C3    C38   S    
C16   C17   S    
C6    C41   S    
C11   H1    S    
C16   H2    S    
C40   C42   S    
O11   Zn1   S    
C13   C14   S    
C1    C12   T    
C20   H13   S    
C39   O9    A    
C18   O3    S    
C13   H33   S    
C28   H25   S    
C17   H4    S    
C22   H17   S    
C5    C7    S    
N1    Zn2   S    
C32   H28   S    
C25   C26   A    
C31   C37   A    
C14   H34   S    
C40   O3    S    
O7    Zn1   S    
C21   H15   S    
C29   C30   A    
C3    C9    T    
C29   H26   S    
C15   H38   S    
C4    C39   S    
O1    Zn1   S    
O5    Zn2   S    
C11   H12   S    
C11   O12   S    
C35   H30   S    
C1    C23   S    
C24   H21   S    
C23   O6    A    
C22   C24   S    
C2    C5    S    
C12   C34   S    
C30   H27   S    
C18   H8    S    
C25   C30   A    
C7    C9    S    
C21   O4    S    
C36   C37   A    
C24   H20   S    
N2    Zn1   S    
C42   O12   S    
C31   C32   A    
C2    C8    S    
C17   H5    S    
C20   H11   S    
C16   H3    S    
C6    C8    S    
C15   O2    S    
C38   O8    A    
C32   C33   A    
C34   O7    A    
C21   H16   S    
C27   H24   S    
C11   C13   S    
C33   C35   A    
C34   O5    A    
C7    C41   S    
C36   H31   S    
C33   H29   S    
C19   H9    S    
C8    C10   S    
C6    C42   S    
C5    C40   S    
C27   C28   A    
C8    C40   S    
C21   C22   S    
C4    C10   T    
C18   H7    S    
C5    C31   S    
