data_mof_unit_11181.cif
_audit_creation_date              2012-12-10T17:57:26-0500
_audit_creation_method            fapswitch 2.2
_symmetry_space_group_name_H-M    P1
_symmetry_Int_Tables_number       1
_space_group_crystal_system       triclinic
_cell_length_a                    9.509746
_cell_length_b                    10.832689
_cell_length_c                    13.469479
_cell_angle_alpha                 90.194787
_cell_angle_beta                  72.937069
_cell_angle_gamma                 89.99203
_cell_volume                      1326.48812382

loop_
_atom_site_label
_atom_site_type_symbol
_atom_type_description
_atom_site_fract_x
_atom_site_fract_y
_atom_site_fract_z
_atom_type_partial_charge
C1    C     C_R   0.500084 0.737947 0.499888 0.824415
C2    C     C_R   0.444740 0.443069 0.975865 0.074636
C3    C     C_R   0.490196 0.440697 0.865614 0.084216
C4    C     C_R   0.552996 0.463021 0.028491 0.089572
C5    C     C_R   0.701838 0.479035 0.969942 0.102899
C6    C     C_R   0.746150 0.451912 0.864560 -0.222084
C7    C     C_R   0.642039 0.425521 0.814455 -0.192192
C8    C     C_R   0.518370 0.471799 0.136743 -0.299644
C9    C     C_R   0.767112 0.540348 0.124160 0.440985
C10   C     C_R   0.382595 0.454136 0.811194 -0.105909
C11   C     C_R   0.629054 0.936102 0.496998 -0.156979
C12   C     C_R   0.423325 0.485316 0.699089 0.799393
C13   C     C_R   0.629040 0.063821 0.497010 -0.179315
C14   C     C_R   0.500258 0.128199 0.499455 -0.013739
C15   C     C_R   0.371599 0.063855 0.501643 -0.178409
C16   C     C_R   0.371583 0.936152 0.501704 -0.176005
C17   C     C_R   0.500252 0.871773 0.499511 -0.013935
C18   C     C_R   0.900221 0.580896 0.561014 -0.043553
C19   C     C_R   0.049036 0.580640 0.561201 -0.032118
C20   C     C_R   0.099638 0.418822 0.439256 -0.006756
C21   C     C_R   0.950563 0.418396 0.439758 0.048877
C22   C     C_R   0.500093 0.262039 0.499739 0.774259
C23   C     C_R   0.578556 0.504842 0.299907 0.875312
C24   C     C_R   0.805401 0.521271 0.017063 -0.288889
C25   C     C_R   0.624136 0.506467 0.185596 -0.176486
C26   C     C_R   0.233409 0.441221 0.866232 -0.208628
C27   C     C_R   0.190577 0.422912 0.972978 -0.076610
C28   C     C_R   0.293235 0.428933 0.028071 -0.119756
Cu1   Cu    Cu3+1 0.359340 0.499980 0.500000 0.952062
Cu2   Cu    Cu3+1 0.640660 0.500020 0.500000 0.974928
H1    H     H_    0.729705 0.111857 0.495089 0.145246
H2    H     H_    0.270948 0.111904 0.503485 0.147910
H3    H     H_    0.270903 0.888131 0.503642 0.151040
H4    H     H_    0.823752 0.645593 0.609962 0.131067
H5    H     H_    0.084834 0.645137 0.610281 0.125087
H6    H     H_    0.176026 0.353975 0.390417 0.116165
H7    H     H_    0.914418 0.353027 0.391506 0.132738
H8    H     H_    0.861719 0.450846 0.820651 0.138876
H9    H     H_    0.915392 0.543071 0.969151 0.171070
H10   H     H_    0.409252 0.450905 0.185010 0.174847
H11   H     H_    0.149397 0.444780 0.826704 0.148053
H12   H     H_    0.250106 0.421381 0.111149 0.158959
H13   H     H_    0.076086 0.408019 0.014344 0.165084
H14   H     H_    0.684318 0.391861 0.735979 0.181587
H15   H     H_    0.729739 0.888028 0.495042 0.147173
N1    N     N_R   0.147940 0.499970 0.499970 -0.162165
N2    N     N_R   0.852060 0.500060 0.499990 -0.165452
O1    O     O_R   0.381250 0.680340 0.500010 -0.588931
O2    O     O_R   0.618820 0.680370 0.500010 -0.577102
O3    O     O_R   0.323240 0.499950 0.650980 -0.583512
O4    O     O_R   0.560810 0.499980 0.650980 -0.599292
O5    O     O_R   0.381180 0.319630 0.499990 -0.596520
O6    O     O_R   0.618750 0.319660 0.499990 -0.606335
O7    O     O_R   0.439190 0.500020 0.349020 -0.591032
O8    O     O_R   0.676760 0.500050 0.349020 -0.511058
S1    S     S_3+6 0.898495 0.612543 0.175223 -0.011753
O9    O     O_2   0.972606 0.515755 0.221900 -0.349469
O10   O     O_2   0.012811 0.677726 0.090499 -0.288908
O11   O     O_3   0.815059 0.716357 0.266792 -0.525303
H16   H     H_    0.887646 0.734887 0.304579 0.371382

loop_
_geom_bond_atom_site_label_1
_geom_bond_atom_site_label_2
_ccdc_geom_bond_type
C12   O3    A    
Cu2   O4    S    
C6    H8    S    
C9    C24   A    
C23   O8    A    
C6    C7    A    
C16   H3    S    
C11   C13   A    
Cu2   O8    S    
C1    C17   S    
S1    O11   S    
Cu1   N1    S    
C4    C8    A    
C18   N2    A    
C14   C22   S    
C2    C3    A    
C19   N1    A    
C9    C25   A    
O11   H16   S    
C1    O1    A    
C3    C10   A    
C19   H5    S    
C13   C14   A    
S1    O9    D    
C8    C25   A    
C18   H4    S    
C10   C26   A    
C26   C27   A    
Cu1   Cu2   S    
C5    C24   A    
C10   C12   S    
C2    C4    A    
C28   H12   S    
Cu2   O2    S    
S1    O10   D    
C22   O6    A    
C3    C7    A    
Cu1   O3    S    
C23   C25   S    
C5    C6    A    
Cu2   O6    S    
C11   H15   S    
Cu1   O7    S    
Cu1   O1    S    
C15   C16   A    
C20   H6    S    
C27   H13   S    
Cu2   N2    S    
C15   H2    S    
C12   O4    A    
C21   H7    S    
C20   C21   A    
C23   O7    A    
C22   O5    A    
C18   C19   A    
C27   C28   A    
C9    S1    S    
C14   C15   A    
C11   C17   A    
C2    C28   A    
C8    H10   S    
C7    H14   S    
C4    C5    A    
C1    O2    A    
C24   H9    S    
C13   H1    S    
C20   N1    A    
C26   H11   S    
C16   C17   A    
C21   N2    A    
Cu1   O5    S    
