data_mof_unit_57152.cif
_audit_creation_date              2012-12-10T20:31:00-0500
_audit_creation_method            fapswitch 2.2
_symmetry_space_group_name_H-M    P1
_symmetry_Int_Tables_number       1
_space_group_crystal_system       triclinic
_cell_length_a                    14.927566
_cell_length_b                    10.672382
_cell_length_c                    9.921824
_cell_angle_alpha                 90.52128
_cell_angle_beta                  91.114082
_cell_angle_gamma                 90.623696
_cell_volume                      1580.21148579

loop_
_atom_site_label
_atom_site_type_symbol
_atom_type_description
_atom_site_fract_x
_atom_site_fract_y
_atom_site_fract_z
_atom_type_partial_charge
C1    C     C_R   0.498309 0.259928 0.499947 0.989736
C2    C     C_R   0.908431 0.611148 0.526682 -0.013989
C3    C     C_R   0.949656 0.282037 0.416496 -0.143271
C4    C     C_R   0.042275 0.278780 0.415567 0.459123
C5    C     C_R   0.092979 0.385203 0.459371 -0.047116
C6    C     C_R   0.047632 0.498939 0.490036 -0.111523
C7    C     C_R   0.096121 0.611827 0.519883 -0.096439
C8    C     C_R   0.049910 0.722836 0.551523 0.454888
C9    C     C_R   0.957348 0.720914 0.555711 -0.150926
C10   C     C_R   0.186759 0.383954 0.474121 0.371135
C11   C     C_R   0.232384 0.497144 0.496213 -0.271365
C12   C     C_R   0.327502 0.499359 0.498926 1.022885
C13   C     C_R   0.189220 0.609686 0.516718 0.614172
C14   C     C_R   0.493412 0.063506 0.622533 0.084814
C15   C     C_R   0.484499 0.128018 0.501850 -0.122892
C16   C     C_R   0.450969 0.064571 0.387298 -0.124664
C17   C     C_R   0.445452 0.934759 0.386543 0.438017
C18   C     C_R   0.475216 0.870171 0.502584 -0.197006
C19   C     C_R   0.486742 0.936331 0.623593 0.021864
C20   C     C_3   0.552972 0.925061 0.737796 0.188583
C21   C     C_3   0.561792 0.067199 0.735298 0.157091
C22   C     C_R   0.423947 0.469686 0.067881 -0.139264
C23   C     C_R   0.493724 0.739413 0.500300 0.951031
C24   C     C_R   0.570041 0.548525 0.075381 0.691264
C25   C     C_R   0.570070 0.549542 0.932275 0.357297
C26   C     C_R   0.423816 0.471031 0.925931 -0.105493
C27   C     C_3   0.368117 0.355190 0.913674 1.070876
C28   C     C_3   0.370764 0.350074 0.067043 0.745595
C29   C     C_R   0.672679 0.500263 0.500763 1.021829
C30   C     C_R   0.814990 0.610496 0.531302 0.343770
C31   C     C_R   0.768131 0.499602 0.500707 -0.208332
C32   C     C_R   0.811139 0.390830 0.458560 0.327607
C33   C     C_R   0.904583 0.389841 0.456299 -0.016615
C34   C     C_R   0.953586 0.499854 0.491396 0.021077
H1    H     H_    0.614312 0.873539 0.710549 0.218406
H2    H     H_    0.538168 0.114708 0.827708 0.240010
H3    H     H_    0.913389 0.198601 0.383602 0.240476
H4    H     H_    0.924354 0.807154 0.582305 0.241908
H5    H     H_    0.432308 0.114430 0.297496 0.274047
N1    N     N_R   0.499390 0.499140 0.142800 -0.158071
N2    N     N_R   0.499390 0.499180 0.857150 -0.165197
O1    O     O_R   0.500010 0.316790 0.614690 -0.578241
O2    O     O_R   0.500000 0.316760 0.385350 -0.585660
O3    O     O_R   0.367850 0.499990 0.614680 -0.567164
O4    O     O_R   0.367840 0.499950 0.385340 -0.591316
O5    O     O_R   0.500000 0.683240 0.614650 -0.587009
O6    O     O_R   0.499990 0.683210 0.385310 -0.560579
O7    O     O_R   0.632160 0.500050 0.614660 -0.567209
O8    O     O_R   0.632150 0.500010 0.385320 -0.545314
Zn1   Zn    Zn3+2 0.500010 0.500020 0.653130 1.130132
Zn2   Zn    Zn3+2 0.499990 0.499980 0.346870 1.149676
Cl1   Cl    Cl    0.754865 0.749500 0.566001 -0.524507
Cl2   Cl    Cl    0.404125 0.860536 0.237890 -0.374017
Cl3   Cl    Cl    0.500144 0.869942 0.886277 -0.401549
Cl4   Cl    Cl    0.670332 0.117973 0.685004 -0.463879
F1    F     F_    0.640657 0.598614 0.145713 -0.571135
Cl5   Cl    Cl    0.661293 0.623747 0.856893 -0.409078
F2    F     F_    0.284338 0.377994 0.857309 -0.592166
F3    F     F_    0.411241 0.256982 0.852003 -0.629571
Cl6   Cl    Cl    0.264098 0.364908 0.143405 -0.419645
Cl7   Cl    Cl    0.746340 0.257996 0.405226 -0.492300
F4    F     F_    0.419979 0.250728 0.115018 -0.626354
Cl8   Cl    Cl    0.086894 0.142687 0.341060 -0.343919
Cl9   Cl    Cl    0.249952 0.244078 0.484405 -0.412174
F5    F     F_    0.240067 0.715027 0.536240 -0.586564
Cl10  Cl    Cl    0.102570 0.868118 0.590729 -0.325796

loop_
_geom_bond_atom_site_label_1
_geom_bond_atom_site_label_2
_ccdc_geom_bond_type
C22   C28   S    
C2    C9    A    
C11   C12   S    
C24   C25   A    
C8    Cl10  S    
C6    C7    A    
C1    C15   S    
C24   F1    S    
N1    Zn2   S    
O5    Zn1   S    
C19   C20   S    
C2    C30   A    
C22   N1    A    
C32   C33   A    
C2    C34   A    
O7    Zn1   S    
C17   C18   A    
C5    C10   A    
C12   O3    A    
C23   O5    A    
C27   F3    S    
C29   O8    A    
C21   H2    S    
C4    C5    A    
C11   C13   A    
C4    Cl8   S    
O2    Zn2   S    
C26   C27   S    
C30   C31   A    
C6    C34   A    
C25   Cl5   S    
O1    Zn1   S    
C30   Cl1   S    
C14   C21   S    
C20   Cl3   S    
C9    H4    S    
C24   N1    A    
C32   Cl7   S    
C33   C34   A    
C28   Cl6   S    
C5    C6    A    
C13   F5    S    
C23   O6    A    
C10   C11   A    
C3    C33   A    
C29   O7    A    
O3    Zn1   S    
C18   C23   S    
C17   Cl2   S    
N2    Zn1   S    
C7    C13   A    
C1    O1    A    
C20   C21   S    
C3    H3    S    
C29   C31   S    
C18   C19   A    
C22   C26   A    
C25   N2    A    
C27   C28   S    
C21   Cl4   S    
C7    C8    A    
O4    Zn2   S    
C14   C15   A    
C12   O4    A    
O6    Zn2   S    
C16   H5    S    
C20   H1    S    
C26   N2    A    
C14   C19   A    
C1    O2    A    
C31   C32   A    
C10   Cl9   S    
C3    C4    A    
C15   C16   A    
C16   C17   A    
C8    C9    A    
O8    Zn2   S    
C27   F2    S    
C28   F4    S    
