data_mof_unit_42166.cif
_audit_creation_date              2012-12-11T15:22:33-0500
_audit_creation_method            fapswitch 2.2
_symmetry_space_group_name_H-M    P1
_symmetry_Int_Tables_number       1
_space_group_crystal_system       triclinic
_cell_length_a                    22.745147
_cell_length_b                    7.298974
_cell_length_c                    20.832612
_cell_angle_alpha                 89.550332
_cell_angle_beta                  93.341809
_cell_angle_gamma                 90.586087
_cell_volume                      3452.39899806

loop_
_atom_site_label
_atom_site_type_symbol
_atom_type_description
_atom_site_fract_x
_atom_site_fract_y
_atom_site_fract_z
_atom_type_partial_charge
O1    O     O_R   0.438030 0.494310 0.439340 -0.535564
O2    O     O_R   0.561970 0.994310 0.560660 -0.535419
O3    O     O_R   0.556900 0.822900 0.435960 -0.540052
O4    O     O_R   0.443100 0.322900 0.564040 -0.538567
C1    C     C_R   0.575635 0.656576 0.421082 0.739440
C2    C     C_R   0.424594 0.154239 0.579103 0.737591
O5    O     O_R   0.438170 0.823950 0.431660 -0.516791
O6    O     O_R   0.561830 0.323950 0.568340 -0.517200
O7    O     O_R   0.442390 0.995390 0.556340 -0.536449
O8    O     O_R   0.557610 0.495390 0.443660 -0.535065
C3    C     C_R   0.418102 0.655257 0.416500 0.704760
C4    C     C_R   0.581979 0.155644 0.583389 0.704820
O9    O     O_3   0.501520 0.661170 0.540910 -0.381996
O10   O     O_3   0.498480 0.161170 0.459090 -0.380780
V1    V     V_3+5 0.499720 0.935580 0.492410 1.409889
V2    V     V_3+5 0.500280 0.435580 0.507590 1.411552
C5    C     C_R   0.830470 0.936163 0.854447 -0.219390
C6    C     C_R   0.171765 0.441581 0.142080 -0.211031
C7    C     C_R   0.870254 0.083483 0.864548 -0.081756
C8    C     C_R   0.131189 0.585119 0.133555 -0.077531
C9    C     C_R   0.862539 0.242968 0.826744 -0.186741
C10   C     C_R   0.138719 0.742137 0.171999 -0.189465
C11   C     C_R   0.816183 0.255569 0.779368 0.061789
C12   C     C_R   0.185200 0.754985 0.219188 0.060937
C13   C     C_R   0.775150 0.110889 0.771360 0.074616
C14   C     C_R   0.226258 0.612544 0.226806 0.074481
C15   C     C_R   0.782223 0.950744 0.809421 0.042709
C16   C     C_R   0.219592 0.455355 0.187780 0.040888
C17   C     C_R   0.810572 0.410934 0.739913 -0.323320
C18   C     C_R   0.190720 0.908092 0.259032 -0.320351
C19   C     C_R   0.766231 0.422145 0.689809 0.495637
C20   C     C_R   0.234872 0.918771 0.309333 0.497632
C21   C     C_R   0.723982 0.277927 0.682039 -0.047485
C22   C     C_R   0.276854 0.776127 0.317160 -0.046779
C23   C     C_R   0.727934 0.124229 0.724317 -0.167296
C24   C     C_R   0.273045 0.624997 0.274434 -0.166746
C25   C     C_R   0.686568 0.978688 0.717420 0.033206
C26   C     C_R   0.314113 0.480964 0.281400 0.032503
C27   C     C_R   0.693931 0.818721 0.755466 0.466617
C28   C     C_R   0.307005 0.323596 0.242611 0.466369
C29   C     C_R   0.741931 0.805460 0.800621 -0.279760
C30   C     C_R   0.259662 0.311622 0.196533 -0.285205
C31   C     C_R   0.679533 0.278517 0.631076 0.463406
C32   C     C_R   0.321036 0.776128 0.368394 0.459391
C33   C     C_R   0.633600 0.145481 0.630363 -0.220576
C34   C     C_R   0.366547 0.644502 0.369468 -0.220168
C35   C     C_R   0.638716 0.994537 0.672260 -0.228312
C36   C     C_R   0.361439 0.495697 0.327325 -0.227062
H1    H     H_    0.835889 0.812331 0.883181 0.129946
H2    H     H_    0.166642 0.320246 0.112507 0.126444
H3    H     H_    0.893400 0.356410 0.833296 0.129329
H4    H     H_    0.107477 0.853113 0.166249 0.130819
H5    H     H_    0.841106 0.523940 0.748158 0.132241
H6    H     H_    0.160270 0.019812 0.250910 0.132214
H7    H     H_    0.605123 0.888078 0.669259 0.180061
H8    H     H_    0.394791 0.390513 0.330509 0.180553
H9    H     H_    0.748355 0.679184 0.827739 0.138241
H10   H     H_    0.253438 0.187177 0.168797 0.137885
C37   C     C_3   0.253687 0.284311 0.811667 0.365732
C38   C     C_3   0.755924 0.800985 0.193369 0.361535
C39   C     C_3   0.249689 0.943853 0.800651 -0.416231
C40   C     C_3   0.747777 0.458889 0.201294 -0.452412
C41   C     C_3   0.304100 0.971492 0.760146 -0.439132
C42   C     C_3   0.693800 0.494239 0.240674 -0.442003
H11   H     H_    0.341292 0.331210 0.779987 -0.007010
H12   H     H_    0.667107 0.852481 0.219467 -0.008897
H13   H     H_    0.282898 0.243128 0.854449 -0.047575
H14   H     H_    0.729538 0.777212 0.147160 -0.024371
H15   H     H_    0.223572 0.823745 0.782120 0.226423
H16   H     H_    0.769660 0.333849 0.221223 0.224188
H17   H     H_    0.264615 0.913829 0.851414 0.153266
H18   H     H_    0.733072 0.435209 0.150130 0.143021
H19   H     H_    0.310995 0.845895 0.733989 0.213965
H20   H     H_    0.682576 0.368672 0.265878 0.206269
C43   C     C_1   0.380167 0.141688 0.626307 -0.228031
C44   C     C_1   0.620692 0.651149 0.374542 -0.225149
C45   C     C_3   0.211303 0.117809 0.796425 0.158630
C46   C     C_3   0.791613 0.621706 0.207301 0.173019
C47   C     C_3   0.296843 0.314501 0.755571 0.351976
C48   C     C_3   0.709974 0.831664 0.246766 0.339117
C49   C     C_3   0.295874 0.136904 0.713146 0.146501
C50   C     C_3   0.706065 0.652251 0.288851 0.161093
C51   C     C_3   0.234172 0.120931 0.677696 -0.321851
C52   C     C_3   0.766850 0.622706 0.325210 -0.323950
C53   C     C_3   0.185053 0.135174 0.726144 -0.334856
C54   C     C_3   0.817241 0.625842 0.277937 -0.328577
C55   C     C_1   0.342819 0.134844 0.665879 -0.098661
C56   C     C_1   0.658587 0.650029 0.335573 -0.100750
C57   C     C_1   0.162953 0.102628 0.841651 -0.033491
C58   C     C_1   0.839567 0.598751 0.161865 -0.029847
C59   C     C_1   0.123126 0.089069 0.877917 -0.189349
C60   C     C_1   0.878385 0.583360 0.124429 -0.198502
H21   H     H_    0.162390 0.268965 0.719545 0.187826
H22   H     H_    0.844841 0.751180 0.286023 0.187988
H23   H     H_    0.228249 0.230229 0.640422 0.163213
H24   H     H_    0.775234 0.730557 0.362161 0.163701
O11   O     O_R   0.942420 0.735670 0.056390 -0.533094
O12   O     O_R   0.057580 0.235670 0.943610 -0.534343
O13   O     O_R   0.061840 0.404850 0.068350 -0.538235
O14   O     O_R   0.938160 0.904850 0.931650 -0.538948
C61   C     C_R   0.081604 0.573724 0.084031 0.695718
C62   C     C_R   0.918883 0.073404 0.915354 0.697424
O15   O     O_R   0.943100 0.406010 0.064050 -0.532477
O16   O     O_R   0.056900 0.906010 0.935950 -0.536442
O17   O     O_R   0.938020 0.234710 0.939330 -0.535522
O18   O     O_R   0.061980 0.734710 0.060670 -0.539457
C63   C     C_R   0.924289 0.573759 0.078767 0.712036
C64   C     C_R   0.076025 0.075635 0.921849 0.707475
O19   O     O_3   0.998500 0.567790 0.959120 -0.377428
O20   O     O_3   0.001500 0.067790 0.040880 -0.375024
V3    V     V_3+5 0.000280 0.293330 0.007580 1.398369
V4    V     V_3+5 0.999720 0.793330 0.992420 1.386960
H25   H     H_    0.344199 0.992965 0.792549 0.137860
H26   H     H_    0.654970 0.526635 0.207670 0.140311
H27   H     H_    0.151544 0.025517 0.715814 0.143883
H28   H     H_    0.846249 0.505870 0.287997 0.147815
O21   O     O_3   0.220692 0.444280 0.823239 -0.551385
C65   C     C_3   0.230161 0.500755 0.888049 0.064029
H29   H     H_    0.272214 0.579979 0.892952 0.123786
H30   H     H_    0.232345 0.382828 0.922532 0.101330
C66   C     C_3   0.179237 0.619023 0.907417 -0.270639
H31   H     H_    0.169539 0.726056 0.870542 0.202299
H32   H     H_    0.139071 0.532214 0.910701 0.202765
C67   C     C_3   0.194154 0.709088 0.972378 -0.843070
H33   H     H_    0.203796 0.603104 0.009970 0.224202
H34   H     H_    0.156536 0.791388 0.986706 0.244944
H35   H     H_    0.232990 0.801617 0.969381 0.217081
O22   O     O_3   0.796023 0.950891 0.189018 -0.552135
C68   C     C_3   0.782150 0.062347 0.134370 0.085952
H36   H     H_    0.807308 0.192181 0.140947 0.149770
H37   H     H_    0.734356 0.095789 0.130131 0.105631
C69   C     C_3   0.802369 0.979893 0.071984 -0.336706
H38   H     H_    0.850739 0.959292 0.076457 0.220480
H39   H     H_    0.780623 0.845616 0.061894 0.179718
C70   C     C_3   0.787650 0.108377 0.015380 -0.835101
H40   H     H_    0.739773 0.138203 0.011549 0.224807
H41   H     H_    0.799223 0.041900 0.970461 0.234307
H42   H     H_    0.812992 0.238797 0.021018 0.230643
O23   O     O_3   0.280579 0.476097 0.720010 -0.552368
C71   C     C_3   0.322656 0.536493 0.676151 0.085715
H43   H     H_    0.307247 0.668532 0.655228 0.130426
H44   H     H_    0.321416 0.450783 0.632751 0.121196
C72   C     C_3   0.386004 0.561561 0.706482 -0.403996
H45   H     H_    0.384947 0.623095 0.755025 0.194040
H46   H     H_    0.407938 0.426891 0.711878 0.195814
C73   C     C_3   0.423729 0.682230 0.665168 -0.722132
H47   H     H_    0.413900 0.653972 0.613388 0.244694
H48   H     H_    0.471109 0.657103 0.677469 0.219279
H49   H     H_    0.415048 0.827421 0.675007 0.219040
O24   O     O_3   0.725989 0.991187 0.283102 -0.554578
C74   C     C_3   0.682658 0.049966 0.325010 0.088204
H50   H     H_    0.697317 0.184788 0.344233 0.131312
H51   H     H_    0.683444 0.965602 0.369272 0.124563
C75   C     C_3   0.619399 0.068018 0.293537 -0.407749
H52   H     H_    0.620393 0.131006 0.244902 0.190628
H53   H     H_    0.598160 0.931515 0.287623 0.198348
C76   C     C_3   0.580403 0.182032 0.334337 -0.731364
H54   H     H_    0.588025 0.146796 0.386024 0.245581
H55   H     H_    0.533347 0.157273 0.319561 0.220932
H56   H     H_    0.590064 0.328823 0.326924 0.219765
H57   H     H_    0.230121 0.987111 0.652556 0.150137
H58   H     H_    0.766663 0.488539 0.350856 0.148803
O25   O     O_3   0.758712 0.582870 0.654008 -0.527926
C77   C     C_3   0.811090 0.641126 0.625823 0.098768
H59   H     H_    0.800212 0.662208 0.573657 0.142378
H60   H     H_    0.847599 0.539870 0.629959 0.079911
C78   C     C_3   0.831630 0.825907 0.653461 -0.295544
H61   H     H_    0.795379 0.925373 0.646020 0.204546
H62   H     H_    0.842804 0.812845 0.705762 0.197554
C79   C     C_3   0.885408 0.899635 0.620859 -0.861559
H63   H     H_    0.922951 0.804451 0.628944 0.234347
H64   H     H_    0.898281 0.035162 0.641403 0.235480
H65   H     H_    0.875230 0.916741 0.568386 0.233264
O26   O     O_3   0.242489 0.077967 0.345341 -0.527777
C80   C     C_3   0.190031 0.132741 0.373113 0.097050
H66   H     H_    0.200540 0.151043 0.425406 0.142412
H67   H     H_    0.153217 0.030509 0.368444 0.079649
C81   C     C_3   0.170306 0.318383 0.345569 -0.295131
H68   H     H_    0.206948 0.418311 0.353217 0.204175
H69   H     H_    0.159265 0.307669 0.293207 0.197459
C82   C     C_3   0.116767 0.389325 0.378096 -0.860716
H70   H     H_    0.078905 0.293254 0.370127 0.235394
H71   H     H_    0.104346 0.525162 0.357397 0.235657
H72   H     H_    0.127028 0.405051 0.430554 0.232964
O27   O     O_3   0.683285 0.403090 0.580617 -0.540487
C83   C     C_3   0.699646 0.312499 0.524129 0.110130
H73   H     H_    0.693351 0.410404 0.483261 0.133933
H74   H     H_    0.670643 0.193000 0.511698 0.085903
C84   C     C_3   0.764532 0.252934 0.528361 -0.351227
H75   H     H_    0.793709 0.375032 0.531645 0.185897
H76   H     H_    0.773916 0.166182 0.571527 0.187922
C85   C     C_3   0.779571 0.143452 0.469605 -0.832258
H77   H     H_    0.751697 0.017836 0.465302 0.226625
H78   H     H_    0.826453 0.102045 0.474511 0.232793
H79   H     H_    0.773027 0.228395 0.425491 0.225041
O28   O     O_3   0.317828 0.900446 0.418272 -0.539923
C86   C     C_3   0.301896 0.809674 0.475565 0.114316
H80   H     H_    0.307248 0.909968 0.515372 0.135302
H81   H     H_    0.331766 0.694717 0.489377 0.085021
C87   C     C_3   0.237562 0.741011 0.471784 -0.354390
H82   H     H_    0.207378 0.858303 0.465069 0.187645
H83   H     H_    0.229634 0.646914 0.430654 0.187751
C88   C     C_3   0.222701 0.638246 0.532838 -0.834623
H84   H     H_    0.251175 0.516264 0.540048 0.225426
H85   H     H_    0.176052 0.591422 0.528600 0.232785
H86   H     H_    0.228692 0.729548 0.575078 0.224761
O29   O     O_3   0.660186 0.664217 0.741056 -0.554568
C89   C     C_3   0.616963 0.643168 0.786370 0.045906
H87   H     H_    0.588165 0.765976 0.785978 0.107432
H88   H     H_    0.637731 0.621866 0.835603 0.114174
C90   C     C_3   0.579213 0.474882 0.768108 -0.253274
H89   H     H_    0.561277 0.489182 0.717548 0.199942
H90   H     H_    0.607083 0.350478 0.771463 0.194939
C91   C     C_3   0.528194 0.451017 0.811925 -0.885819
H91   H     H_    0.545149 0.432569 0.862623 0.233382
H92   H     H_    0.501776 0.328031 0.797150 0.226958
H93   H     H_    0.499151 0.572548 0.808296 0.234707
O30   O     O_3   0.340300 0.169618 0.256954 -0.554285
C92   C     C_3   0.384310 0.154489 0.212493 0.046510
H94   H     H_    0.413012 0.279378 0.213587 0.106711
H95   H     H_    0.364296 0.134502 0.162911 0.113068
C93   C     C_3   0.421992 0.988000 0.231216 -0.253460
H96   H     H_    0.439218 0.000995 0.282037 0.200228
H97   H     H_    0.394266 0.861745 0.227308 0.194874
C94   C     C_3   0.473684 0.970129 0.188272 -0.885627
H98   H     H_    0.457435 0.952899 0.137338 0.232913
H99   H     H_    0.500063 0.848409 0.203422 0.227822
H100  H     H_    0.502567 0.093632 0.192417 0.234972

loop_
_geom_bond_atom_site_label_1
_geom_bond_atom_site_label_2
_ccdc_geom_bond_type
C70   H42   S    
C47   O23   S    
C88   H84   S    
C76   H54   S    
H11   C47   S    
C72   C73   S    
O25   C77   S    
O1    C3    A    
C71   C72   S    
C9    H3    S    
O2    C4    A    
O22   C68   S    
C37   C45   S    
C2    O7    A    
C81   H68   S    
O27   C83   S    
O3    V1    S    
C70   H40   S    
C78   H62   S    
O18   V4    S    
C82   H70   S    
C46   C58   S    
C48   O24   S    
C88   H85   S    
C45   C57   S    
C77   H60   S    
C17   H5    S    
C41   C49   S    
C11   C17   A    
C54   H28   S    
C77   H59   S    
C23   C25   A    
C52   C54   S    
C68   H36   S    
C67   H34   S    
C87   C88   S    
O26   C80   S    
C7    C62   S    
C91   H92   S    
C34   C36   A    
C79   H63   S    
C31   O27   S    
C72   H45   S    
C38   C46   S    
C94   H100  S    
O12   C64   A    
C40   H16   S    
C62   O17   A    
C84   H76   S    
C52   H24   S    
C74   C75   S    
C39   C41   S    
C65   H29   S    
C66   C67   S    
C40   C42   S    
C54   H22   S    
C37   H13   S    
O20   V3    S    
C53   H21   S    
C80   H66   S    
C84   C85   S    
C39   C45   S    
C87   H82   S    
C27   O29   S    
C74   H50   S    
C19   C21   A    
C8    C61   S    
O11   C63   A    
C80   C81   S    
C44   C56   T    
C26   C36   A    
C36   H8    S    
C68   C69   S    
C39   H17   S    
C28   C30   A    
O17   V3    S    
C45   C53   S    
C37   O21   S    
C70   H41   S    
C30   H10   S    
C86   H80   S    
C22   C24   A    
C49   C51   S    
C78   H61   S    
C32   C34   A    
C78   C79   S    
C73   H48   S    
C33   C35   A    
C94   H99   S    
C88   H86   S    
C19   O25   S    
C32   O28   S    
C42   H26   S    
O29   C89   S    
C5    C15   A    
C85   H79   S    
C69   C70   S    
C2    C43   S    
C6    C16   A    
C71   H43   S    
C75   C76   S    
C80   H67   S    
O19   V4    S    
C5    H1    S    
C92   H94   S    
C47   C49   S    
O11   V4    S    
C91   H91   S    
C89   H87   S    
O5    V1    S    
C41   H19   S    
C93   C94   S    
C20   O26   S    
C69   H39   S    
O16   V4    S    
C65   C66   S    
C20   C22   A    
O4    V2    S    
C86   C87   S    
O5    C3    A    
C18   C20   A    
C92   H95   S    
C73   H49   S    
C18   H6    S    
C15   C29   A    
C60   C63   S    
C58   C60   T    
C90   H89   S    
C53   H27   S    
O6    C4    A    
O13   V3    S    
O14   C62   A    
C94   H98   S    
C66   H31   S    
C40   H18   S    
O1    V2    S    
C51   H23   S    
C68   H37   S    
C93   H97   S    
O2    V1    S    
C31   C33   A    
C42   C50   S    
C75   H52   S    
C49   C55   S    
C13   C23   A    
C67   H35   S    
C65   H30   S    
C14   C24   A    
C90   H90   S    
C8    C10   A    
O14   V4    S    
C76   H56   S    
C50   C52   S    
C9    C11   A    
C10   C12   A    
O4    C2    A    
C25   C35   A    
C37   C47   S    
C24   C26   A    
O16   C64   A    
C52   H58   S    
C6    H2    S    
C35   H7    S    
C73   H47   S    
C82   H72   S    
C39   H15   S    
C61   O18   A    
C72   H46   S    
C22   C32   A    
C38   C48   S    
O12   V3    S    
C28   O30   S    
C11   C13   A    
O10   V1    S    
C75   H53   S    
C59   C64   S    
C40   C46   S    
C77   C78   S    
C38   O22   S    
C12   C14   A    
O28   C86   S    
O3    C1    A    
C91   H93   S    
C81   H69   S    
O23   C71   S    
C4    C33   S    
O15   V3    S    
C13   C15   A    
H12   C48   S    
C14   C16   A    
C51   C53   S    
C38   H14   S    
C85   H77   S    
C83   C84   S    
C86   H81   S    
O7    V1    S    
C29   H9    S    
C1    O8    A    
C17   C19   A    
C89   H88   S    
O8    V2    S    
O21   C65   S    
C92   C93   S    
C26   C28   A    
C46   C54   S    
O30   C92   S    
C79   H64   S    
C1    C44   S    
C89   C90   S    
C50   C56   S    
C16   C30   A    
C21   C23   A    
C48   C50   S    
C69   H38   S    
C10   H4    S    
C6    C8    A    
C74   H51   S    
C51   H57   S    
C84   H75   S    
C12   C18   A    
C66   H32   S    
C81   C82   S    
C41   H25   S    
C5    C7    A    
C25   C27   A    
C90   C91   S    
C27   C29   A    
O6    V2    S    
C57   C59   T    
O9    V2    S    
C76   H55   S    
C42   H20   S    
O24   C74   S    
C3    C34   S    
O15   C63   A    
C71   H44   S    
C83   H73   S    
C21   C31   A    
C83   H74   S    
C93   H96   S    
O13   C61   A    
C87   H83   S    
C43   C55   T    
C82   H71   S    
C85   H78   S    
C67   H33   S    
C7    C9    A    
C79   H65   S    
