data_mof_unit_11305.cif
_audit_creation_date              2012-12-10T18:43:07-0500
_audit_creation_method            fapswitch 2.2
_symmetry_space_group_name_H-M    P1
_symmetry_Int_Tables_number       1
_space_group_crystal_system       triclinic
_cell_length_a                    10.729741
_cell_length_b                    9.878107
_cell_length_c                    10.811537
_cell_angle_alpha                 90.206963
_cell_angle_beta                  91.105507
_cell_angle_gamma                 90.214979
_cell_volume                      1145.68058014

loop_
_atom_site_label
_atom_site_type_symbol
_atom_type_description
_atom_site_fract_x
_atom_site_fract_y
_atom_site_fract_z
_atom_type_partial_charge
C1    C     C_R   0.260238 0.500210 0.499421 1.016583
C2    C     C_R   0.739503 0.500286 0.503138 0.952044
C3    C     C_R   0.494675 0.499461 0.262266 0.901210
C4    C     C_R   0.499245 0.499686 0.736584 0.961295
C5    C     C_2   0.430457 0.411994 0.930170 -0.186013
C6    C     C_2   0.462583 0.390598 0.058877 -0.161641
C7    C     C_2   0.506902 0.494993 0.867020 0.220553
C8    C     C_2   0.456267 0.500307 0.134021 0.282352
C9    C     C_R   0.060849 0.442094 0.397795 -0.151923
C10   C     C_R   0.931350 0.439402 0.401723 -0.138510
C11   C     C_R   0.871872 0.501022 0.501417 -0.247754
C12   C     C_R   0.127448 0.502537 0.497354 -0.245013
C13   C     C_R   0.938213 0.567879 0.596355 0.351177
C14   C     C_R   0.067095 0.568510 0.594623 0.364392
C15   C     C_R   0.575552 0.071677 0.580398 0.406280
C16   C     C_R   0.425506 0.069793 0.419272 0.402749
C17   C     C_R   0.575124 0.928227 0.580234 -0.075983
C18   C     C_R   0.425490 0.926706 0.419565 -0.076369
H1    H     H_    0.635189 0.873739 0.644178 0.219061
H2    H     H_    0.365982 0.871160 0.355134 0.210918
N1    N     N_R   0.500000 0.857200 0.500000 -0.145032
N2    N     N_R   0.500000 0.142810 0.500000 -0.153259
O1    O     O_R   0.316770 0.614620 0.499990 -0.595628
O2    O     O_R   0.683230 0.614620 0.500010 -0.596340
O3    O     O_R   0.316800 0.385290 0.500000 -0.575361
O4    O     O_R   0.683200 0.385290 0.500000 -0.566240
O5    O     O_R   0.500000 0.614630 0.319080 -0.583871
O6    O     O_R   0.500000 0.614630 0.680920 -0.573747
O7    O     O_R   0.500030 0.385300 0.319080 -0.587219
O8    O     O_R   0.499970 0.385300 0.680920 -0.600897
Zn1   Zn    Zn3+2 0.500000 0.653120 0.500000 1.080387
Zn2   Zn    Zn3+2 0.500000 0.346880 0.500000 1.116473
C19   C     C_2   0.314445 0.345657 0.879065 1.049067
O9    O     O_2   0.270861 0.376805 0.777987 -0.614733
O10   O     O_R   0.252344 0.249571 0.949935 -0.726998
H3    H     H_    0.174670 0.212490 0.906750 0.374116
C20   C     C_2   0.521791 0.257557 0.087864 1.025598
O11   O     O_2   0.612832 0.250489 0.156643 -0.583293
O12   O     O_R   0.478151 0.140428 0.028019 -0.697317
H4    H     H_    0.526711 0.056671 0.052975 0.384981
Cl1   Cl    Cl    0.641131 0.574688 0.932951 -0.461023
Cl2   Cl    Cl    0.381178 0.652127 0.083674 -0.428853
C21   C     C_2   0.124061 0.391274 0.285597 1.036936
O13   O     O_2   0.209388 0.456007 0.241655 -0.610545
O14   O     O_R   0.082400 0.272419 0.227260 -0.711293
H5    H     H_    0.128674 0.251968 0.148763 0.404766
C22   C     C_2   0.857893 0.384158 0.295973 1.006129
O15   O     O_2   0.821516 0.266866 0.298488 -0.486645
O16   O     O_R   0.836158 0.464988 0.192052 -0.745528
H6    H     H_    0.792599 0.414214 0.122053 0.393211
Cl3   Cl    Cl    0.860477 0.649356 0.718627 -0.412157
Cl4   Cl    Cl    0.151936 0.652312 0.714956 -0.417722
Cl5   Cl    Cl    0.676180 0.155703 0.685097 -0.480292
Cl6   Cl    Cl    0.328668 0.150376 0.311991 -0.523080

loop_
_geom_bond_atom_site_label_1
_geom_bond_atom_site_label_2
_ccdc_geom_bond_type
C1    O3    A    
C21   O13   D    
C14   Cl4   S    
O4    Zn2   S    
C20   O11   D    
C13   C14   A    
C18   N1    A    
N1    Zn1   S    
C9    C10   A    
O10   H3    S    
O16   H6    S    
O3    Zn2   S    
C3    O5    A    
C19   O9    D    
C6    C20   S    
C2    O4    A    
O14   H5    S    
O8    Zn2   S    
C21   O14   S    
C3    O7    A    
C1    C12   S    
N2    Zn2   S    
C4    C7    S    
C6    C8    D    
C2    C11   S    
C15   Cl5   S    
C16   C18   A    
C19   O10   S    
C12   C14   A    
C1    O1    A    
O7    Zn2   S    
C18   H2    S    
C15   N2    A    
C2    O2    A    
C5    C6    S    
C20   O12   S    
C9    C12   A    
C17   N1    A    
C9    C21   S    
C10   C11   A    
C15   C17   A    
O5    Zn1   S    
O1    Zn1   S    
C11   C13   A    
C22   O16   S    
C3    C8    S    
C4    O6    A    
C16   Cl6   S    
O12   H4    S    
C5    C7    D    
C17   H1    S    
C16   N2    A    
O2    Zn1   S    
C13   Cl3   S    
C10   C22   S    
O6    Zn1   S    
C4    O8    A    
C22   O15   D    
C7    Cl1   S    
C8    Cl2   S    
C5    C19   S    
