data_mof_unit_56838.cif
_audit_creation_date              2012-12-11T16:04:55-0500
_audit_creation_method            fapswitch 2.2
_symmetry_space_group_name_H-M    P1
_symmetry_Int_Tables_number       1
_space_group_crystal_system       triclinic
_cell_length_a                    10.644248
_cell_length_b                    10.648911
_cell_length_c                    16.908079
_cell_angle_alpha                 98.649119
_cell_angle_beta                  98.607038
_cell_angle_gamma                 61.559067
_cell_volume                      1659.32567681

loop_
_atom_site_label
_atom_site_type_symbol
_atom_type_description
_atom_site_fract_x
_atom_site_fract_y
_atom_site_fract_z
_atom_type_partial_charge
C1    C     C_R   0.354906 0.774863 0.398287 0.545342
C2    C     C_3   0.756557 0.304689 0.248484 -0.152090
C3    C     C_3   0.833662 0.343620 0.324960 0.054722
C4    C     C_3   0.979616 0.227087 0.301185 -0.181802
C5    C     C_3   0.992921 0.338178 0.257858 -0.114107
C6    C     C_3   0.846139 0.454043 0.282328 0.263953
C7    C     C_3   0.769472 0.415869 0.205707 -0.097126
C8    C     C_3   0.916210 0.299246 0.181836 0.019505
C9    C     C_3   0.474981 0.775388 0.219783 -0.094134
C10   C     C_3   0.418322 0.685348 0.252749 -0.103520
C11   C     C_3   0.348337 0.809202 0.317695 0.055438
C12   C     C_R   0.372121 0.347867 0.358300 0.540686
C13   C     C_3   0.406920 0.897125 0.286774 -0.098666
C14   C     C_3   0.266394 0.963361 0.232037 -0.125838
C15   C     C_3   0.208570 0.874340 0.263917 -0.120530
C16   C     C_3   0.277119 0.751705 0.198246 -0.118604
C17   C     C_3   0.333936 0.840476 0.166667 0.039225
C18   C     C_3   0.459682 0.251903 0.773434 -0.108210
C19   C     C_3   0.407018 0.392751 0.735077 -0.112766
C20   C     C_3   0.336501 0.334402 0.663143 0.053578
C21   C     C_3   0.389259 0.194367 0.700894 -0.111941
C22   C     C_3   0.247267 0.263671 0.740919 -0.109044
C23   C     C_R   0.776891 0.377391 0.401950 0.555578
C24   C     C_3   0.194784 0.404765 0.701949 -0.118627
C25   C     C_3   0.265130 0.461984 0.775433 -0.127551
C26   C     C_3   0.318564 0.321276 0.812730 0.052862
C27   C     C_1   0.817247 0.341901 0.709618 -0.044943
C28   C     C_1   0.843514 0.315007 0.778146 -0.047553
C29   C     C_1   0.357305 0.765868 0.714382 -0.048055
C30   C     C_1   0.326045 0.812096 0.781994 -0.048093
C31   C     C_R   0.959056 0.284186 0.102323 0.557467
C32   C     C_R   0.320225 0.300765 0.119677 0.532099
C33   C     C_R   0.298281 0.884752 0.086137 0.532498
C34   C     C_R   0.379180 0.716440 0.631683 0.545123
C35   C     C_R   0.884500 0.299588 0.860991 0.551557
C36   C     C_R   0.308318 0.294080 0.891873 0.543556
C37   C     C_R   0.282257 0.880499 0.859699 0.542983
C38   C     C_R   0.366521 0.345476 0.584934 0.536518
C39   C     C_R   0.774134 0.379555 0.629594 0.533529
C40   C     C_1   0.347597 0.338868 0.274405 -0.056154
C41   C     C_1   0.335072 0.329150 0.203144 -0.057220
C42   C     C_3   0.903972 0.187010 0.223082 -0.129927
Cr1   Cr    Cr6+3 0.608340 0.611040 0.520430 1.062049
Cr2   Cr    Cr6+3 0.287650 0.601120 0.489350 1.061077
Cr3   Cr    Cr6+3 0.604040 0.287870 0.490280 1.038314
Cr4   Cr    Cr6+3 0.054020 0.052700 0.970850 1.024940
Cr5   Cr    Cr6+3 0.059230 0.375120 0.993390 1.030231
Cr6   Cr    Cr6+3 0.374950 0.061200 0.992340 1.030186
H1    H     H_    0.659009 0.290967 0.246425 0.131598
H2    H     H_    0.210748 0.076955 0.219017 0.109850
H3    H     H_    0.101075 0.912577 0.284549 0.137038
H4    H     H_    0.225987 0.690741 0.160507 0.133612
H5    H     H_    0.473754 0.445481 0.730664 0.101591
H6    H     H_    0.568138 0.191449 0.804345 0.133886
H7    H     H_    0.438193 0.085449 0.668677 0.137836
H8    H     H_    0.181045 0.210517 0.745664 0.119825
H9    H     H_    0.086982 0.465200 0.670384 0.138558
H10   H     H_    0.216344 0.570560 0.808021 0.130552
H11   H     H_    0.926257 0.078150 0.195114 0.147118
H12   H     H_    0.062806 0.154274 0.343921 0.117991
H13   H     H_    0.088753 0.353778 0.260101 0.127869
H14   H     H_    0.685094 0.489502 0.163835 0.122673
H15   H     H_    0.480258 0.570597 0.264230 0.110824
H16   H     H_    0.581242 0.738008 0.197885 0.166799
H17   H     H_    0.457805 0.957884 0.324954 0.153677
O1    O     O_R   0.751220 0.499230 0.435170 -0.458898
O2    O     O_R   0.297880 0.469080 0.560050 -0.510536
O3    O     O_R   0.489720 0.254590 0.564810 -0.511858
O4    O     O_R   0.725220 0.304230 0.585080 -0.495770
O5    O     O_3   0.500010 0.500010 0.500020 -0.291008
O6    O     O_R   0.171830 0.913880 0.057510 -0.525203
O7    O     O_R   0.940690 0.186050 0.054730 -0.498627
O8    O     O_R   0.920470 0.405720 0.075010 -0.502228
O9    O     O_R   0.196690 0.370460 0.084120 -0.513842
O10   O     O_R   0.412990 0.180750 0.091610 -0.503245
O11   O     O_R   0.366620 0.943130 0.065760 -0.500084
O12   O     O_R   0.477220 0.727600 0.436870 -0.479054
O13   O     O_R   0.160510 0.906330 0.879210 -0.509908
O14   O     O_R   0.930190 0.179050 0.889450 -0.490704
O15   O     O_R   0.909140 0.398170 0.896710 -0.503790
O16   O     O_R   0.186190 0.363460 0.918830 -0.501396
O17   O     O_R   0.401670 0.173200 0.913310 -0.513715
O18   O     O_R   0.356120 0.936130 0.900470 -0.491818
O19   O     O_3   0.162740 0.163010 0.985530 -0.279558
O20   O     O_R   0.258650 0.745120 0.411470 -0.504688
O21   O     O_R   0.297070 0.467240 0.395960 -0.478810
O22   O     O_R   0.488830 0.252610 0.387790 -0.510771
O23   O     O_R   0.724400 0.302390 0.420980 -0.506740
O24   O     O_R   0.752100 0.501210 0.612190 -0.516506
O25   O     O_R   0.478040 0.729440 0.600970 -0.496260
O26   O     O_R   0.259530 0.747110 0.588490 -0.497464
Cl1   Cl    Cl    0.816950 0.631228 0.318814 -0.605335

loop_
_geom_bond_atom_site_label_1
_geom_bond_atom_site_label_2
_ccdc_geom_bond_type
C18   C21   S    
C1    O12   A    
Cr6   O11   S    
C3    C23   S    
C19   C20   S    
C1    C11   S    
C3    C6    S    
C32   O10   A    
C7    C8    S    
C13   H17   S    
Cr1   O24   S    
C23   O1    A    
Cr3   O22   S    
C8    C42   S    
C32   O9    A    
C5    C6    S    
C31   O8    A    
C15   C16   S    
C9    H16   S    
C35   O15   A    
C18   C19   S    
C9    C13   S    
C34   O26   A    
C11   C15   S    
C10   H15   S    
C2    C7    S    
C28   C35   S    
C36   O17   A    
C24   H9    S    
C18   C26   S    
C32   C41   S    
Cr2   O5    S    
C15   H3    S    
C9    C10   S    
Cr4   O7    S    
C19   H5    S    
C21   C22   S    
Cr6   O10   S    
C17   C33   S    
Cr5   O15   S    
Cr2   O21   S    
C1    O20   A    
Cr1   O25   S    
C14   H2    S    
Cr3   O4    S    
C20   C24   S    
Cr3   O23   S    
C24   C25   S    
Cr5   O8    S    
C27   C39   S    
Cr4   O13   S    
C18   H6    S    
C16   C17   S    
C22   H8    S    
C25   C26   S    
C29   C34   S    
Cr6   O19   S    
C30   C37   S    
C12   C40   S    
C34   O25   A    
C7    H14   S    
C29   C30   T    
C2    H1    S    
C20   C38   S    
C33   O11   A    
C36   O16   A    
C4    H12   S    
Cr3   O3    S    
C39   O4    A    
C5    H13   S    
Cr5   O19   S    
C20   C21   S    
Cr4   O6    S    
Cr2   O26   S    
Cr4   O19   S    
C9    C17   S    
C31   O7    A    
C38   O3    A    
Cr1   O5    S    
C23   O23   A    
C22   C24   S    
C25   H10   S    
C3    C4    S    
C21   H7    S    
C26   C36   S    
C40   C41   T    
C12   O22   A    
Cr3   O5    S    
C8    C31   S    
C16   H4    S    
Cr5   O9    S    
C4    C5    S    
C42   H11   S    
C5    C8    S    
C6    C7    S    
Cr1   O12   S    
C37   O13   A    
Cr6   O18   S    
C12   O21   A    
C2    C3    S    
C10   C16   S    
C11   C13   S    
Cr4   O14   S    
C4    C42   S    
C2    C42   S    
Cr1   O1    S    
C6    Cl1   S    
C35   O14   A    
Cr6   O17   S    
Cr5   O16   S    
C19   C25   S    
C10   C11   S    
C33   O6    A    
C38   O2    A    
C22   C26   S    
C27   C28   T    
C14   C15   S    
C37   O18   A    
Cr2   O2    S    
C13   C14   S    
C39   O24   A    
Cr2   O20   S    
C14   C17   S    
