data_mof_unit_36735.cif
_audit_creation_date              2012-10-26T17:12:34-0400
_audit_creation_method            fapswitch 2.2
_symmetry_space_group_name_H-M    P1
_symmetry_Int_Tables_number       1
_space_group_crystal_system       triclinic
_cell_length_a                    16.767283
_cell_length_b                    16.767296
_cell_length_c                    16.76728
_cell_angle_alpha                 67.97889
_cell_angle_beta                  67.97884
_cell_angle_gamma                 67.978999
_cell_volume                      3897.7203189

loop_
_atom_site_label
_atom_site_type_symbol
_atom_type_description
_atom_site_fract_x
_atom_site_fract_y
_atom_site_fract_z
_atom_type_partial_charge
C1    C     C_R   0.028078 0.828190 0.564699 0.827883
C2    C     C_R   0.971922 0.171810 0.435300 0.827883
C3    C     C_R   0.828190 0.564700 0.028078 0.827884
C4    C     C_R   0.171810 0.435300 0.971922 0.827883
C5    C     C_R   0.564699 0.028079 0.828190 0.827883
C6    C     C_R   0.435301 0.971921 0.171810 0.827882
C7    C     C_R   0.435301 0.171810 0.971922 0.827884
C8    C     C_R   0.564699 0.828190 0.028078 0.827884
C9    C     C_R   0.971922 0.435300 0.171810 0.827884
C10   C     C_R   0.028078 0.564699 0.828190 0.827885
C11   C     C_R   0.171810 0.971921 0.435301 0.827883
C12   C     C_R   0.828190 0.028079 0.564699 0.827883
C13   C     C_R   0.451774 0.066369 0.704622 0.182338
C14   C     C_R   0.548225 0.933631 0.295378 0.182338
C15   C     C_R   0.066366 0.704624 0.451776 0.182339
C16   C     C_R   0.933634 0.295376 0.548224 0.182338
C17   C     C_R   0.704623 0.451776 0.066367 0.182339
C18   C     C_R   0.295377 0.548224 0.933633 0.182338
C19   C     C_R   0.295375 0.933636 0.548226 0.182340
C20   C     C_R   0.704625 0.066365 0.451774 0.182340
C21   C     C_R   0.548225 0.295376 0.933636 0.182339
C22   C     C_R   0.451775 0.704624 0.066363 0.182340
C23   C     C_R   0.933635 0.548225 0.295376 0.182339
C24   C     C_R   0.066365 0.451775 0.704624 0.182340
C25   C     C_R   0.543569 0.021581 0.543568 0.030832
C26   C     C_R   0.456431 0.978420 0.456431 0.030832
C27   C     C_R   0.021580 0.543569 0.543569 0.030833
C28   C     C_R   0.978421 0.456431 0.456431 0.030833
C29   C     C_R   0.543569 0.543569 0.021579 0.030833
C30   C     C_R   0.456431 0.456431 0.978420 0.030834
C31   C     C_R   0.586208 0.013066 0.455674 0.029672
C32   C     C_R   0.413792 0.986935 0.544326 0.029672
C33   C     C_R   0.013067 0.455674 0.586207 0.029672
C34   C     C_R   0.986933 0.544326 0.413793 0.029672
C35   C     C_R   0.455674 0.586208 0.013065 0.029672
C36   C     C_R   0.544326 0.413793 0.986934 0.029671
C37   C     C_R   0.544328 0.986930 0.413794 0.029673
C38   C     C_R   0.455672 0.013071 0.586206 0.029672
C39   C     C_R   0.413794 0.544327 0.986930 0.029672
C40   C     C_R   0.586206 0.455673 0.013068 0.029672
C41   C     C_R   0.986932 0.413793 0.544327 0.029672
C42   C     C_R   0.013068 0.586207 0.455673 0.029672
C43   C     C_R   0.408993 0.041184 0.664492 -0.232699
C44   C     C_R   0.591006 0.958816 0.335508 -0.232699
C45   C     C_R   0.041179 0.664494 0.408995 -0.232702
C46   C     C_R   0.958821 0.335506 0.591005 -0.232702
C47   C     C_R   0.664493 0.408995 0.041181 -0.232700
C48   C     C_R   0.335508 0.591005 0.958817 -0.232700
C49   C     C_R   0.335504 0.958825 0.591005 -0.232703
C50   C     C_R   0.664496 0.041176 0.408995 -0.232703
C51   C     C_R   0.591004 0.335505 0.958823 -0.232702
C52   C     C_R   0.408996 0.664495 0.041175 -0.232703
C53   C     C_R   0.958822 0.591004 0.335505 -0.232701
C54   C     C_R   0.041178 0.408996 0.664494 -0.232702
C55   C     C_R   0.545918 0.049654 0.676211 0.017572
C56   C     C_R   0.454082 0.950346 0.323789 0.017572
C57   C     C_R   0.049651 0.676212 0.545919 0.017573
C58   C     C_R   0.950349 0.323788 0.454081 0.017572
C59   C     C_R   0.676211 0.545920 0.049651 0.017571
C60   C     C_R   0.323789 0.454081 0.950349 0.017571
C61   C     C_R   0.323788 0.950347 0.454082 0.017572
C62   C     C_R   0.676212 0.049653 0.545917 0.017572
C63   C     C_R   0.454082 0.323788 0.950349 0.017572
C64   C     C_R   0.545918 0.676212 0.049651 0.017572
C65   C     C_R   0.950348 0.454081 0.323788 0.017572
C66   C     C_R   0.049652 0.545919 0.676211 0.017572
C67   C     C_R   0.598191 0.045158 0.729029 -0.102159
C68   C     C_R   0.401809 0.954842 0.270971 -0.102160
C69   C     C_R   0.045157 0.729030 0.598191 -0.102160
C70   C     C_R   0.954843 0.270970 0.401809 -0.102160
C71   C     C_R   0.729030 0.598192 0.045156 -0.102160
C72   C     C_R   0.270970 0.401808 0.954844 -0.102160
C73   C     C_R   0.270970 0.954842 0.401809 -0.102159
C74   C     C_R   0.729030 0.045158 0.598190 -0.102159
C75   C     C_R   0.401809 0.270970 0.954843 -0.102159
C76   C     C_R   0.598191 0.729030 0.045156 -0.102159
C77   C     C_R   0.954843 0.401809 0.270970 -0.102159
C78   C     C_R   0.045157 0.598191 0.729030 -0.102158
C79   C     C_R   0.688742 0.042861 0.688741 -0.222279
C80   C     C_R   0.311258 0.957139 0.311259 -0.222279
C81   C     C_R   0.042859 0.688742 0.688742 -0.222279
C82   C     C_R   0.957140 0.311258 0.311258 -0.222278
C83   C     C_R   0.688742 0.688742 0.042859 -0.222279
C84   C     C_R   0.311258 0.311258 0.957141 -0.222278
C85   C     C_R   0.589091 0.039115 0.589090 0.016993
C86   C     C_R   0.410909 0.960886 0.410909 0.016993
C87   C     C_R   0.039113 0.589091 0.589091 0.016994
C88   C     C_R   0.960887 0.410909 0.410909 0.016994
C89   C     C_R   0.589091 0.589092 0.039112 0.016995
C90   C     C_R   0.410909 0.410908 0.960887 0.016995
Cu1   Cu    Cu3+1 0.995180 0.995180 0.424630 1.027624
Cu2   Cu    Cu3+1 0.004820 0.004820 0.575370 1.027624
Cu3   Cu    Cu3+1 0.995180 0.424630 0.995180 1.027623
Cu4   Cu    Cu3+1 0.004820 0.575370 0.004820 1.027623
Cu5   Cu    Cu3+1 0.424630 0.995180 0.995180 1.027624
Cu6   Cu    Cu3+1 0.575370 0.004820 0.004820 1.027624
H1    H     H_    0.337116 0.053397 0.689284 0.167652
H2    H     H_    0.662884 0.946603 0.310716 0.167652
H3    H     H_    0.053391 0.689286 0.337119 0.167653
H4    H     H_    0.946609 0.310714 0.662881 0.167653
H5    H     H_    0.689284 0.337118 0.053395 0.167653
H6    H     H_    0.310717 0.662883 0.946603 0.167653
H7    H     H_    0.310709 0.946618 0.662881 0.167652
H8    H     H_    0.689290 0.053383 0.337119 0.167652
H9    H     H_    0.662880 0.310712 0.946615 0.167653
H10   H     H_    0.337120 0.689289 0.053384 0.167654
H11   H     H_    0.946613 0.662881 0.310712 0.167652
H12   H     H_    0.053387 0.337119 0.689288 0.167652
H13   H     H_    0.729420 0.035888 0.729420 0.202976
H14   H     H_    0.270580 0.964112 0.270580 0.202976
H15   H     H_    0.035887 0.729420 0.729420 0.202976
H16   H     H_    0.964113 0.270580 0.270580 0.202976
H17   H     H_    0.729420 0.729421 0.035886 0.202976
H18   H     H_    0.270579 0.270579 0.964114 0.202976
O1    O     O_R   0.124540 0.978640 0.385460 -0.569234
O2    O     O_R   0.875460 0.021360 0.614540 -0.569235
O3    O     O_R   0.978640 0.385460 0.124540 -0.569235
O4    O     O_R   0.021360 0.614540 0.875460 -0.569235
O5    O     O_R   0.385460 0.124540 0.978640 -0.569234
O6    O     O_R   0.614540 0.875460 0.021360 -0.569234
O7    O     O_R   0.614540 0.021360 0.875460 -0.569234
O8    O     O_R   0.385460 0.978640 0.124540 -0.569234
O9    O     O_R   0.875460 0.614540 0.021360 -0.569234
O10   O     O_R   0.124540 0.385460 0.978640 -0.569233
O11   O     O_R   0.021360 0.875460 0.614540 -0.569233
O12   O     O_R   0.978640 0.124540 0.385460 -0.569233
O13   O     O_R   0.013780 0.867370 0.487190 -0.571199
O14   O     O_R   0.986220 0.132630 0.512810 -0.571199
O15   O     O_R   0.867370 0.487190 0.013780 -0.571199
O16   O     O_R   0.132630 0.512810 0.986220 -0.571199
O17   O     O_R   0.487190 0.013780 0.867370 -0.571198
O18   O     O_R   0.512810 0.986220 0.132630 -0.571198
O19   O     O_R   0.512810 0.132630 0.986220 -0.571199
O20   O     O_R   0.487190 0.867370 0.013780 -0.571198
O21   O     O_R   0.986220 0.512810 0.132630 -0.571198
O22   O     O_R   0.013780 0.487190 0.867370 -0.571199
O23   O     O_R   0.132630 0.986220 0.512810 -0.571198
O24   O     O_R   0.867370 0.013780 0.487190 -0.571198
I1    I     I_    0.367430 0.166365 0.771647 -0.277901
I2    I     I_    0.632570 0.833635 0.228353 -0.277900
I3    I     I_    0.166365 0.771644 0.367431 -0.277899
I4    I     I_    0.833635 0.228356 0.632568 -0.277900
I5    I     I_    0.771641 0.367435 0.166368 -0.277898
I6    I     I_    0.228359 0.632565 0.833632 -0.277898
I7    I     I_    0.228346 0.833643 0.632575 -0.277900
I8    I     I_    0.771655 0.166357 0.367424 -0.277900
I9    I     I_    0.632573 0.228351 0.833641 -0.277901
I10   I     I_    0.367427 0.771649 0.166358 -0.277901
I11   I     I_    0.833640 0.632572 0.228352 -0.277900
I12   I     I_    0.166360 0.367428 0.771648 -0.277900

loop_
_geom_bond_atom_site_label_1
_geom_bond_atom_site_label_2
_ccdc_geom_bond_type
C68   C80   A    
C40   C47   A    
C14   C56   A    
C26   C32   A    
Cu3   Cu4   S    
C47   H5    S    
Cu1   O12   S    
C12   C74   S    
C9    O3    A    
C83   H17   S    
C35   C39   A    
Cu5   Cu6   S    
C34   C42   A    
Cu3   O10   S    
C4    C72   S    
C16   I4    S    
C30   C90   A    
Cu3   O22   S    
Cu2   O11   S    
C29   C89   A    
C10   C78   S    
C27   C33   A    
C50   H8    S    
C19   I7    S    
Cu1   O13   S    
Cu6   O7    S    
C13   I1    S    
C22   C52   A    
C10   O22   A    
C7    O19   A    
C12   O2    A    
C75   C84   A    
C63   C90   A    
C60   C72   A    
C24   C54   A    
C5    O7    A    
C28   C41   A    
C8    C76   S    
C55   C67   A    
C4    O10   A    
C59   C89   A    
C19   C49   A    
C20   C50   A    
C1    O11   A    
C15   I3    S    
C44   H2    S    
C81   H15   S    
C28   C88   A    
C41   C46   A    
C32   C38   A    
C11   O1    A    
Cu1   Cu2   S    
C5    C67   S    
Cu6   O18   S    
Cu4   O9    S    
C13   C43   A    
C6    C68   S    
C23   I11   S    
C28   C34   A    
Cu5   O17   S    
C15   C57   A    
C1    O13   A    
Cu3   O3    S    
C64   C89   A    
Cu3   O15   S    
Cu2   O23   S    
Cu2   O14   S    
C76   C83   A    
C3    O9    A    
C23   C53   A    
C71   C83   A    
C66   C78   A    
C62   C85   A    
C65   C77   A    
C79   H13   S    
C8    O20   A    
C17   C47   A    
C36   C40   A    
C67   C79   A    
C6    O18   A    
C45   H3    S    
C16   C46   A    
C66   C87   A    
C58   C70   A    
C7    C75   S    
Cu5   O5    S    
C56   C68   A    
C32   C49   A    
C22   C64   A    
Cu5   O20   S    
C1    C69   S    
C31   C37   A    
C18   C48   A    
C42   C45   A    
C82   H16   S    
C55   C85   A    
C3    C71   S    
C30   C36   A    
C27   C42   A    
C10   O4    A    
C7    O5    A    
C25   C38   A    
Cu1   O24   S    
C53   H11   S    
C56   C86   A    
C26   C86   A    
C48   H6    S    
C25   C85   A    
Cu4   O21   S    
C64   C76   A    
C9    C77   S    
C27   C87   A    
Cu2   O2    S    
C72   C84   A    
C36   C51   A    
C24   I12   S    
C17   C59   A    
C9    O21   A    
Cu5   O8    S    
C18   C60   A    
C22   I10   S    
C16   C58   A    
C74   C79   A    
C11   C73   S    
C20   I8    S    
C6    O8    A    
C31   C50   A    
Cu4   O16   S    
C21   I9    S    
C21   C51   A    
C8    O6    A    
C65   C88   A    
C14   C44   A    
C33   C54   A    
C46   H4    S    
C84   H18   S    
C3    O15   A    
C25   C31   A    
Cu6   O6    S    
C43   H1    S    
C14   I2    S    
C58   C88   A    
C49   H7    S    
C4    O16   A    
C26   C37   A    
Cu6   O19   S    
C60   C90   A    
C29   C35   A    
C54   H12   S    
C17   I5    S    
C61   C73   A    
C23   C65   A    
C37   C44   A    
C18   I6    S    
C11   O23   A    
C33   C41   A    
C38   C43   A    
Cu4   O4    S    
C78   C81   A    
C63   C75   A    
C77   C82   A    
C19   C61   A    
C29   C40   A    
C73   C80   A    
Cu1   O1    S    
C30   C39   A    
C12   O24   A    
C20   C62   A    
C70   C82   A    
C51   H9    S    
C21   C63   A    
C69   C81   A    
C61   C86   A    
C2    O12   A    
C52   H10   S    
C57   C87   A    
C5    O17   A    
C24   C66   A    
C34   C53   A    
C80   H14   S    
C35   C52   A    
C15   C45   A    
C62   C74   A    
C57   C69   A    
C2    C70   S    
C59   C71   A    
C39   C48   A    
C13   C55   A    
C2    O14   A    
