data_mof_unit_24814.cif
_audit_creation_date              2012-12-10T19:12:31-0500
_audit_creation_method            fapswitch 2.2
_symmetry_space_group_name_H-M    P1
_symmetry_Int_Tables_number       1
_space_group_crystal_system       triclinic
_cell_length_a                    15.685019
_cell_length_b                    10.699361
_cell_length_c                    9.912709
_cell_angle_alpha                 89.620054
_cell_angle_beta                  90.152467
_cell_angle_gamma                 89.67253
_cell_volume                      1663.47785217

loop_
_atom_site_label
_atom_site_type_symbol
_atom_type_description
_atom_site_fract_x
_atom_site_fract_y
_atom_site_fract_z
_atom_type_partial_charge
C1    C     C_R   0.503898 0.258285 0.501278 0.980752
C2    C     C_3   0.083069 0.500159 0.499662 0.045521
C3    C     C_3   0.971966 0.605459 0.447617 0.530985
C4    C     C_3   0.917072 0.499303 0.501911 0.039841
C5    C     C_3   0.027712 0.510870 0.370759 -0.350367
C6    C     C_3   0.973096 0.404381 0.429173 0.553186
C7    C     C_1   0.173986 0.500340 0.499381 0.017053
C8    C     C_1   0.826052 0.499120 0.501296 0.039601
C9    C     C_3   0.523900 0.069578 0.651104 0.105956
C10   C     C_3   0.519260 0.927221 0.650925 -0.467616
C11   C     C_3   0.416410 0.073042 0.462400 0.173531
C12   C     C_R   0.338367 0.500062 0.499797 0.954926
C13   C     C_3   0.578662 0.072464 0.408736 0.295316
C14   C     C_3   0.507002 0.121280 0.504902 -0.174276
C15   C     C_3   0.505312 0.877630 0.504643 -0.197652
C16   C     C_3   0.417905 0.929436 0.451908 -0.035355
C17   C     C_3   0.576416 0.928054 0.408549 0.297150
C18   C     C_3   0.439378 0.403053 0.080250 0.117447
C19   C     C_3   0.426081 0.424812 0.924864 0.197870
C20   C     C_3   0.476102 0.627523 0.077823 0.654566
C21   C     C_3   0.584088 0.470092 0.081188 -0.305645
C22   C     C_3   0.483339 0.624716 0.914422 0.001309
C23   C     C_R   0.502850 0.741429 0.500618 1.007438
C24   C     C_3   0.580764 0.452405 0.922352 -0.341294
C25   C     C_R   0.661648 0.499539 0.500201 0.901100
C26   C     C_3   0.972722 0.488728 0.629381 -0.275605
C27   C     C_3   0.029531 0.391411 0.555923 -0.217137
C28   C     C_1   0.249382 0.500287 0.499424 -0.107727
C29   C     C_1   0.750647 0.499203 0.500704 -0.140297
C30   C     C_3   0.028385 0.597343 0.574805 -0.196399
H1    H     H_    0.055730 0.303507 0.599880 0.159404
H2    H     H_    0.464412 0.900323 0.714375 0.256041
H3    H     H_    0.372134 0.100440 0.545664 0.152625
H4    H     H_    0.561727 0.105277 0.305454 0.131562
H5    H     H_    0.551201 0.907031 0.309144 0.106431
H6    H     H_    0.409646 0.902576 0.344738 0.200232
H7    H     H_    0.376906 0.407146 0.132554 0.155618
H8    H     H_    0.947948 0.479768 0.733785 0.183328
H9    H     H_    0.365820 0.479062 0.918565 0.154783
H10   H     H_    0.630583 0.544665 0.105762 0.212044
H11   H     H_    0.612135 0.386173 0.130676 0.203804
H12   H     H_    0.590373 0.352374 0.897923 0.262398
H13   H     H_    0.634918 0.503418 0.876032 0.180143
H14   H     H_    0.538508 0.681081 0.879683 0.145902
H15   H     H_    0.052094 0.519767 0.266118 0.162273
H16   H     H_    0.053639 0.676742 0.634031 0.172424
H17   H     H_    0.472240 0.101543 0.717921 0.205140
H18   H     H_    0.575259 0.885101 0.702072 0.201047
N1    N     N_3   0.498170 0.499750 0.138610 -0.134160
N2    N     N_3   0.498850 0.496730 0.861320 -0.114363
O1    O     O_R   0.499980 0.314910 0.616040 -0.577395
O2    O     O_R   0.500040 0.314680 0.383960 -0.572100
O3    O     O_R   0.376750 0.500100 0.616020 -0.547712
O4    O     O_R   0.376810 0.499870 0.383940 -0.605727
O5    O     O_R   0.499960 0.685320 0.616040 -0.606326
O6    O     O_R   0.500020 0.685090 0.383960 -0.550822
O7    O     O_R   0.623190 0.500130 0.616060 -0.631251
O8    O     O_R   0.623250 0.499900 0.383980 -0.612778
Zn1   Zn    Zn3+2 0.499960 0.500150 0.654960 1.016491
Zn2   Zn    Zn3+2 0.500040 0.499850 0.345040 1.032924
Br1   Br    Br    0.317456 0.858410 0.539364 -0.490246
O9    O     O_3   0.659649 0.117819 0.449137 -0.568242
C31   C     C_3   0.709809 0.149922 0.336307 -0.190948
H19   H     H_    0.683141 0.233964 0.284593 0.153146
H20   H     H_    0.715370 0.070823 0.264481 0.181894
H21   H     H_    0.774891 0.173178 0.371813 0.223125
O10   O     O_3   0.657305 0.866401 0.403697 -0.582429
C32   C     C_3   0.697646 0.848774 0.529304 -0.154230
H22   H     H_    0.699374 0.934924 0.589780 0.234991
H23   H     H_    0.764972 0.822048 0.510444 0.201307
H24   H     H_    0.668828 0.769671 0.585249 0.113111
O11   O     O_3   0.390409 0.125098 0.336934 -0.566154
C33   C     C_3   0.302765 0.155747 0.337353 -0.176359
H25   H     H_    0.289000 0.230602 0.411606 0.123736
H26   H     H_    0.263094 0.072094 0.358071 0.183727
H27   H     H_    0.284887 0.192131 0.236067 0.201541
Br2   Br    Br    0.480223 0.230320 0.105000 -0.477531
Br3   Br    Br    0.380240 0.283379 0.827428 -0.473498
Br4   Br    Br    0.361259 0.673255 0.146381 -0.478081
Br5   Br    Br    0.382046 0.705205 0.830853 -0.431337
O12   O     O_3   0.534909 0.718655 0.125837 -0.604497
C34   C     C_3   0.517427 0.842116 0.077085 -0.214202
H28   H     H_    0.464117 0.885749 0.132846 0.210993
H29   H     H_    0.502553 0.851301 0.968750 0.170519
H30   H     H_    0.575408 0.899545 0.090921 0.187806
O13   O     O_3   0.937104 0.305370 0.355447 -0.609686
C35   C     C_3   0.002881 0.229746 0.303467 -0.312501
H31   H     H_    0.040623 0.184884 0.385839 0.157982
H32   H     H_    0.045250 0.283668 0.234950 0.168635
H33   H     H_    0.973735 0.153896 0.243465 0.194201
O14   O     O_3   0.934731 0.715155 0.393316 -0.605770
C36   C     C_3   0.999598 0.798047 0.353743 -0.259325
H34   H     H_    0.040757 0.756530 0.274376 0.176112
H35   H     H_    0.038742 0.827486 0.441543 0.168475
H36   H     H_    0.969471 0.883364 0.310302 0.188799
Br6   Br    Br    0.627334 0.128176 0.741640 -0.491226

loop_
_geom_bond_atom_site_label_1
_geom_bond_atom_site_label_2
_ccdc_geom_bond_type
C35   H31   S    
C31   H20   S    
O5    Zn1   S    
C3    C30   S    
C24   H12   S    
C33   H25   S    
C2    C7    S    
C4    C8    S    
C21   N1    S    
O12   C34   S    
O3    Zn1   S    
C23   O6    A    
O4    Zn2   S    
C26   C27   S    
O9    C31   S    
N1    Zn2   S    
C12   C28   S    
N2    Zn1   S    
C18   H7    S    
C10   C15   S    
C32   H24   S    
C5    C6    S    
C11   C14   S    
O7    Zn1   S    
O8    Zn2   S    
C15   C16   S    
C3    O14   S    
C18   C19   S    
O2    Zn2   S    
C22   H14   S    
C13   O9    S    
C32   H22   S    
C2    C27   S    
C9    C10   S    
C12   O3    A    
C22   N2    S    
C15   C23   S    
C31   H21   S    
C20   O12   S    
C24   N2    S    
C33   H26   S    
C25   O7    A    
C25   C29   S    
C17   O10   S    
C9    H17   S    
C27   H1    S    
O10   C32   S    
C11   H3    S    
C4    C6    S    
O14   C36   S    
O13   C35   S    
C26   H8    S    
C5    H15   S    
C36   H36   S    
C7    C28   T    
O6    Zn2   S    
C19   Br3   S    
C9    C14   S    
C20   N1    S    
C11   C16   S    
C6    C27   S    
C36   H35   S    
C1    O1    A    
C9    Br6   S    
C19   H9    S    
C21   H11   S    
C20   C22   S    
C26   C30   S    
C34   H29   S    
C35   H32   S    
C10   H18   S    
C33   H27   S    
C35   H33   S    
C2    C5    S    
O1    Zn1   S    
C16   Br1   S    
C8    C29   T    
C3    C4    S    
C15   C17   S    
C20   Br4   S    
C11   O11   S    
C30   H16   S    
O11   C33   S    
C3    C5    S    
C4    C26   S    
C23   O5    A    
C34   H30   S    
C6    O13   S    
C13   C17   S    
C2    C30   S    
C22   Br5   S    
C13   H4    S    
C16   H6    S    
C19   N2    S    
C21   H10   S    
C18   Br2   S    
C36   H34   S    
C1    O2    A    
C31   H19   S    
C10   H2    S    
C32   H23   S    
C34   H28   S    
C25   O8    A    
C21   C24   S    
C24   H13   S    
C1    C14   S    
C17   H5    S    
C13   C14   S    
C12   O4    A    
C18   N1    S    
