data_mof_unit_66313.cif
_audit_creation_date              2012-10-26T21:23:58-0400
_audit_creation_method            fapswitch 2.2
_symmetry_space_group_name_H-M    P1
_symmetry_Int_Tables_number       1
_space_group_crystal_system       triclinic
_cell_length_a                    17.729293
_cell_length_b                    16.441127
_cell_length_c                    14.362732
_cell_angle_alpha                 90.000023
_cell_angle_beta                  90.241728
_cell_angle_gamma                 89.999958
_cell_volume                      4186.54914037

loop_
_atom_site_label
_atom_site_type_symbol
_atom_type_description
_atom_site_fract_x
_atom_site_fract_y
_atom_site_fract_z
_atom_type_partial_charge
C1    C     C_R   0.355440 0.500036 0.499765 0.548608
C2    C     C_R   0.455157 0.256869 0.439010 0.054114
C3    C     C_R   0.450926 0.743076 0.444128 0.062130
C4    C     C_R   0.544843 0.256869 0.560989 0.054114
C5    C     C_R   0.500000 0.873063 0.500000 0.025535
C6    C     C_R   0.500000 0.126875 0.500000 0.022232
C7    C     C_1   0.500000 0.962676 0.499999 -0.013387
C8    C     C_1   0.500000 0.037262 0.499999 -0.014002
C9    C     C_R   0.499952 0.500000 0.330676 0.555082
C10   C     C_R   0.500048 0.500000 0.669324 0.555083
C11   C     C_1   0.499951 0.499998 0.228484 -0.016628
C12   C     C_R   0.644560 0.500036 0.500235 0.548608
C13   C     C_1   0.500049 0.499998 0.771516 -0.016628
C14   C     C_1   0.499962 0.499997 0.143180 -0.022305
C15   C     C_1   0.500037 0.499997 0.856819 -0.022304
C16   C     C_1   0.499988 0.499996 0.042654 0.013590
C17   C     C_1   0.500012 0.499996 0.957346 0.013590
C18   C     C_R   0.846066 0.548606 0.435827 -0.115523
C19   C     C_R   0.153068 0.453204 0.435609 -0.113027
C20   C     C_R   0.153933 0.548605 0.564171 -0.115524
C21   C     C_R   0.846933 0.453202 0.564388 -0.113027
C22   C     C_R   0.767275 0.548741 0.435434 -0.034317
C23   C     C_1   0.966174 0.501219 0.499968 -0.016282
C24   C     C_R   0.231837 0.452541 0.434867 -0.030244
C25   C     C_R   0.232724 0.548740 0.564565 -0.034316
C26   C     C_R   0.768164 0.452539 0.565130 -0.030243
C27   C     C_R   0.727516 0.500280 0.500165 -0.012680
C28   C     C_R   0.272484 0.500281 0.499835 -0.012679
C29   C     C_R   0.885563 0.500969 0.499985 0.008933
C30   C     C_R   0.114437 0.500970 0.500013 0.008932
C31   C     C_1   0.728564 0.597297 0.366286 0.208994
C32   C     C_1   0.269422 0.405285 0.364070 0.198745
C33   C     C_1   0.271435 0.597292 0.633716 0.208993
C34   C     C_1   0.033826 0.501219 0.500030 -0.016282
C35   C     C_1   0.730580 0.405282 0.635927 0.198745
C36   C     C_R   0.549964 0.828907 0.556867 -0.129690
C37   C     C_R   0.454328 0.171039 0.437904 -0.132089
C38   C     C_R   0.450036 0.828907 0.443133 -0.129690
C39   C     C_R   0.545673 0.171039 0.562096 -0.132089
C40   C     C_R   0.549074 0.743076 0.555871 0.062131
Cu1   Cu    Cu3+1 0.500000 0.580420 0.500000 0.973224
Cu2   Cu    Cu3+1 0.500000 0.419580 0.500000 0.968076
H1    H     H_    0.876714 0.585370 0.385936 0.125207
H2    H     H_    0.419778 0.289908 0.390672 0.153384
H3    H     H_    0.412125 0.709969 0.399865 0.124379
H4    H     H_    0.580223 0.289908 0.609328 0.153385
H5    H     H_    0.121737 0.416977 0.385522 0.126154
H6    H     H_    0.123286 0.585368 0.614062 0.125207
H7    H     H_    0.878264 0.416973 0.614475 0.126154
H8    H     H_    0.589456 0.860486 0.601828 0.105180
H9    H     H_    0.418225 0.139476 0.388779 0.111270
H10   H     H_    0.410545 0.860486 0.398171 0.105180
H11   H     H_    0.581777 0.139476 0.611220 0.111270
H12   H     H_    0.587875 0.709968 0.600134 0.124379
N1    N     N_R   0.500000 0.701220 0.500000 -0.209556
N2    N     N_R   0.500000 0.298780 0.500000 -0.220150
N3    N     N_1   0.697500 0.636142 0.310938 -0.281304
N4    N     N_1   0.299325 0.367616 0.307045 -0.315240
N5    N     N_1   0.302499 0.636133 0.689068 -0.281305
N6    N     N_1   0.700677 0.367612 0.692951 -0.315242
O1    O     O_R   0.391260 0.567930 0.500000 -0.492926
O2    O     O_R   0.608740 0.432070 0.500000 -0.488749
O3    O     O_R   0.608740 0.567930 0.500000 -0.492926
O4    O     O_R   0.391260 0.432070 0.500000 -0.488749
O5    O     O_R   0.500000 0.567920 0.376050 -0.478590
O6    O     O_R   0.500000 0.432080 0.623950 -0.482164
O7    O     O_R   0.500000 0.567920 0.623950 -0.478591
O8    O     O_R   0.500000 0.432080 0.376050 -0.482164

loop_
_geom_bond_atom_site_label_1
_geom_bond_atom_site_label_2
_ccdc_geom_bond_type
C1    C28   S    
Cu1   O5    S    
C21   C26   A    
C1    O4    A    
Cu1   O1    S    
C18   C22   A    
C12   O2    A    
Cu1   Cu2   S    
Cu2   O2    S    
C4    C39   A    
C32   N4    T    
C23   C34   T    
C31   N3    T    
C9    O5    A    
C21   H7    S    
C19   C24   A    
C6    C37   A    
C5    C7    S    
C7    C8    T    
C33   N5    T    
C18   C29   A    
C4    H4    S    
C18   H1    S    
C20   C30   A    
C25   C28   A    
Cu2   O8    S    
C9    C11   S    
C2    C37   A    
C26   C27   A    
C39   H11   S    
C21   C29   A    
C2    N2    A    
C23   C29   S    
C16   C17   T    
C40   H12   S    
C22   C27   A    
C10   O6    A    
C13   C15   T    
C37   H9    S    
C11   C14   T    
C14   C16   S    
C10   O7    A    
C9    O8    A    
C38   H10   S    
C20   C25   A    
C30   C34   S    
C12   C27   S    
C1    O1    A    
C5    C36   A    
Cu2   O4    S    
C26   C35   S    
C36   C40   A    
C36   H8    S    
Cu1   O7    S    
Cu2   O6    S    
C22   C31   S    
C19   H5    S    
C2    H2    S    
C24   C32   S    
C15   C17   S    
C12   O3    A    
Cu1   O3    S    
C6    C39   A    
Cu1   N1    S    
C6    C8    S    
C20   H6    S    
Cu2   N2    S    
C5    C38   A    
C19   C30   A    
C3    N1    A    
C3    H3    S    
C4    N2    A    
C24   C28   A    
C3    C38   A    
C25   C33   S    
C35   N6    T    
C10   C13   S    
C40   N1    A    
