data_mof_unit_58943.cif
_audit_creation_date              2012-12-10T18:51:36-0500
_audit_creation_method            fapswitch 2.2
_symmetry_space_group_name_H-M    P1
_symmetry_Int_Tables_number       1
_space_group_crystal_system       triclinic
_cell_length_a                    10.734157
_cell_length_b                    9.860154
_cell_length_c                    10.517654
_cell_angle_alpha                 89.932771
_cell_angle_beta                  90.129635
_cell_angle_gamma                 89.874962
_cell_volume                      1113.18686559

loop_
_atom_site_label
_atom_site_type_symbol
_atom_type_description
_atom_site_fract_x
_atom_site_fract_y
_atom_site_fract_z
_atom_type_partial_charge
C1    C     C_R   0.872179 0.499846 0.500079 -0.142163
C2    C     C_3   0.497178 0.370847 0.040898 -0.132763
C3    C     C_3   0.396227 0.438733 0.957657 -0.177590
C4    C     C_3   0.603776 0.561267 0.042344 -0.177587
C5    C     C_3   0.500170 0.500683 0.877785 0.025750
C6    C     C_3   0.499833 0.499317 0.122216 0.025754
C7    C     C_R   0.552777 0.071579 0.597882 -0.050571
C8    C     C_R   0.447221 0.928420 0.402119 -0.050570
C9    C     C_R   0.447055 0.072119 0.402189 -0.063879
C10   C     C_R   0.552943 0.927881 0.597812 -0.063875
C11   C     C_R   0.064977 0.412262 0.583482 -0.059638
C12   C     C_R   0.127822 0.500149 0.499907 -0.142166
C13   C     C_R   0.935023 0.587733 0.416504 -0.059657
C14   C     C_R   0.936013 0.412240 0.583662 -0.053174
C15   C     C_R   0.063988 0.587750 0.416320 -0.053170
C16   C     C_1   0.132084 0.323575 0.670786 0.197141
C17   C     C_1   0.867911 0.676461 0.329234 0.197135
C18   C     C_1   0.870108 0.324419 0.671955 0.190026
C19   C     C_1   0.129894 0.675574 0.328029 0.190010
C20   C     C_R   0.260406 0.500099 0.499789 0.882568
C21   C     C_R   0.739595 0.499901 0.500206 0.882559
C22   C     C_R   0.499819 0.499899 0.257228 0.866563
C23   C     C_R   0.500182 0.500101 0.742772 0.866572
C24   C     C_3   0.398874 0.566963 0.041593 -0.182397
C25   C     C_3   0.601129 0.433036 0.958407 -0.182395
C26   C     C_3   0.502825 0.629152 0.959103 -0.132760
H1    H     H_    0.594737 0.125508 0.676406 0.147387
H2    H     H_    0.494827 0.265361 0.077890 0.145888
H3    H     H_    0.405258 0.874492 0.323597 0.147388
H4    H     H_    0.404512 0.126504 0.323923 0.130204
H5    H     H_    0.595484 0.873496 0.676080 0.130202
H6    H     H_    0.311335 0.389362 0.919632 0.157551
H7    H     H_    0.688668 0.610638 0.080370 0.157529
H8    H     H_    0.316217 0.621209 0.078935 0.158794
H9    H     H_    0.683786 0.378791 0.921067 0.158792
H10   H     H_    0.505176 0.734638 0.922111 0.145886
N1    N     N_R   0.500000 0.857200 0.500000 -0.083633
N2    N     N_R   0.500000 0.142800 0.500000 -0.083634
N3    N     N_1   0.185111 0.252302 0.739751 -0.210528
N4    N     N_1   0.814879 0.747779 0.260306 -0.210488
N5    N     N_1   0.818408 0.253839 0.742072 -0.237093
N6    N     N_1   0.181596 0.746158 0.257916 -0.237096
O1    O     O_R   0.316770 0.614620 0.499990 -0.609918
O2    O     O_R   0.683230 0.385380 0.500010 -0.609916
O3    O     O_R   0.683230 0.614620 0.500010 -0.611687
O4    O     O_R   0.316770 0.385380 0.499990 -0.611689
O5    O     O_R   0.499970 0.614650 0.313950 -0.618906
O6    O     O_R   0.500030 0.385350 0.686050 -0.618904
O7    O     O_R   0.500030 0.614650 0.686050 -0.636151
O8    O     O_R   0.499970 0.385350 0.313950 -0.636152
Zn1   Zn    Zn3+2 0.500000 0.653120 0.500000 0.968225
Zn2   Zn    Zn3+2 0.500000 0.346880 0.500000 0.968225

loop_
_geom_bond_atom_site_label_1
_geom_bond_atom_site_label_2
_ccdc_geom_bond_type
O2    Zn2   S    
C7    C10   A    
O8    Zn2   S    
C11   C12   A    
C19   N6    T    
C1    C21   S    
C1    C14   A    
C21   O2    A    
C2    H2    S    
C11   C16   S    
C14   C18   S    
C4    C26   S    
C5    C23   S    
C12   C15   A    
C13   C17   S    
C22   O8    A    
C6    C24   S    
C12   C20   S    
C2    C3    S    
C7    H1    S    
C15   C19   S    
O1    Zn1   S    
C3    C24   S    
C2    C6    S    
C9    H4    S    
C25   H9    S    
C10   N1    A    
C5    C25   S    
C8    H3    S    
C26   H10   S    
C9    N2    A    
C7    N2    A    
C24   C26   S    
C4    C25   S    
C2    C25   S    
C21   O3    A    
C13   C15   A    
C3    H6    S    
N1    Zn1   S    
C11   C14   A    
C22   O5    A    
C23   O7    A    
N2    Zn2   S    
C8    N1    A    
O3    Zn1   S    
C16   N3    T    
C5    C26   S    
C6    C22   S    
O4    Zn2   S    
O6    Zn2   S    
C20   O1    A    
C1    C13   A    
C4    C6    S    
C18   N5    T    
C4    H7    S    
O5    Zn1   S    
C23   O6    A    
C3    C5    S    
C10   H5    S    
C20   O4    A    
C8    C9    A    
O7    Zn1   S    
C17   N4    T    
C24   H8    S    
