data_mof_unit_45232.cif
_audit_creation_date              2012-12-10T19:01:49-0500
_audit_creation_method            fapswitch 2.2
_symmetry_space_group_name_H-M    P1
_symmetry_Int_Tables_number       1
_space_group_crystal_system       triclinic
_cell_length_a                    11.659588
_cell_length_b                    10.873496
_cell_length_c                    9.695662
_cell_angle_alpha                 90.704672
_cell_angle_beta                  92.1699
_cell_angle_gamma                 95.38114
_cell_volume                      1222.77067338

loop_
_atom_site_label
_atom_site_type_symbol
_atom_type_description
_atom_site_fract_x
_atom_site_fract_y
_atom_site_fract_z
_atom_type_partial_charge
C1    C     C_R   0.501816 0.262776 0.498253 0.892195
C2    C     C_R   0.493857 0.128375 0.492601 -0.192724
C3    C     C_R   0.497128 0.059390 0.367329 0.291832
C4    C     C_R   0.493779 0.931076 0.371855 -0.205965
C5    C     C_R   0.488920 0.869291 0.498180 -0.192603
C6    C     C_R   0.470543 0.936794 0.617295 0.122027
C7    C     C_3   0.529618 0.939413 0.756678 0.085369
C8    C     C_3   0.537172 0.079269 0.751511 -0.395873
C9    C     C_R   0.595591 0.541540 0.077705 0.195146
C10   C     C_R   0.408569 0.436454 0.068018 0.394634
C11   C     C_R   0.414014 0.429127 0.917736 0.345599
C12   C     C_R   0.284573 0.502239 0.498151 0.875628
C13   C     C_R   0.595542 0.541575 0.932835 0.172121
C14   C     C_3   0.664933 0.663139 0.931135 -0.439257
C15   C     C_3   0.662715 0.665019 0.088251 -0.424774
C16   C     C_R   0.498488 0.737047 0.500421 0.791330
C17   C     C_R   0.715682 0.500833 0.502038 0.777557
C18   C     C_1   0.162663 0.502393 0.495571 -0.085954
C19   C     C_1   0.060064 0.502100 0.498057 0.061484
C20   C     C_1   0.940287 0.501621 0.502902 0.032976
C21   C     C_1   0.837644 0.501226 0.505147 -0.147178
C22   C     C_R   0.474804 0.063801 0.614291 0.080574
Cu1   Cu    Cu3+1 0.499990 0.499980 0.640670 1.036277
Cu2   Cu    Cu3+1 0.500010 0.500020 0.359330 1.057114
H1    H     H_    0.617030 0.734375 0.882080 0.231101
H2    H     H_    0.749222 0.660417 0.139091 0.206132
H3    H     H_    0.611926 0.737622 0.129948 0.223409
H4    H     H_    0.501434 0.880689 0.276120 0.210098
H5    H     H_    0.615387 0.902982 0.755759 0.110336
H6    H     H_    0.486630 0.122538 0.830089 0.283305
H7    H     H_    0.626930 0.122585 0.743701 0.163619
H8    H     H_    0.752315 0.655451 0.891758 0.204648
N1    N     N_R   0.500710 0.500930 0.147930 -0.252654
N2    N     N_R   0.500710 0.500890 0.852020 -0.258476
O1    O     O_R   0.500000 0.319640 0.618810 -0.533318
O2    O     O_R   0.500010 0.319680 0.381230 -0.503791
O3    O     O_R   0.337190 0.499990 0.618790 -0.504874
O4    O     O_R   0.337200 0.500030 0.381210 -0.497590
O5    O     O_R   0.499990 0.680320 0.618770 -0.573381
O6    O     O_R   0.500000 0.680360 0.381190 -0.588950
O7    O     O_R   0.662800 0.499970 0.618790 -0.585063
O8    O     O_R   0.662810 0.500010 0.381210 -0.574306
Br1   Br    Br    0.517931 0.128383 0.186680 -0.418776
Br2   Br    Br    0.424589 0.872973 0.894452 -0.421424
S1    S     S_3+6 0.272172 0.377269 0.146051 0.118996
O9    O     O_2   0.209937 0.488503 0.178892 -0.289693
O10   O     O_2   0.183665 0.293318 0.066580 -0.169039
O11   O     O_3   0.296262 0.292743 0.286279 -0.490424
H9    H     H_    0.219703 0.273053 0.325905 0.347712
S2    S     S_3+6 0.304653 0.322979 0.825385 0.085771
O12   O     O_2   0.301191 0.202440 0.900319 -0.234246
O13   O     O_2   0.192572 0.380157 0.835624 -0.243476
O14   O     O_3   0.303394 0.277635 0.659636 -0.532775
H10   H     H_    0.232132 0.221141 0.644492 0.359590

loop_
_geom_bond_atom_site_label_1
_geom_bond_atom_site_label_2
_ccdc_geom_bond_type
C2    C22   A    
C8    C22   S    
Cu1   Cu2   S    
C6    C7    S    
C7    H5    S    
Cu2   N1    S    
C13   C14   S    
Cu2   O8    S    
S2    O13   D    
C19   C20   S    
Cu1   O7    S    
Cu1   N2    S    
C8    H6    S    
C10   S1    S    
C2    C3    A    
C9    C15   S    
C13   N2    A    
S2    O12   D    
C11   S2    S    
O14   H10   S    
C9    N1    A    
C3    Br1   S    
C17   O8    A    
Cu2   O2    S    
C16   O6    A    
Cu1   O5    S    
O11   H9    S    
C4    H4    S    
C18   C19   T    
C10   N1    A    
Cu1   O1    S    
S1    O10   D    
C14   H1    S    
C12   O4    A    
C5    C6    A    
C17   O7    A    
S2    O14   S    
C10   C11   A    
C16   O5    A    
Cu2   O4    S    
C6    C22   A    
S1    O9    D    
C7    C8    S    
C20   C21   T    
C1    O1    A    
C1    C2    S    
S1    O11   S    
C12   C18   S    
C12   O3    A    
C9    C13   A    
C14   C15   S    
C5    C16   S    
Cu2   O6    S    
Cu1   O3    S    
C8    H7    S    
C15   H3    S    
C7    Br2   S    
C11   N2    A    
C17   C21   S    
C3    C4    A    
C1    O2    A    
C14   H8    S    
C4    C5    A    
C15   H2    S    
