data_mof_unit_22084.cif
_audit_creation_date              2013-03-05T15:55:18-0500
_audit_creation_method            fapswitch 2.2
_symmetry_space_group_name_H-M    P1
_symmetry_Int_Tables_number       1
_space_group_crystal_system       triclinic
_cell_length_a                    27.733702
_cell_length_b                    10.629456
_cell_length_c                    9.887843
_cell_angle_alpha                 89.217568
_cell_angle_beta                  89.618664
_cell_angle_gamma                 91.771946
_cell_volume                      2913.13987484

loop_
_atom_site_label
_atom_site_type_symbol
_atom_site_description
_atom_site_fract_x
_atom_site_fract_y
_atom_site_fract_z
_atom_type_partial_charge
O1    O     O_R   0.500000 0.316780 0.614690 -0.647927
O2    O     O_R   0.500000 0.316750 0.385360 -0.640914
C1    C     C_R   0.502102 0.258882 0.501595 0.868477
O3    O     O_R   0.428760 0.500030 0.614650 -0.650699
O4    O     O_R   0.428750 0.500010 0.385320 -0.646732
C2    C     C_R   0.406068 0.499129 0.500422 0.846605
Zn1   Zn    Zn3+2 0.500000 0.500020 0.653130 0.926533
Zn2   Zn    Zn3+2 0.500000 0.499980 0.346870 0.962924
O5    O     O_R   0.500000 0.683250 0.614640 -0.609360
O6    O     O_R   0.500000 0.683220 0.385310 -0.594995
O7    O     O_R   0.571250 0.499990 0.614680 -0.619046
O8    O     O_R   0.571240 0.499970 0.385350 -0.594680
C3    C     C_R   0.492273 0.737303 0.499877 0.918146
C4    C     C_R   0.593889 0.499849 0.499684 0.894742
C5    C     C_R   0.176309 0.383651 0.525069 0.503916
O9    O     O_2   0.200021 0.275419 0.540509 -0.555320
N1    N     N_R   0.201599 0.494875 0.507500 -0.352044
C6    C     C_R   0.179199 0.606688 0.492888 0.504680
C7    C     C_R   0.278182 0.505839 0.625034 -0.147093
C8    C     C_R   0.328202 0.507189 0.624125 -0.228595
C9    C     C_R   0.327984 0.485322 0.379793 -0.211913
C10   C     C_R   0.277632 0.483583 0.380034 0.237070
C11   C     C_R   0.252929 0.494358 0.503878 0.323408
C12   C     C_R   0.101742 0.495725 0.509964 -0.050886
C13   C     C_R   0.125864 0.381852 0.526249 -0.021338
C14   C     C_R   0.099319 0.269150 0.543567 -0.138706
C15   C     C_R   0.128827 0.609294 0.493771 -0.022608
C16   C     C_R   0.353404 0.497380 0.501478 -0.075977
H1    H     H_    0.347260 0.476969 0.284805 0.166216
H2    H     H_    0.117090 0.180739 0.558781 0.189713
C17   C     C_R   0.646471 0.498766 0.499431 -0.054815
C18   C     C_R   0.972982 0.379910 0.511929 0.046403
C19   C     C_R   0.975885 0.612585 0.502861 0.047094
C20   C     C_R   0.949212 0.496314 0.506312 0.070760
C21   C     C_R   0.944760 0.266867 0.506961 -0.214161
C22   C     C_R   0.894832 0.268209 0.502687 -0.132501
C23   C     C_R   0.871144 0.382058 0.502501 -0.022346
C24   C     C_R   0.898140 0.496456 0.504017 -0.051728
C25   C     C_R   0.873938 0.611005 0.503227 -0.021629
C26   C     C_R   0.823506 0.608997 0.501162 0.507357
N2    N     N_R   0.798210 0.496766 0.499958 -0.357965
C27   C     C_R   0.820754 0.384380 0.500393 0.507121
C28   C     C_R   0.721685 0.463037 0.383108 -0.098996
C29   C     C_R   0.671596 0.463764 0.382865 -0.189100
C30   C     C_R   0.671965 0.531971 0.616473 -0.204833
C31   C     C_R   0.722024 0.531267 0.616392 -0.093588
C32   C     C_R   0.746855 0.497011 0.499747 0.309404
O10   O     O_2   0.794393 0.275458 0.499997 -0.546543
C33   C     C_R   0.023949 0.380107 0.520765 0.047014
C34   C     C_R   0.050666 0.495995 0.509513 0.070369
C35   C     C_R   0.026936 0.612106 0.497394 0.046486
C36   C     C_R   0.049337 0.268048 0.541316 -0.214971
H3    H     H_    0.652594 0.435782 0.292292 0.199770
H4    H     H_    0.741007 0.436217 0.292976 0.148334
H5    H     H_    0.874842 0.179089 0.499366 0.192556
H6    H     H_    0.960083 0.175132 0.503176 0.138347
H7    H     H_    0.031709 0.177552 0.558737 0.139129
O11   O     O_2   0.205715 0.714625 0.477080 -0.553957
C37   C     C_R   0.105251 0.722404 0.477295 -0.136958
H8    H     H_    0.347062 0.516460 0.719229 0.175199
H9    H     H_    0.258865 0.514072 0.719898 0.146522
H10   H     H_    0.125349 0.810652 0.462620 0.191950
C38   C     C_R   0.950357 0.725770 0.505723 -0.214278
C39   C     C_R   0.900374 0.724707 0.505486 -0.134506
O12   O     O_2   0.799826 0.718090 0.499596 -0.546752
C40   C     C_R   0.055303 0.724045 0.478691 -0.214628
H11   H     H_    0.967822 0.817421 0.511030 0.137569
H12   H     H_    0.653290 0.559330 0.707518 0.169524
H13   H     H_    0.882519 0.813933 0.507266 0.189897
H14   H     H_    0.741608 0.557208 0.706730 0.146088
H15   H     H_    0.040129 0.814845 0.461538 0.139707
H16   H     H_    0.495649 0.113009 0.285770 0.175109
C41   C     C_R   0.510717 0.101110 0.756934 -0.167038
H17   H     H_    0.533865 0.184006 0.766480 0.181504
C42   C     C_R   0.497125 0.038006 0.876329 -0.167501
H18   H     H_    0.507598 0.076258 0.973116 0.163372
C43   C     C_R   0.467851 0.929708 0.871224 -0.143223
H19   H     H_    0.454137 0.887280 0.964620 0.150735
C44   C     C_R   0.456160 0.876580 0.746350 0.209458
C45   C     C_R   0.476270 0.931682 0.625383 0.092559
C46   C     C_R   0.496068 0.054201 0.629662 0.055491
C47   C     C_R   0.500145 0.123148 0.505520 -0.108924
C48   C     C_R   0.493248 0.062753 0.381796 -0.206666
H20   H     H_    0.484155 0.888972 0.282754 0.205326
C49   C     C_R   0.484880 0.935343 0.379538 -0.171802
C50   C     C_R   0.480337 0.868301 0.501109 -0.150743
C51   C     C_R   0.436373 0.335115 0.143513 -0.166574
H21   H     H_    0.434092 0.328944 0.250784 0.207187
C52   C     C_R   0.405217 0.253872 0.074595 -0.213400
H22   H     H_    0.380924 0.190193 0.130337 0.162185
C53   C     C_R   0.405259 0.254160 0.934638 -0.177151
H23   H     H_    0.381109 0.190492 0.881182 0.163180
C54   C     C_R   0.436499 0.335606 0.862833 -0.155109
H24   H     H_    0.434695 0.329653 0.755677 0.210646
C55   C     C_R   0.468625 0.419021 0.929303 0.144647
C56   C     C_R   0.468597 0.418963 0.074055 0.147179
N3    N     N_R   0.499540 0.498800 0.142780 -0.165715
C57   C     C_R   0.530253 0.577472 0.068649 -0.005758
H25   H     H_    0.554442 0.639622 0.868755 0.161347
C58   C     C_R   0.530040 0.577049 0.925578 -0.163798
N4    N     N_R   0.499520 0.498720 0.857170 -0.135251
C59   C     C_3   0.250545 0.470322 0.249353 -0.888502
H26   H     H_    0.275402 0.462158 0.161559 0.234819
H27   H     H_    0.226664 0.384580 0.253969 0.254736
H28   H     H_    0.228258 0.553966 0.232288 0.255244
C60   C     C_3   0.417970 0.772580 0.745697 -0.852851
H29   H     H_    0.406941 0.747748 0.641595 0.230414
H30   H     H_    0.431130 0.688110 0.799400 0.261921
H31   H     H_    0.385205 0.804071 0.799047 0.225500
C61   C     C_2   0.564800 0.663173 0.134958 0.971814
O13   O     O_2   0.553002 0.769267 0.163870 -0.651142
O14   O     O_R   0.612138 0.626267 0.154720 -0.816095
H32   H     H_    0.632915 0.693982 0.198988 0.346931

loop_
_geom_bond_atom_site_label_1
_geom_bond_atom_site_label_2
_geom_bond_distance
_ccdc_geom_bond_type
C51   H21   1.063152 S    
C54   H24   1.063710 S    
C57   C61   1.465734 S    
N2    C27   1.365331 A    
C55   C56   1.431271 A    
C12   C15   1.408608 A    
C4    C17   1.458686 S    
C28   C29   1.389448 A    
N3    C57   1.375880 A    
C43   H19   1.083612 S    
Zn1   O7    2.009792 S    
C25   C39   1.394597 A    
N1    C11   1.423957 S    
C22   C23   1.394686 A    
C37   C40   1.385879 A    
O4    C2    1.296490 A    
O7    C4    1.295266 A    
C5    C13   1.398524 A    
C60   H29   1.108787 S    
C5    O9    1.350065 S    
C59   H28   1.110073 S    
N1    C6    1.364379 A    
C41   H17   1.079598 S    
C23   C27   1.398768 A    
O5    C3    1.287153 A    
C61   O13   1.221032 D    
C45   C50   1.414927 A    
C29   H3    1.082624 S    
C6    O11   1.350164 S    
C2    C16   1.460083 S    
C7    C8    1.386833 A    
C3    C50   1.441357 S    
C8    H8    1.083286 S    
C19   C38   1.415206 A    
C54   C55   1.409536 A    
O1    Zn1   1.989569 S    
C9    C10   1.395964 A    
C51   C56   1.410874 A    
C41   C42   1.393757 A    
C30   H12   1.083284 S    
O3    Zn1   2.014543 S    
C41   C46   1.417319 A    
O14   H32   1.013923 S    
C46   C47   1.423058 A    
C43   C44   1.400599 A    
C12   C34   1.416657 A    
C38   H11   1.076573 S    
C17   C29   1.403378 A    
C18   C21   1.415217 A    
C12   C13   1.408813 A    
O3    C2    1.296620 A    
C53   H23   1.082786 S    
C8    C16   1.402419 A    
C34   C35   1.420554 A    
C13   C14   1.394492 A    
C49   C50   1.392031 A    
C9    H1    1.083677 S    
C47   C48   1.400814 A    
C44   C45   1.427090 A    
C44   C60   1.507233 S    
O1    C1    1.285615 A    
C21   C22   1.386126 A    
C18   C20   1.420459 A    
C7    C11   1.396580 A    
C42   H18   1.082855 S    
C23   C24   1.408445 A    
C14   C36   1.386189 A    
C53   C54   1.390289 A    
C28   H4    1.082925 S    
C40   H15   1.076560 S    
Zn2   O8    2.014540 S    
C33   C36   1.415277 A    
C56   N3    1.377261 A    
C1    C47   1.442105 S    
C19   C20   1.420492 A    
N2    C32   1.424360 S    
C27   O10   1.350108 S    
C39   H13   1.083712 S    
H20   C49   1.082447 S    
C59   H27   1.110172 S    
C42   C43   1.389667 A    
C26   N2    1.365352 A    
C48   C49   1.367456 A    
C9    C16   1.403949 A    
O8    C4    1.296951 A    
C14   H2    1.083729 S    
C57   C58   1.414785 A    
C26   O12   1.350171 S    
C51   C52   1.390858 A    
Zn1   N4    2.017326 S    
C52   C53   1.383835 A    
C25   C26   1.398453 A    
Zn1   O5    1.979365 S    
C31   C32   1.397664 A    
C37   H10   1.083733 S    
C21   H6    1.076660 S    
C20   C24   1.416795 A    
O2    Zn2   1.979363 S    
C6    C15   1.398102 A    
C45   C46   1.398869 A    
O6    C3    1.296871 A    
O4    Zn2   2.009795 S    
C5    N1    1.364297 A    
C19   C35   1.416691 A    
C10   C59   1.505067 S    
H25   C58   1.083018 S    
O2    C1    1.298646 A    
C22   H5    1.083696 S    
C15   C37   1.394363 A    
C24   C25   1.408354 A    
C60   H30   1.109578 S    
C7    H9    1.083039 S    
Zn2   N3    2.018343 S    
C58   N4    1.358908 A    
C59   H26   1.110933 S    
C61   O14   1.396006 S    
C18   C33   1.416706 A    
C31   H14   1.082974 S    
H16   C48   1.083711 S    
C36   H7    1.076690 S    
C38   C39   1.385911 A    
C30   C31   1.388568 A    
Zn2   O6    1.989568 S    
C33   C34   1.420398 A    
C17   C30   1.403728 A    
C10   C11   1.406966 A    
C52   H22   1.082828 S    
C28   C32   1.397963 A    
C35   C40   1.415285 A    
C55   N4    1.375140 A    
C60   H31   1.110535 S    
