data_mof_unit_16955.cif
_audit_creation_date              2012-12-10T20:43:26-0500
_audit_creation_method            fapswitch 2.2
_symmetry_space_group_name_H-M    P1
_symmetry_Int_Tables_number       1
_space_group_crystal_system       triclinic
_cell_length_a                    18.545093
_cell_length_b                    18.631268
_cell_length_c                    18.867026
_cell_angle_alpha                 109.38219
_cell_angle_beta                  109.147845
_cell_angle_gamma                 108.694297
_cell_volume                      5090.4403418

loop_
_atom_site_label
_atom_site_type_symbol
_atom_type_description
_atom_site_fract_x
_atom_site_fract_y
_atom_site_fract_z
_atom_type_partial_charge
C1    C     C_R   0.381121 0.502622 0.381083 0.939425
C2    C     C_R   0.763602 0.768862 0.811141 0.159879
C3    C     C_R   0.946628 0.725877 0.955332 -0.234744
C4    C     C_R   0.940169 0.715410 0.023141 -0.119050
C5    C     C_R   0.008129 0.773045 0.107367 0.168162
C6    C     C_R   0.281898 0.553443 0.951408 0.029363
C7    C     C_R   0.198956 0.482864 0.886426 0.197101
C8    C     C_R   0.174197 0.399803 0.881204 -0.087686
C9    C     C_R   0.239720 0.385014 0.929622 -0.024993
C10   C     C_R   0.324865 0.455974 0.991335 0.042535
C11   C     C_R   0.343116 0.539027 0.002618 -0.406838
C12   C     C_R   0.079195 0.259640 0.746956 -0.259639
C13   C     C_R   0.820105 0.820207 0.576448 0.048675
C14   C     C_R   0.999015 0.189143 0.681743 -0.057361
C15   C     C_R   0.920829 0.185820 0.677083 0.021972
C16   C     C_R   0.924922 0.247736 0.746240 -0.245146
C17   C     C_R   0.005772 0.316318 0.815377 -0.074138
C18   C     C_R   0.084712 0.324886 0.814606 -0.013514
C19   C     C_R   0.807913 0.129022 0.525373 0.166860
C20   C     C_R   0.729877 0.062859 0.450645 -0.168757
C21   C     C_R   0.680294 0.987562 0.448874 -0.150259
C22   C     C_R   0.708640 0.977297 0.521256 -0.058373
C23   C     C_R   0.785141 0.043427 0.596917 -0.156717
C24   C     C_R   0.811858 0.812815 0.497434 -0.085673
C25   C     C_R   0.835290 0.119911 0.599760 0.100179
C26   C     C_R   0.735882 0.747022 0.418517 -0.125047
C27   C     C_R   0.671614 0.682623 0.418655 -0.069167
C28   C     C_R   0.683244 0.687329 0.498085 -0.093314
C29   C     C_R   0.754229 0.758706 0.577086 0.023986
C30   C     C_R   0.664474 0.784318 0.309412 -0.075192
C31   C     C_R   0.646661 0.787415 0.232943 -0.136933
C32   C     C_R   0.681685 0.755298 0.182780 -0.231007
C33   C     C_R   0.619635 0.620048 0.499616 0.955537
C34   C     C_R   0.734478 0.719354 0.208652 0.074874
C35   C     C_R   0.752805 0.717284 0.286255 -0.145072
C36   C     C_R   0.718242 0.749967 0.336905 0.062516
C37   C     C_R   0.429759 0.780156 0.539587 -0.259872
C38   C     C_R   0.379464 0.694376 0.473256 -0.048010
C39   C     C_R   0.381849 0.670058 0.395506 0.039498
C40   C     C_R   0.434327 0.734735 0.383876 -0.002344
C41   C     C_R   0.482310 0.821603 0.450273 -0.084045
C42   C     C_R   0.480824 0.844601 0.528396 0.067572
C43   C     C_R   0.251002 0.576339 0.254160 -0.234642
C44   C     C_R   0.618540 0.497617 0.619138 0.861672
C45   C     C_R   0.183356 0.496045 0.185589 -0.053287
C46   C     C_R   0.175687 0.418120 0.186049 0.070696
C47   C     C_R   0.241471 0.423320 0.252885 -0.197155
C48   C     C_R   0.312491 0.503631 0.318371 -0.062094
C49   C     C_R   0.315681 0.581706 0.322042 0.004261
C50   C     C_R   0.021412 0.304427 0.112485 -0.127199
C51   C     C_R   0.950617 0.223947 0.047795 -0.256800
C52   C     C_R   0.959520 0.165371 0.986439 0.078966
C53   C     C_R   0.043250 0.187719 0.993184 0.041607
C54   C     C_R   0.115440 0.269733 0.059152 -0.044274
C55   C     C_R   0.378092 0.380446 0.498813 0.869826
C56   C     C_R   0.102984 0.330282 0.116480 0.043019
C57   C     C_R   0.277033 0.558414 0.619267 0.115692
C58   C     C_R   0.279309 0.481329 0.608608 -0.079043
C59   C     C_R   0.241448 0.411328 0.526091 0.145144
C60   C     C_R   0.200301 0.418342 0.453680 -0.231581
C61   C     C_R   0.196270 0.494716 0.463348 0.049789
C62   C     C_R   0.234891 0.564722 0.546405 -0.140043
C63   C     C_R   0.185174 0.267808 0.519987 0.045963
C64   C     C_R   0.187478 0.188990 0.504241 -0.097832
C65   C     C_R   0.255011 0.176720 0.492648 0.046166
C66   C     C_R   0.731581 0.817790 0.780725 0.079496
C67   C     C_R   0.315620 0.240434 0.489800 -0.193460
C68   C     C_R   0.311057 0.315907 0.499812 -0.107474
C69   C     C_R   0.246515 0.330861 0.515579 -0.009063
C70   C     C_R   0.294419 0.089055 0.556869 -0.168099
C71   C     C_R   0.305284 0.017449 0.552456 -0.182209
C72   C     C_R   0.289957 0.954746 0.475047 0.147845
C73   C     C_R   0.265038 0.965444 0.401740 0.043622
C74   C     C_R   0.252791 0.037539 0.405543 -0.028902
C75   C     C_R   0.264705 0.098289 0.483472 0.033319
C76   C     C_R   0.505699 0.525678 0.808839 0.063402
C77   C     C_R   0.728159 0.816431 0.704305 0.082814
C78   C     C_R   0.582737 0.540403 0.804005 -0.141266
C79   C     C_R   0.590223 0.471220 0.753772 0.065110
C80   C     C_R   0.520042 0.385942 0.708165 0.132643
C81   C     C_R   0.443582 0.371526 0.714118 -0.152875
C82   C     C_R   0.436523 0.440756 0.763880 -0.251148
C83   C     C_R   0.738829 0.490204 0.815051 -0.231135
C84   C     C_R   0.814510 0.497901 0.810791 -0.140279
C85   C     C_R   0.825172 0.502577 0.741589 0.024992
C86   C     C_R   0.758627 0.499130 0.676460 0.047756
C87   C     C_R   0.683907 0.494471 0.682973 -0.127885
C88   C     C_R   0.760792 0.768449 0.660874 0.051400
C89   C     C_R   0.672917 0.488057 0.751350 0.008678
C90   C     C_R   0.975988 0.581488 0.767224 -0.077829
C91   C     C_R   0.039523 0.586847 0.741042 -0.021680
C92   C     C_R   0.024695 0.511381 0.673341 -0.057632
C93   C     C_R   0.951130 0.431746 0.639926 -0.167315
C94   C     C_R   0.889526 0.427058 0.668070 0.090783
C95   C     C_R   0.900522 0.502769 0.729889 0.107542
C96   C     C_R   0.000301 0.879014 0.380893 0.855093
C97   C     C_R   0.879687 0.878746 0.498600 0.924291
C98   C     C_R   0.999151 0.120297 0.618863 0.862216
C99   C     C_R   0.795142 0.723181 0.693899 -0.264935
C100  C     C_R   0.120266 0.119861 0.500021 0.860264
C101  C     C_R   0.003988 0.380316 0.882774 0.867388
C102  C     C_R   0.119632 0.496839 0.117699 0.861475
C103  C     C_R   0.999569 0.620021 0.119546 0.876054
C104  C     C_R   0.880139 0.498690 0.878324 0.878265
C105  C     C_R   0.090553 0.775615 0.553046 0.054518
C106  C     C_R   0.089478 0.781581 0.480310 -0.097161
C107  C     C_R   0.011970 0.734204 0.401687 0.082949
C108  C     C_R   0.936838 0.674884 0.393971 -0.243955
C109  C     C_R   0.936876 0.668136 0.465432 -0.149814
C110  C     C_R   0.793068 0.720366 0.765738 -0.192831
C111  C     C_R   0.013043 0.719056 0.545846 0.083126
C112  C     C_R   0.008393 0.679393 0.259875 0.089671
C113  C     C_R   0.001451 0.687082 0.186678 -0.091588
C114  C     C_R   0.003336 0.761039 0.180299 -0.044397
C115  C     C_R   0.004901 0.825627 0.245933 -0.091410
C116  C     C_R   0.005952 0.815436 0.317102 -0.163590
C117  C     C_R   0.010099 0.743916 0.325985 0.019574
C118  C     C_R   0.082268 0.841354 0.122515 -0.163385
C119  C     C_R   0.087739 0.854109 0.054738 0.165403
C120  C     C_R   0.018590 0.796680 0.970478 0.183758
H1    H     H_    0.666786 0.757600 0.123301 0.160535
H2    H     H_    0.792994 0.689941 0.307162 0.144542
H3    H     H_    0.426485 0.796671 0.598770 0.119771
H4    H     H_    0.336321 0.647075 0.481738 0.162919
H5    H     H_    0.519935 0.871652 0.440652 0.181843
H6    H     H_    0.252478 0.635548 0.255563 0.152690
H7    H     H_    0.237887 0.364091 0.253122 0.146855
H8    H     H_    0.012094 0.347779 0.159124 0.153501
H9    H     H_    0.887989 0.207565 0.045449 0.132312
H10   H     H_    0.232272 0.624024 0.554517 0.156373
H11   H     H_    0.311205 0.476191 0.664661 0.108823
H12   H     H_    0.171471 0.364274 0.389952 0.126103
H13   H     H_    0.367559 0.231421 0.480757 0.148451
H14   H     H_    0.308584 0.137511 0.618049 0.155215
H15   H     H_    0.326096 0.011148 0.609795 0.130087
H16   H     H_    0.376884 0.427886 0.767404 0.130086
H17   H     H_    0.636961 0.605510 0.839110 0.178565
H18   H     H_    0.821690 0.688082 0.662265 0.187669
H19   H     H_    0.389251 0.306562 0.680279 0.138480
H20   H     H_    0.730801 0.485215 0.867960 0.170192
H21   H     H_    0.984017 0.638976 0.815690 0.169732
H22   H     H_    0.939785 0.373508 0.589375 0.195162
H23   H     H_    0.813316 0.678878 0.784597 0.132586
H24   H     H_    0.148302 0.825179 0.485371 0.146682
H25   H     H_    0.878607 0.632624 0.332074 0.180428
H26   H     H_    0.877164 0.622741 0.457615 0.182834
H27   H     H_    0.135225 0.884752 0.187176 0.130840
H28   H     H_    0.895702 0.677792 0.891219 0.122529
H29   H     H_    0.883043 0.661344 0.009843 0.119085
H30   H     H_    0.407074 0.593653 0.051406 0.148324
H31   H     H_    0.138078 0.263799 0.744708 0.158051
H32   H     H_    0.864865 0.244311 0.744682 0.166898
H33   H     H_    0.708599 0.069208 0.393369 0.130462
H34   H     H_    0.620519 0.936622 0.390764 0.165621
H35   H     H_    0.671481 0.917496 0.518019 0.200132
H36   H     H_    0.806549 0.034047 0.652305 0.149115
H37   H     H_    0.636634 0.808578 0.347591 0.162596
H38   H     H_    0.605321 0.814356 0.212338 0.162190
O1    O     O_R   0.408360 0.551710 0.460090 -0.649060
O2    O     O_R   0.948280 0.908380 0.356650 -0.619966
O3    O     O_R   0.960110 0.908350 0.551690 -0.602384
O4    O     O_R   0.856660 0.908370 0.448270 -0.615131
O5    O     O_R   0.051720 0.091580 0.643310 -0.607219
O6    O     O_R   0.948270 0.091600 0.539890 -0.630391
O7    O     O_R   0.143340 0.091590 0.551680 -0.631582
O8    O     O_R   0.039890 0.091610 0.448270 -0.611552
O9    O     O_R   0.051730 0.460050 0.908360 -0.599593
O10   O     O_R   0.948290 0.356630 0.908390 -0.620923
O11   O     O_R   0.143340 0.551690 0.091580 -0.612197
O12   O     O_R   0.408400 0.448280 0.356670 -0.569581
O13   O     O_R   0.039900 0.448270 0.091610 -0.629506
O14   O     O_R   0.051710 0.643320 0.091560 -0.629679
O15   O     O_R   0.948270 0.539900 0.091590 -0.583136
O16   O     O_R   0.960100 0.551680 0.908340 -0.621732
O17   O     O_R   0.856660 0.448270 0.908370 -0.612985
O18   O     O_R   0.591600 0.643340 0.551710 -0.596511
O19   O     O_R   0.591630 0.539900 0.448290 -0.613658
O20   O     O_R   0.591600 0.551720 0.643330 -0.610262
O21   O     O_R   0.591640 0.448290 0.539910 -0.647293
O22   O     O_R   0.408370 0.460100 0.551710 -0.627054
O23   O     O_R   0.408400 0.356660 0.448290 -0.622538
O24   O     O_R   0.051730 0.908360 0.460060 -0.621914
Zn1   Zn    Zn3+2 0.499980 0.569060 0.569060 0.978075
Zn2   Zn    Zn3+2 0.500020 0.430940 0.430940 0.999622
Zn3   Zn    Zn3+2 0.069070 0.999960 0.569030 0.970999
Zn4   Zn    Zn3+2 0.930930 0.999990 0.430930 0.983445
Zn5   Zn    Zn3+2 0.069070 0.569030 0.999960 1.036664
Zn6   Zn    Zn3+2 0.930930 0.430930 0.000000 0.989568
N1    N     N_3   0.764223 0.767722 0.887073 -0.444217
H39   H     H_    0.813108 0.828386 0.939654 0.210750
H40   H     H_    0.781651 0.722105 0.896077 0.179239
C121  C     C_2   0.768773 0.683349 0.153449 0.386252
H41   H     H_    0.758876 0.690872 0.096902 0.081318
O25   O     O_2   0.807482 0.643972 0.169682 -0.588873
C122  C     C_2   0.530491 0.935845 0.598168 0.366109
H42   H     H_    0.529169 0.951807 0.658380 0.055431
O26   O     O_2   0.573099 0.994251 0.589372 -0.572581
C123  C     C_2   0.437601 0.712715 0.302132 0.372347
H43   H     H_    0.410652 0.645536 0.254927 0.132637
O27   O     O_2   0.469807 0.769371 0.286047 -0.631341
N2    N     N_3   0.697749 0.864959 0.824462 -0.494489
H44   H     H_    0.747195 0.909801 0.887711 0.205597
H45   H     H_    0.647186 0.821140 0.826170 0.215890
C124  C     C_2   0.879476 0.082201 0.917790 0.348223
H46   H     H_    0.818133 0.069412 0.917882 0.065979
O28   O     O_2   0.879745 0.027421 0.860382 -0.631665
N3    N     N_3   0.056530 0.128933 0.933613 -0.484131
H47   H     H_    0.018936 0.116844 0.871668 0.232848
H48   H     H_    0.037931 0.071017 0.936173 0.237871
C125  C     C_2   0.203149 0.289129 0.067806 0.384280
H49   H     H_    0.215948 0.236621 0.040144 0.125984
O29   O     O_2   0.261681 0.363500 0.103905 -0.535104
N4    N     N_3   0.316653 0.629059 0.704504 -0.476402
H50   H     H_    0.307582 0.680922 0.702003 0.174527
H51   H     H_    0.383764 0.651185 0.732522 0.191229
C126  C     C_2   0.151531 0.500330 0.386183 0.367737
H52   H     H_    0.120045 0.444807 0.322725 0.061546
O30   O     O_2   0.149402 0.566873 0.392397 -0.610137
C127  C     C_2   0.686784 0.862004 0.669615 0.382127
H53   H     H_    0.685261 0.916808 0.712163 0.099745
O31   O     O_2   0.650643 0.836634 0.592693 -0.607158
N5    N     N_3   0.123223 0.286446 0.542273 -0.393855
H54   H     H_    0.158586 0.340324 0.603897 0.194046
H55   H     H_    0.083273 0.237609 0.548379 0.188186
N6    N     N_3   0.299519 0.879933 0.469889 -0.471698
H56   H     H_    0.315483 0.880186 0.528560 0.168382
H57   H     H_    0.352359 0.885016 0.459346 0.197409
N7    N     N_3   0.251045 0.902446 0.322722 -0.506380
H58   H     H_    0.203716 0.841508 0.305466 0.207441
H59   H     H_    0.309121 0.900476 0.332927 0.204694
C128  C     C_2   0.231287 0.049521 0.328641 0.352734
H60   H     H_    0.253429 0.025079 0.284177 0.079865
O32   O     O_2   0.188362 0.085646 0.313499 -0.560039
C129  C     C_2   0.496515 0.598007 0.860785 0.341287
H61   H     H_    0.436397 0.585073 0.863627 0.061247
O33   O     O_2   0.555635 0.672746 0.900886 -0.584935
N8    N     N_3   0.527751 0.314542 0.657811 -0.438972
H62   H     H_    0.528277 0.320291 0.604706 0.179553
H63   H     H_    0.472968 0.255610 0.633534 0.181528
N9    N     N_3   0.767635 0.498539 0.603328 -0.416024
H64   H     H_    0.723392 0.437005 0.549862 0.213050
H65   H     H_    0.753788 0.544340 0.590704 0.191512
C130  C     C_2   0.120664 0.671033 0.785945 0.451414
H66   H     H_    0.175533 0.675301 0.775469 0.057097
O34   O     O_2   0.128197 0.737342 0.837315 -0.555175
C131  C     C_2   0.082950 0.514073 0.634682 0.373499
H67   H     H_    0.129733 0.575054 0.646250 0.059070
O35   O     O_2   0.078018 0.447257 0.587330 -0.567841
N10   N     N_3   0.812474 0.346450 0.630106 -0.453819
H68   H     H_    0.779202 0.323550 0.563989 0.185145
H69   H     H_    0.831282 0.302068 0.640264 0.199550
C132  C     C_2   0.011576 0.712297 0.621558 0.340295
H70   H     H_    0.069743 0.751948 0.683973 0.112016
O36   O     O_2   0.945182 0.662410 0.615284 -0.599530
N11   N     N_3   0.169778 0.826983 0.634042 -0.488738
H71   H     H_    0.162770 0.875478 0.674214 0.181582
H72   H     H_    0.222170 0.858756 0.626446 0.177347
N12   N     N_3   0.017387 0.607177 0.266291 -0.412243
H73   H     H_    0.078289 0.616113 0.272750 0.198979
H74   H     H_    0.016797 0.603904 0.320152 0.233523
C133  C     C_2   0.006725 0.904748 0.241404 0.465128
H75   H     H_    0.045607 0.967552 0.299314 0.104366
O37   O     O_2   0.962585 0.900004 0.173996 -0.557846
N13   N     N_3   0.162956 0.924867 0.070428 -0.435499
H76   H     H_    0.207512 0.962635 0.136105 0.176125
H77   H     H_    0.193966 0.898182 0.041114 0.225018
N14   N     N_3   0.022737 0.810988 0.901323 -0.398440
H78   H     H_    0.020077 0.868436 0.910713 0.199657
H79   H     H_    0.968079 0.761825 0.842595 0.182998
N15   N     N_3   0.894008 0.892687 0.655853 -0.436626
H80   H     H_    0.925419 0.869048 0.691654 0.207247
H81   H     H_    0.872079 0.928118 0.690697 0.206293
C134  C     C_2   0.308331 0.643808 0.967164 0.399100
H82   H     H_    0.376333 0.693167 0.008256 0.072834
O38   O     O_2   0.255090 0.665158 0.937084 -0.560394
N16   N     N_3   0.143881 0.495793 0.823179 -0.382741
H83   H     H_    0.085659 0.439159 0.776442 0.200750
H84   H     H_    0.176559 0.511744 0.790321 0.176219
C135  C     C_2   0.218996 0.294394 0.909532 0.485894
H85   H     H_    0.156727 0.250084 0.898483 0.050943
O39   O     O_2   0.267639 0.266389 0.897890 -0.536068
C136  C     C_2   0.398031 0.449478 0.047491 0.543371
H86   H     H_    0.463176 0.504846 0.085107 0.016666
O40   O     O_2   0.387713 0.384875 0.054886 -0.488663
N17   N     N_3   0.861944 0.202557 0.523805 -0.472709
H87   H     H_    0.823019 0.227341 0.498893 0.156722
H88   H     H_    0.882959 0.180441 0.480007 0.212676
C137  C     C_2   0.591277 0.613749 0.335509 0.416866
H89   H     H_    0.595289 0.589086 0.276908 0.076229
O41   O     O_2   0.519699 0.587055 0.330849 -0.585914

loop_
_geom_bond_atom_site_label_1
_geom_bond_atom_site_label_2
_ccdc_geom_bond_type
C8    C9    A    
O18   Zn1   S    
N11   H72   S    
O15   Zn6   S    
O1    Zn1   S    
C93   C94   A    
O10   Zn6   S    
C5    C114  S    
C30   H37   S    
C102  O13   A    
C41   C42   A    
C62   H10   S    
C35   C36   A    
C12   H31   S    
C2    N1    S    
O2    Zn4   S    
N3    H48   S    
C60   H12   S    
C92   C93   A    
N7    H59   S    
C98   O5    A    
C51   H9    S    
C7    C8    A    
C53   C54   A    
C108  C109  A    
C4    H29   S    
C136  H86   S    
N17   H87   S    
C3    H28   S    
O13   Zn6   S    
C60   C61   A    
C119  N13   S    
C13   C29   A    
C118  H27   S    
C67   H13   S    
C76   C78   A    
C108  H25   S    
O6    Zn4   S    
C35   H2    S    
C109  C111  A    
C71   H15   S    
C112  C117  A    
N3    H47   S    
C133  H75   S    
C15   C25   S    
N4    H50   S    
C106  C107  A    
O14   Zn5   S    
C15   C16   A    
C19   N17   S    
C1    O12   A    
C103  O15   A    
C96   O24   A    
C116  C117  A    
C43   H6    S    
C100  O8    A    
C34   C35   A    
C55   O22   A    
C109  H26   S    
C37   C42   A    
C101  O9    A    
C6    C134  S    
C17   C101  S    
C118  C119  A    
N7    H58   S    
C29   C88   S    
O3    Zn3   S    
C115  C133  S    
C134  O38   D    
C27   C137  S    
C37   H3    S    
C66   N2    S    
C130  H66   S    
C2    C110  A    
C63   C69   A    
C77   C88   A    
C16   C17   A    
C65   C67   A    
C17   C18   A    
C86   N9    S    
C21   H34   S    
C99   H18   S    
C70   C71   A    
C61   C126  S    
C85   C95   S    
C44   C87   S    
C50   C56   A    
C9    C10   A    
C131  H67   S    
O20   Zn1   S    
C91   C92   A    
O22   Zn1   S    
C72   C73   A    
C112  N12   S    
C12   C18   A    
C61   C62   A    
C102  O11   A    
C135  O39   D    
C105  C111  A    
C59   C60   A    
C120  N14   S    
O8    Zn4   S    
C21   C22   A    
C124  H46   S    
N2    H45   S    
C63   N5    S    
C110  H23   S    
C129  O33   D    
C44   O21   A    
C22   C23   A    
C83   H20   S    
C14   C98   S    
C104  O17   A    
C54   C56   A    
C22   H35   S    
N4    H51   S    
C73   C74   A    
C55   O23   A    
C123  O27   D    
C83   C89   A    
C131  O35   D    
N10   H69   S    
C20   H33   S    
C33   O19   A    
C67   C68   A    
C88   C99   A    
C47   C48   A    
C41   H5    S    
C57   C62   A    
C23   H36   S    
C84   C85   A    
O11   Zn5   S    
C16   H32   S    
C7    N16   S    
C45   C102  S    
C44   O20   A    
C127  H53   S    
C133  O37   D    
C77   C127  S    
C92   C131  S    
C78   C79   A    
C43   C49   A    
C104  O16   A    
C81   C82   A    
C130  O34   D    
C111  C132  S    
C45   C46   A    
C99   C110  A    
O7    Zn3   S    
C3    C4    A    
C122  H42   S    
C13   C24   A    
C100  O7    A    
C52   C124  S    
O24   Zn3   S    
C32   C34   A    
C80   N8    S    
C101  O10   A    
N12   H74   S    
C122  O26   D    
C37   C38   A    
O16   Zn5   S    
C127  O31   D    
C11   H30   S    
O12   Zn2   S    
C83   C84   A    
C74   C128  S    
C1    O1    A    
C58   H11   S    
C135  H85   S    
O9    Zn5   S    
C20   C21   A    
N9    H65   S    
N6    H56   S    
N10   H68   S    
C94   C95   A    
C128  O32   D    
O17   Zn6   S    
C126  H52   S    
C106  H24   S    
C4    C5    A    
C43   C45   A    
C85   C86   A    
C123  H43   S    
C59   C69   S    
C26   C36   S    
C40   C41   A    
C96   O2    A    
C57   N4    S    
C28   C33   S    
C125  H49   S    
C125  O29   D    
C72   N6    S    
C87   C89   A    
C26   C27   A    
C103  O14   A    
C84   C104  S    
N15   H81   S    
C79   C80   A    
C58   C59   A    
C50   H8    S    
C129  H61   S    
C105  N11   S    
C107  C108  A    
C76   C82   A    
N11   H71   S    
C94   N10   S    
C6    C11   A    
C52   C53   A    
C86   C87   A    
O4    Zn4   S    
C113  C114  A    
O21   Zn2   S    
O23   Zn2   S    
N1    H39   S    
C81   H19   S    
C66   C77   A    
C46   C47   A    
C28   C29   A    
C103  C113  S    
N5    H55   S    
C14   C15   A    
C55   C68   S    
C136  O40   D    
C32   H1    S    
C68   C69   A    
C31   C32   A    
C9    C135  S    
C24   C26   A    
C126  O30   D    
C80   C81   A    
C2    C66   A    
C90   C95   A    
C73   N7    S    
C98   O6    A    
C119  C120  A    
C39   C49   S    
C1    C48   S    
C114  C115  A    
C6    C7    A    
C132  O36   D    
O19   Zn2   S    
C78   H17   S    
C105  C106  A    
C91   C130  S    
C97   O3    A    
C65   C75   S    
N2    H44   S    
C30   C36   A    
C5    C118  A    
O5    Zn3   S    
N14   H78   S    
C10   C11   A    
C137  H89   S    
C10   C136  S    
C19   C20   A    
N8    H63   S    
N12   H73   S    
N13   H76   S    
C64   C100  S    
C51   C52   A    
N17   H88   S    
C13   N15   S    
C121  H41   S    
C124  O28   D    
N16   H83   S    
N14   H79   S    
C30   C31   A    
C90   C91   A    
C38   C39   A    
C40   C123  S    
C47   H7    S    
C48   C49   A    
C90   H21   S    
C64   C65   A    
C34   C121  S    
N9    H64   S    
N6    H57   S    
C137  O41   D    
C53   N3    S    
C24   C97   S    
C23   C25   A    
C82   H16   S    
C42   C122  S    
C19   C25   A    
C8    C18   S    
C79   C89   S    
C31   H38   S    
C3    C120  A    
C33   O18   A    
C63   C64   A    
C39   C40   A    
C112  C113  A    
C12   C14   A    
C54   C125  S    
C71   C72   A    
C74   C75   A    
C70   C75   A    
N13   H77   S    
C97   O4    A    
C46   C56   S    
C128  H60   S    
C70   H14   S    
C50   C51   A    
N15   H80   S    
C96   C116  S    
C76   C129  S    
N1    H40   S    
C57   C58   A    
N8    H62   S    
N16   H84   S    
N5    H54   S    
C107  C117  S    
C38   H4    S    
C93   H22   S    
C115  C116  A    
C121  O25   D    
C132  H70   S    
C27   C28   A    
C134  H82   S    
