data_mof_unit_57963.cif
_audit_creation_date              2012-10-26T20:32:55-0400
_audit_creation_method            fapswitch 2.2
_symmetry_space_group_name_H-M    P1
_symmetry_Int_Tables_number       1
_space_group_crystal_system       triclinic
_cell_length_a                    27.812219
_cell_length_b                    10.834088
_cell_length_c                    9.544098
_cell_angle_alpha                 90.748603
_cell_angle_beta                  89.820977
_cell_angle_gamma                 90.220243
_cell_volume                      2875.5475791

loop_
_atom_site_label
_atom_site_type_symbol
_atom_type_description
_atom_site_fract_x
_atom_site_fract_y
_atom_site_fract_z
_atom_type_partial_charge
Br1   Br    Br    0.362023 0.734241 0.359355 -0.497134
C1    C     C_R   0.498465 0.262464 0.499130 0.538411
C2    C     C_R   0.974717 0.388561 0.442898 0.017798
C3    C     C_R   0.974950 0.596990 0.550729 0.017833
C4    C     C_R   0.407736 0.498449 0.500153 0.585092
C5    C     C_R   0.949578 0.492676 0.497158 0.034200
C6    C     C_R   0.947739 0.283888 0.399624 -0.141881
C7    C     C_R   0.897802 0.283653 0.404039 -0.112324
C8    C     C_R   0.872734 0.387679 0.451317 0.024988
C9    C     C_R   0.898468 0.492485 0.497869 -0.027301
C10   C     C_R   0.872985 0.597114 0.545130 0.025240
C11   C     C_R   0.822512 0.595552 0.543510 0.396298
C12   C     C_R   0.279297 0.396331 0.555960 -0.023682
C13   C     C_R   0.822254 0.388908 0.454355 0.397446
C14   C     C_R   0.721116 0.475543 0.374196 -0.065571
C15   C     C_R   0.671000 0.476034 0.374544 -0.140867
C16   C     C_R   0.498931 0.737933 0.500483 0.570927
C17   C     C_R   0.671032 0.511104 0.625887 -0.150427
C18   C     C_R   0.721153 0.509096 0.625681 -0.058623
C19   C     C_R   0.746485 0.492235 0.499718 0.237931
C20   C     C_R   0.025734 0.391929 0.434834 0.017553
C21   C     C_R   0.051098 0.493038 0.495940 0.034327
C22   C     C_R   0.025952 0.593970 0.557611 0.017648
C23   C     C_R   0.254217 0.493585 0.494903 0.167753
C24   C     C_R   0.052496 0.297891 0.366493 -0.140945
C25   C     C_R   0.102825 0.685734 0.627388 -0.108958
C26   C     C_R   0.948216 0.701514 0.594591 -0.142014
C27   C     C_R   0.898286 0.701366 0.591592 -0.112483
C28   C     C_R   0.592532 0.498770 0.499915 0.554024
C29   C     C_R   0.052903 0.688165 0.625453 -0.140740
C30   C     C_R   0.486989 0.066285 0.622271 0.017263
C31   C     C_R   0.492490 0.129765 0.497207 -0.000774
C32   C     C_R   0.490709 0.062937 0.370195 -0.161241
C33   C     C_R   0.491153 0.934179 0.371377 -0.134253
C34   C     C_R   0.102208 0.493202 0.495439 -0.026897
C35   C     C_R   0.493478 0.871298 0.499533 0.024014
C36   C     C_R   0.487512 0.939213 0.623753 0.038776
C37   C     C_3   0.515370 0.938534 0.757279 -0.280834
C38   C     C_3   0.514366 0.078254 0.755698 -0.261710
C39   C     C_R   0.539891 0.536818 0.074067 0.180326
C40   C     C_R   0.178218 0.399516 0.428299 0.403387
C41   C     C_R   0.462649 0.451254 0.073959 -0.003828
C42   C     C_R   0.462631 0.451368 0.925199 -0.003244
C43   C     C_R   0.539990 0.536065 0.926418 0.124626
C44   C     C_3   0.563618 0.659257 0.920901 -0.259572
C45   C     C_R   0.127728 0.396853 0.428951 0.027149
C46   C     C_3   0.562927 0.661387 0.080255 0.000047
C47   C     C_R   0.178367 0.587281 0.561495 0.404828
C48   C     C_R   0.279686 0.591498 0.435178 -0.030519
C49   C     C_R   0.329797 0.593832 0.437867 0.112564
C50   C     C_R   0.329559 0.396168 0.558495 0.078016
C51   C     C_3   0.358905 0.189320 0.520570 -0.271714
C52   C     C_3   0.632140 0.776096 0.170697 -0.299851
C53   C     C_R   0.102439 0.300642 0.363576 -0.109213
C54   C     C_R   0.127905 0.589689 0.561517 0.025960
C55   C     C_R   0.355135 0.496564 0.500265 0.026125
C56   C     C_R   0.645479 0.495665 0.500013 0.009002
Cu1   Cu    Cu3+1 0.500000 0.499980 0.640670 0.947157
Cu2   Cu    Cu3+1 0.500000 0.500020 0.359330 0.981512
H1    H     H_    0.260354 0.666468 0.387220 0.176677
H2    H     H_    0.493965 0.900141 0.845181 0.142316
H3    H     H_    0.259586 0.320467 0.602030 0.165504
H4    H     H_    0.552221 0.900809 0.743037 0.130566
H5    H     H_    0.492279 0.119358 0.841537 0.141870
H6    H     H_    0.550491 0.120726 0.741321 0.148801
H7    H     H_    0.432084 0.413256 0.129025 0.133121
H8    H     H_    0.432041 0.413589 0.869607 0.121880
H9    H     H_    0.600027 0.655062 0.872907 0.123574
H10   H     H_    0.539464 0.728109 0.875520 0.128795
H11   H     H_    0.539178 0.733031 0.127845 0.148738
H12   H     H_    0.121722 0.760129 0.680854 0.170152
H13   H     H_    0.121188 0.226339 0.309824 0.169819
H14   H     H_    0.652279 0.459862 0.276906 0.136656
H15   H     H_    0.740280 0.462049 0.276286 0.134428
H16   H     H_    0.878882 0.201103 0.369704 0.167585
H17   H     H_    0.964147 0.198975 0.364729 0.110839
H18   H     H_    0.035911 0.221852 0.310941 0.112339
H19   H     H_    0.384487 0.312495 0.670853 0.266095
H20   H     H_    0.375434 0.110713 0.576054 0.167960
H21   H     H_    0.382622 0.215276 0.431631 0.144180
H22   H     H_    0.323310 0.159036 0.479913 0.191027
H23   H     H_    0.964809 0.786606 0.628875 0.110839
H24   H     H_    0.633886 0.595485 0.093504 0.241218
H25   H     H_    0.667059 0.763141 0.224559 0.162137
H26   H     H_    0.608381 0.831558 0.240805 0.155726
H27   H     H_    0.638490 0.826410 0.071585 0.142350
H28   H     H_    0.652383 0.524836 0.724509 0.118773
H29   H     H_    0.879558 0.783807 0.626364 0.167648
H30   H     H_    0.740365 0.520803 0.723499 0.134627
H31   H     H_    0.036487 0.764045 0.681441 0.112364
H32   H     H_    0.491790 0.109351 0.270403 0.136018
H33   H     H_    0.492259 0.884846 0.272073 0.138132
N1    N     N_R   0.202515 0.493483 0.494715 -0.395832
N2    N     N_R   0.798172 0.492157 0.499276 -0.396139
N3    N     N_R   0.500300 0.500930 0.147930 -0.245010
N4    N     N_R   0.500310 0.500890 0.852020 -0.237001
N5    N     N_2   0.353429 0.292681 0.616595 -0.529053
N6    N     N_2   0.610599 0.657046 0.141271 -0.507313
O1    O     O_R   0.500000 0.319640 0.618810 -0.508096
O2    O     O_R   0.569730 0.499960 0.618810 -0.509759
O3    O     O_R   0.569740 0.500000 0.381220 -0.479482
O4    O     O_2   0.202829 0.309407 0.360857 -0.497183
O5    O     O_2   0.797436 0.287334 0.413821 -0.499876
O6    O     O_2   0.203110 0.677443 0.628840 -0.485065
O7    O     O_2   0.797946 0.697003 0.584669 -0.502057
O8    O     O_R   0.500010 0.319680 0.381230 -0.515891
O9    O     O_R   0.430260 0.500000 0.618780 -0.510463
O10   O     O_R   0.430270 0.500040 0.381190 -0.478554
O11   O     O_R   0.499990 0.680320 0.618770 -0.496391
O12   O     O_R   0.500000 0.680360 0.381190 -0.491203

loop_
_geom_bond_atom_site_label_1
_geom_bond_atom_site_label_2
_ccdc_geom_bond_type
C50   N5    S    
C39   C46   S    
C47   C54   A    
Cu1   O11   S    
C4    C55   S    
C18   C19   A    
C29   H31   S    
C2    C5    A    
C16   O12   A    
C6    C7    A    
C21   C34   A    
C46   N6    S    
C52   H25   S    
C24   H18   S    
C35   C36   A    
Cu1   O9    S    
C2    C6    A    
C32   H32   S    
C37   C38   S    
C14   C15   A    
C47   O6    S    
C51   N5    S    
Cu2   O12   S    
C40   O4    S    
C1    C31   S    
C50   C55   A    
Cu1   N4    S    
C19   N2    S    
C12   C50   A    
C40   N1    A    
C12   H3    S    
C7    C8    A    
H24   N6    S    
C27   H29   S    
C40   C45   A    
C52   H27   S    
C16   C35   S    
C51   H20   S    
Br1   C49   S    
C37   H2    S    
C20   C21   A    
C25   C54   A    
C25   H12   S    
C38   H6    S    
C11   N2    A    
Cu2   N3    S    
C44   H9    S    
C8    C9    A    
C32   C33   A    
C44   C46   S    
C14   C19   A    
Cu2   O8    S    
C38   H5    S    
C47   N1    A    
C34   C54   A    
C41   N3    A    
Cu2   O3    S    
C22   C29   A    
Cu1   O2    S    
C24   C53   A    
C3    C5    A    
C3    C22   A    
C17   C18   A    
Cu1   Cu2   S    
C44   H10   S    
C1    O8    A    
C7    H16   S    
C49   C55   A    
C30   C36   A    
C12   C23   A    
C8    C13   A    
C46   H11   S    
C36   C37   S    
C18   H30   S    
C17   C56   A    
C30   C31   A    
C45   C53   A    
H19   N5    S    
C42   N4    A    
C28   O3    A    
C48   H1    S    
C28   C56   S    
C1    O1    A    
C25   C29   A    
C2    C20   A    
C41   C42   A    
C39   N3    A    
C3    C26   A    
C43   C44   S    
C37   H4    S    
C4    O9    A    
C23   C48   A    
C20   C24   A    
C43   N4    A    
C28   O2    A    
C26   H23   S    
Cu1   O1    S    
C17   H28   S    
C15   H14   S    
C16   O11   A    
C5    C9    A    
C10   C11   A    
C6    H17   S    
C52   N6    S    
Cu2   O10   S    
C31   C32   A    
C23   N1    S    
C13   O5    S    
C11   O7    S    
C10   C27   A    
C30   C38   S    
C33   C35   A    
C15   C56   A    
C51   H22   S    
C33   H33   S    
C9    C10   A    
C39   C43   A    
C14   H15   S    
C53   H13   S    
C42   H8    S    
C48   C49   A    
C26   C27   A    
C41   H7    S    
C21   C22   A    
C52   H26   S    
C51   H21   S    
C34   C45   A    
C13   N2    A    
C4    O10   A    
