data_mof_unit_31383.cif
_audit_creation_date              2012-10-26T19:58:20-0400
_audit_creation_method            fapswitch 2.2
_symmetry_space_group_name_H-M    P1
_symmetry_Int_Tables_number       1
_space_group_crystal_system       triclinic
_cell_length_a                    7.481568
_cell_length_b                    8.705188
_cell_length_c                    13.374777
_cell_angle_alpha                 94.511478
_cell_angle_beta                  78.038783
_cell_angle_gamma                 102.578586
_cell_volume                      831.199499406

loop_
_atom_site_label
_atom_site_type_symbol
_atom_type_description
_atom_site_fract_x
_atom_site_fract_y
_atom_site_fract_z
_atom_type_partial_charge
C1    C     C_R   0.544513 0.799745 0.502860 0.526995
C2    C     C_R   0.332574 0.478646 0.806134 -0.048154
C3    C     C_2   0.567125 0.967245 0.506094 -0.090855
C4    C     C_R   0.398819 0.492192 0.694337 0.516531
C5    C     C_2   0.433244 0.033634 0.487950 0.364554
C6    C     C_R   0.456233 0.200573 0.495196 0.558475
C7    C     C_R   0.600470 0.511765 0.306231 0.603659
C8    C     C_R   0.842840 0.716304 0.063878 0.408978
C9    C     C_R   0.658993 0.543031 0.197063 -0.013941
C10   C     C_R   0.157929 0.382325 0.844066 0.386692
C11   C     C_R   0.104357 0.352033 0.947774 0.412144
C12   C     C_R   0.408845 0.496763 0.976786 0.017198
C13   C     C_R   0.228665 0.406234 0.013378 -0.044905
C14   C     C_3   0.970526 0.723223 0.654119 0.002587
C15   C     C_R   0.448872 0.548779 0.875361 -0.033594
C16   C     C_R   0.547304 0.544589 0.038325 0.018666
C17   C     C_R   0.707181 0.663539 0.003299 -0.030788
C18   C     C_R   0.727209 0.731021 0.909292 -0.061707
C19   C     C_R   0.599254 0.674636 0.846654 -0.098668
C20   C     C_R   0.534386 0.477481 0.132762 0.335585
C21   C     C_R   0.816763 0.658823 0.161244 0.366353
Cu1   Cu    Cu3+1 0.321300 0.483160 0.488710 1.295055
Cu2   Cu    Cu3+1 0.678700 0.516840 0.511290 1.186228
F1    F     F_    0.939941 0.722723 0.222348 -0.521615
F2    F     F_    0.273909 0.948852 0.460529 -0.532971
F3    F     F_    0.963605 0.322413 0.434848 -0.491030
F4    F     F_    0.996098 0.829464 0.030894 -0.549310
F5    F     F_    0.406889 0.344559 0.162874 -0.570800
F6    F     F_    0.039638 0.315523 0.780864 -0.583881
F7    F     F_    0.932519 0.265169 0.984717 -0.548802
H1    H     H_    0.842842 0.827077 0.883363 0.190827
H2    H     H_    0.176420 0.382501 0.093139 0.246679
H3    H     H_    0.613761 0.733975 0.776799 0.109272
H4    H     H_    0.695551 0.037259 0.525281 0.148073
H5    H     H_    0.916300 0.618195 0.702548 0.127449
H6    H     H_    0.863730 0.794132 0.656582 0.134789
H7    H     H_    0.085423 0.798736 0.687087 0.123635
N1    N     N_2   0.947230 0.542220 0.528320 0.093411
N2    N     N_2   0.052770 0.457780 0.471680 0.218229
O1    O     O_R   0.383920 0.714220 0.492660 -0.426118
O2    O     O_R   0.685730 0.742660 0.511730 -0.501983
O3    O     O_R   0.275440 0.478800 0.636790 -0.477716
O4    O     O_R   0.577250 0.507240 0.655860 -0.553687
O5    O     O_R   0.314270 0.257340 0.488270 -0.419402
O6    O     O_R   0.616080 0.285780 0.507340 -0.507652
O7    O     O_R   0.422750 0.492760 0.344140 -0.451284
O8    O     O_R   0.724560 0.521200 0.363210 -0.427442
O9    O     O_3   0.041844 0.685224 0.552087 -0.405761

loop_
_geom_bond_atom_site_label_1
_geom_bond_atom_site_label_2
_ccdc_geom_bond_type
C2    C4    S    
Cu2   O6    S    
C4    O4    A    
Cu2   N1    S    
C20   F5    S    
C13   H2    S    
N1    O9    S    
C8    C17   A    
Cu2   O2    S    
C12   C15   A    
C16   C20   A    
Cu1   O1    S    
C8    C21   A    
C6    O5    A    
C14   H7    S    
C15   C19   A    
C2    C15   A    
C11   C13   A    
C10   F6    S    
C9    C21   A    
Cu1   O3    S    
C4    O3    A    
C5    F2    S    
Cu1   N2    S    
C1    O2    A    
C6    O6    A    
C17   C18   A    
C14   H6    S    
N1    N2    D    
F3    N2    S    
Cu2   O8    S    
C10   C11   A    
C2    C10   A    
C7    O7    A    
C3    C5    D    
Cu2   O4    S    
C12   C13   A    
C7    C9    S    
C18   C19   A    
C19   H3    S    
C21   F1    S    
C14   H5    S    
C5    C6    S    
C8    F4    S    
Cu1   Cu2   S    
C14   O9    S    
C18   H1    S    
C9    C20   A    
C1    O1    A    
Cu1   O7    S    
C3    H4    S    
Cu1   O5    S    
C12   C16   A    
C11   F7    S    
C16   C17   A    
C1    C3    S    
C7    O8    A    
