data_mof_unit_28630.cif
_audit_creation_date              2013-03-05T15:57:36-0500
_audit_creation_method            fapswitch 2.2
_symmetry_space_group_name_H-M    P1
_symmetry_Int_Tables_number       1
_space_group_crystal_system       triclinic
_cell_length_a                    15.100159
_cell_length_b                    15.071719
_cell_length_c                    14.969024
_cell_angle_alpha                 108.668905
_cell_angle_beta                  109.738946
_cell_angle_gamma                 110.407789
_cell_volume                      2608.95411944

loop_
_atom_site_label
_atom_site_type_symbol
_atom_site_description
_atom_site_fract_x
_atom_site_fract_y
_atom_site_fract_z
_atom_type_partial_charge
C1    C     C_R   0.909351 0.913856 0.714246 -0.142185
H1    H     H_    0.825858 0.856690 0.686935 0.097883
N1    N     N_R   0.941940 0.944580 0.650780 -0.036881
C2    C     C_R   0.094169 0.298605 0.496594 -0.151214
H2    H     H_    0.178931 0.351631 0.523516 0.097621
N2    N     N_R   0.056800 0.208900 0.502740 -0.041638
C3    C     C_R   0.259288 0.221100 0.813899 -0.155621
H3    H     H_    0.275158 0.200454 0.878052 0.125704
N3    N     N_R   0.204460 0.150250 0.707090 -0.042876
C4    C     C_R   0.735358 0.049381 0.460665 0.451581
N4    N     N_R   0.794270 0.003240 0.446420 -0.079407
C5    C     C_R   0.257781 0.313787 0.722468 -0.132936
H4    H     H_    0.272573 0.378208 0.702266 0.086940
N5    N     N_R   0.204920 0.207570 0.650770 -0.042270
C6    C     C_R   0.750993 0.969688 0.563899 -0.191663
H5    H     H_    0.744542 0.940252 0.619441 0.140682
N6    N     N_R   0.793810 0.945920 0.502740 -0.058593
C7    C     C_R   0.912463 0.210230 0.405390 -0.063161
H6    H     H_    0.830376 0.182130 0.345867 0.176745
N7    N     N_R   0.943620 0.152590 0.446420 -0.048781
C8    C     C_R   0.091289 0.002483 0.801401 -0.127822
H7    H     H_    0.173881 0.021656 0.849120 0.109051
N8    N     N_R   0.055110 0.000900 0.707100 -0.039999
C9    C     C_R   0.002424 0.952835 0.811372 0.049916
C10   C     C_R   0.005590 0.301595 0.436354 0.018338
C11   C     C_R   0.290826 0.323803 0.825358 0.139691
C12   C     C_R   0.709534 0.030468 0.535919 -0.080683
C13   C     C_R   0.696540 0.701772 0.292471 -0.163356
H8    H     H_    0.666888 0.650219 0.324345 0.094357
N9    N     N_R   0.795080 0.792430 0.349230 -0.039717
C14   C     C_R   0.303218 0.092289 0.502691 -0.131573
H9    H     H_    0.331474 0.146588 0.472996 0.113587
N10   N     N_R   0.206190 0.054080 0.497260 -0.042162
C15   C     C_R   0.091435 0.779651 0.527949 -0.105489
H10   H     H_    0.176157 0.802043 0.558719 0.109480
N11   N     N_R   0.056380 0.847410 0.553580 -0.042485
C16   C     C_R   0.910335 0.935620 0.187809 -0.129136
H11   H     H_    0.825625 0.886530 0.123694 0.118207
N12   N     N_R   0.944890 0.999100 0.292900 -0.043570
C17   C     C_R   0.093103 0.023429 0.282219 -0.122480
H12   H     H_    0.177952 0.052545 0.307663 0.098735
N13   N     N_R   0.058060 0.055420 0.349220 -0.043841
C18   C     C_R   0.907628 0.684895 0.443796 -0.143108
H13   H     H_    0.823237 0.619512 0.399295 0.101118
N14   N     N_R   0.943200 0.791100 0.497260 -0.039525
C19   C     C_R   0.697447 0.793764 0.202254 -0.088078
H14   H     H_    0.669420 0.827383 0.152511 0.101923
N15   N     N_R   0.795540 0.849750 0.292910 -0.048451
C20   C     C_R   0.301388 0.004289 0.596940 -0.162994
H15   H     H_    0.328155 0.980280 0.657185 0.102225
N16   N     N_R   0.205730 0.996760 0.553580 -0.037507
Ni1   Ni    Ni4+2 0.869690 0.869690 0.500000 0.212149
Ni2   Ni    Ni4+2 0.130310 0.130310 0.500000 0.208467
Ni3   Ni    Ni4+2 0.129250 0.998840 0.629170 0.213422
Ni4   Ni    Ni4+2 0.870750 0.001160 0.370830 0.243155
C21   C     C_R   0.633164 0.701943 0.201454 0.126006
C22   C     C_R   0.363414 0.061580 0.564868 0.066919
C23   C     C_R   0.000399 0.676786 0.464257 0.042853
C24   C     C_R   0.002672 0.947497 0.179031 0.049855
H16   H     H_    0.495680 0.563578 0.455152 0.098723
C25   C     C_R   0.494301 0.677203 0.397467 -0.119148
H17   H     H_    0.474275 0.622916 0.316742 0.104106
C26   C     C_R   0.508009 0.780646 0.423515 -0.108740
H18   H     H_    0.498746 0.805857 0.362422 0.133736
C27   C     C_R   0.534405 0.851445 0.528546 0.117182
C28   C     C_R   0.544302 0.816345 0.605974 -0.190978
H19   H     H_    0.563574 0.869503 0.686971 0.110552
C29   C     C_R   0.530891 0.713062 0.579630 -0.124593
H20   H     H_    0.539655 0.687021 0.640003 0.099433
C30   C     C_R   0.506142 0.643599 0.475521 -0.096078
C31   C     C_R   0.470091 0.976893 0.572557 -0.246158
H21   H     H_    0.404106 0.908671 0.563801 0.135254
C32   C     C_R   0.466216 0.070612 0.582384 0.065691
C33   C     C_R   0.550659 0.158516 0.591553 0.009774
C34   C     C_R   0.634482 0.145366 0.582538 -0.173188
H22   H     H_    0.700962 0.210835 0.588833 0.149697
C35   C     C_R   0.630642 0.046106 0.560402 0.119906
C36   C     C_R   0.548783 0.961381 0.557480 0.016310
C37   C     C_R   0.571816 0.304016 0.538982 -0.149119
H23   H     H_    0.593384 0.266519 0.481475 0.155969
C38   C     C_R   0.561684 0.394014 0.544060 -0.118888
H24   H     H_    0.577505 0.426416 0.492627 0.109062
C39   C     C_R   0.528137 0.440208 0.613141 -0.088912
H25   H     H_    0.517691 0.508108 0.615131 0.093427
C40   C     C_R   0.506829 0.397891 0.678802 -0.090815
H26   H     H_    0.477448 0.431293 0.729553 0.106180
C41   C     C_R   0.521052 0.310846 0.677385 -0.147680
H27   H     H_    0.504729 0.279811 0.729559 0.114720
C42   C     C_R   0.550156 0.260489 0.604658 0.102560
H28   H     H_    0.653988 0.012595 0.956856 0.090510
C43   C     C_R   0.822341 0.123947 0.085507 -0.111127
H29   H     H_    0.851759 0.074396 0.050118 0.114270
C44   C     C_R   0.895926 0.222635 0.183909 -0.149179
H30   H     H_    0.982074 0.248484 0.223466 0.117357
C45   C     C_R   0.858364 0.287117 0.231201 0.100513
C46   C     C_R   0.746066 0.251639 0.177108 -0.133894
H31   H     H_    0.714859 0.299200 0.212186 0.106878
C47   C     C_R   0.672812 0.152970 0.078558 -0.084094
H32   H     H_    0.586366 0.125701 0.037874 0.099606
C48   C     C_R   0.710871 0.089098 0.032934 -0.093423
C49   C     C_R   0.933684 0.484712 0.351102 -0.244521
H33   H     H_    0.875910 0.483782 0.283264 0.126649
C50   C     C_R   0.006127 0.581197 0.451888 0.071481
C51   C     C_R   0.084443 0.586045 0.541026 0.014283
C52   C     C_R   0.089009 0.493956 0.526470 -0.229049
H34   H     H_    0.145856 0.497012 0.596852 0.130474
C53   C     C_R   0.012775 0.395832 0.428837 0.072659
C54   C     C_R   0.935827 0.389895 0.338117 0.030413
C55   C     C_R   0.271140 0.732827 0.700991 -0.197807
H35   H     H_    0.307149 0.703749 0.655631 0.118964
C56   C     C_R   0.339546 0.822996 0.806521 -0.115102
H36   H     H_    0.427610 0.862815 0.842292 0.102752
C57   C     C_R   0.294343 0.861728 0.865894 -0.090476
H37   H     H_    0.347569 0.931417 0.947607 0.105358
C58   C     C_R   0.180639 0.810154 0.820003 -0.122938
H38   H     H_    0.145889 0.839708 0.866504 0.121269
C59   C     C_R   0.111789 0.720306 0.714182 -0.113906
H39   H     H_    0.023821 0.681151 0.679379 0.114481
C60   C     C_R   0.156658 0.681587 0.653533 0.116927
C61   C     C_2   0.367857 0.518952 0.938514 -0.130421
C62   C     C_2   0.357306 0.423779 0.929196 -0.219014
H40   H     H_    0.319992 0.522105 0.868036 0.127990
H41   H     H_    0.406743 0.418551 0.996825 0.134402
C63   C     C_2   0.461125 0.622375 0.034963 -0.098937
C64   C     C_2   0.515953 0.626533 0.129049 -0.207502
H42   H     H_    0.495638 0.688925 0.020460 0.123947
H43   H     H_    0.478500 0.563361 0.146405 0.120199
H44   H     H_    0.457581 0.380677 0.153796 0.092270
C65   C     C_R   0.398262 0.214332 0.118456 -0.095620
H45   H     H_    0.478788 0.223618 0.148650 0.113671
C66   C     C_R   0.306539 0.114209 0.078132 -0.183578
H46   H     H_    0.317102 0.046926 0.078769 0.121024
C67   C     C_R   0.201663 0.101432 0.038518 0.104963
C68   C     C_R   0.190275 0.190862 0.041601 -0.123025
H47   H     H_    0.110443 0.183220 0.013695 0.114156
C69   C     C_R   0.282404 0.291180 0.082933 -0.128348
H48   H     H_    0.273361 0.359974 0.085540 0.120436
C70   C     C_R   0.386289 0.302895 0.121378 -0.130139
C71   C     C_R   0.107423 0.976751 0.087986 -0.218944
H49   H     H_    0.183263 0.028053 0.165215 0.129962
C72   C     C_R   0.009310 0.911279 0.079248 0.052305
C73   C     C_R   0.915316 0.836525 0.974984 0.024767
C74   C     C_R   0.916295 0.847356 0.885936 -0.243569
H50   H     H_    0.844176 0.791191 0.805505 0.126526
C75   C     C_R   0.008237 0.933051 0.901836 0.054320
C76   C     C_R   0.105777 0.998245 0.005033 0.004770
C77   C     C_R   0.829600 0.685733 0.009323 -0.134800
H51   H     H_    0.909762 0.698351 0.056115 0.113540
C78   C     C_R   0.738761 0.607583 0.001027 -0.093166
H52   H     H_    0.748760 0.559989 0.040444 0.107479
C79   C     C_R   0.635159 0.591407 0.942616 -0.090370
H53   H     H_    0.565112 0.530568 0.936209 0.120075
C80   C     C_R   0.621810 0.652625 0.891481 -0.136245
H54   H     H_    0.541249 0.639855 0.846286 0.100233
C81   C     C_R   0.712279 0.730132 0.898482 -0.175449
H55   H     H_    0.700955 0.778223 0.860014 0.103963
C82   C     C_R   0.817303 0.748258 0.958749 0.121144
Cl1   Cl    Cl    0.667971 0.085713 0.370708 -0.757735

loop_
_geom_bond_atom_site_label_1
_geom_bond_atom_site_label_2
_geom_bond_distance
_ccdc_geom_bond_type
C4    C12   1.388174 A    
C25   C30   1.398047 A    
N15   Ni4   1.857853 S    
C28   C29   1.397456 A    
C41   H27   1.083062 S    
C26   C27   1.405505 A    
C71   C76   1.374686 A    
C44   H30   1.083134 S    
C81   C82   1.406117 A    
C32   C33   1.409703 A    
N1    N8    1.381540 A    
C45   C46   1.407136 A    
C77   H51   1.083255 S    
N3    N5    1.386787 A    
C2    C10   1.362927 A    
C13   C21   1.376707 A    
C3    H3    1.079028 S    
C35   C36   1.409735 A    
C52   C53   1.393133 A    
C10   C53   1.429980 S    
C49   H33   1.084632 S    
C3    C11   1.383116 A    
C33   C42   1.488881 S    
N9    N15   1.386786 A    
C13   H8    1.082062 S    
C77   C78   1.396005 A    
C1    H1    1.080629 S    
C9    C75   1.458374 S    
C78   C79   1.394605 A    
N13   Ni2   1.845386 S    
C74   H50   1.082159 S    
C20   C22   1.363232 A    
C74   C75   1.407757 A    
C15   H10   1.078913 S    
C22   C32   1.432417 S    
C25   C26   1.398851 A    
H44   C70   1.082359 S    
C18   C23   1.387334 A    
C72   C73   1.408010 A    
N12   Ni4   1.870375 S    
C65   C70   1.397330 A    
C56   H36   1.082564 S    
C29   H20   1.082040 S    
C58   C59   1.398684 A    
C46   C47   1.399078 A    
C79   H53   1.080533 S    
C14   N10   1.336414 A    
C11   C62   1.444275 S    
C43   C48   1.397307 A    
C80   C81   1.397783 A    
C4    Cl1   1.756037 S    
C15   N11   1.316692 A    
C51   C60   1.486881 S    
C29   C30   1.397708 A    
C49   C54   1.392736 A    
C17   N13   1.321059 A    
C28   H19   1.083425 S    
C49   C50   1.399541 A    
C17   C24   1.383466 A    
C8    H7    1.078843 S    
C7    C10   1.374470 A    
N7    Ni4   1.858586 S    
N6    Ni1   1.885258 S    
H28   C48   1.082638 S    
C51   C52   1.364512 A    
C38   C39   1.396250 A    
C61   H40   1.085656 S    
C75   C76   1.415354 A    
N12   N13   1.381541 A    
C40   C41   1.396233 A    
N10   Ni2   1.885259 S    
C71   H49   1.077838 S    
C19   N15   1.336071 A    
C62   H41   1.081624 S    
C33   C34   1.390240 A    
C23   C50   1.429795 S    
C2    N2    1.318132 A    
C4    N4    1.336066 A    
C43   H29   1.082925 S    
C31   C32   1.396665 A    
C7    H6    1.075168 S    
C68   C69   1.398925 A    
N14   Ni1   1.885047 S    
C20   N16   1.313724 A    
C40   H26   1.079814 S    
C38   H24   1.082548 S    
C26   H18   1.083224 S    
C5    C11   1.386865 A    
C1    N1    1.340757 A    
C34   H22   1.084455 S    
C16   H11   1.077434 S    
C43   C44   1.398539 A    
C18   N14   1.334581 A    
C6    C12   1.369311 A    
C39   H25   1.081336 S    
H16   C30   1.082419 S    
C53   C54   1.409274 A    
C46   H31   1.083211 S    
N11   N14   1.381666 A    
C56   C57   1.397166 A    
C21   C64   1.453188 S    
C64   H43   1.084418 S    
C34   C35   1.400147 A    
C16   C24   1.399331 A    
C69   C70   1.398262 A    
C17   H12   1.072590 S    
C39   C40   1.395781 A    
C5    N5    1.334926 A    
C27   C28   1.405764 A    
C47   C48   1.397657 A    
C8    N8    1.319111 A    
C18   H13   1.081343 S    
C67   C68   1.405567 A    
C20   H15   1.082715 S    
C73   C82   1.481967 S    
C19   C21   1.379227 A    
C66   H46   1.082515 S    
C77   C82   1.406934 A    
C50   C51   1.412686 A    
N4    Ni4   1.870882 S    
C61   C62   1.341615 D    
C55   C60   1.406301 A    
N8    Ni3   1.870375 S    
C63   H42   1.084456 S    
C57   H37   1.081682 S    
C3    N3    1.333528 A    
N9    Ni1   1.844960 S    
C19   H14   1.080986 S    
N4    N6    1.386786 A    
C27   C36   1.485365 S    
C14   H9    1.080213 S    
C69   H48   1.082427 S    
C66   C67   1.405893 A    
N1    Ni1   1.845384 S    
C6    N6    1.317510 A    
C68   H47   1.083127 S    
C67   C76   1.485476 S    
N10   N16   1.386786 A    
N2    N7    1.381665 A    
C52   H34   1.086016 S    
C37   C38   1.398437 A    
N16   Ni3   1.870882 S    
C14   C22   1.380019 A    
C59   C60   1.405639 A    
C65   H45   1.082592 S    
C31   H21   1.085452 S    
C16   N12   1.340213 A    
C78   H52   1.082505 S    
C71   C72   1.397380 A    
C6    H5    1.076232 S    
C55   C56   1.397753 A    
C13   N9    1.337103 A    
C7    N7    1.335937 A    
C79   C80   1.398376 A    
C25   H17   1.081078 S    
C12   C35   1.429833 S    
C37   C42   1.408641 A    
N11   Ni3   1.858586 S    
C45   C54   1.487901 S    
C37   H23   1.082949 S    
C61   C63   1.467123 S    
C2    H2    1.082276 S    
N5    Ni2   1.844957 S    
C5    H4    1.080000 S    
C24   C72   1.468440 S    
C1    C9    1.389711 A    
C44   C45   1.408030 A    
C47   H32   1.082762 S    
C8    C9    1.374539 A    
C55   H35   1.083424 S    
C81   H55   1.083180 S    
C15   C23   1.372738 A    
C41   C42   1.407530 A    
C73   C74   1.398061 A    
N3    Ni3   1.857853 S    
N2    Ni2   1.885048 S    
C57   C58   1.398120 A    
C80   H54   1.082597 S    
C59   H39   1.083145 S    
C31   C36   1.363333 A    
C58   H38   1.081440 S    
C63   C64   1.338870 D    
C65   C66   1.397994 A    
