data_mof_unit_66850.cif
_audit_creation_date              2012-12-11T17:11:09-0500
_audit_creation_method            fapswitch 2.2
_symmetry_space_group_name_H-M    P1
_symmetry_Int_Tables_number       1
_space_group_crystal_system       triclinic
_cell_length_a                    8.880452
_cell_length_b                    16.516567
_cell_length_c                    16.160258
_cell_angle_alpha                 107.765721
_cell_angle_beta                  92.629372
_cell_angle_gamma                 82.030306
_cell_volume                      2235.44680929

loop_
_atom_site_label
_atom_site_type_symbol
_atom_type_description
_atom_site_fract_x
_atom_site_fract_y
_atom_site_fract_z
_atom_type_partial_charge
Ba1   Ba    Ba6+2 0.642070 0.542310 0.469620 1.808650
Ba2   Ba    Ba6+2 0.168110 0.457680 0.530320 1.838365
C1    C     C_3   0.715064 0.832204 0.249872 0.231948
C2    C     C_3   0.745034 0.770352 0.305385 0.157029
C3    C     C_3   0.974355 0.734615 0.709993 0.276210
C4    C     C_3   0.929315 0.835207 0.755617 0.065399
C5    C     C_3   0.552831 0.247990 0.739215 0.227758
C6    C     C_3   0.523991 0.155178 0.727499 0.843375
C7    C     C_3   0.962655 0.258972 0.711172 0.474517
C8    C     C_3   0.071620 0.289703 0.786928 0.311703
C9    C     C_2   0.690130 0.247283 0.494146 -0.261924
C10   C     C_R   0.114812 0.743572 0.513428 -0.229122
C11   C     C_2   0.542447 0.138104 0.403198 0.020725
C12   C     C_3   0.269739 0.758227 0.274812 0.316398
C13   C     C_2   0.553496 0.222261 0.439083 0.124458
C14   C     C_2   0.815446 0.189694 0.495503 -0.013607
C15   C     C_3   0.819836 0.095383 0.440696 0.049208
C16   C     C_3   0.660936 0.067978 0.417173 0.102027
C17   C     C_2   0.942911 0.027741 0.461109 -0.007756
C18   C     C_2   0.915658 0.952074 0.471303 -0.030300
C19   C     C_R   0.184066 0.900607 0.507280 0.060432
C20   C     C_R   0.037066 0.881995 0.483761 0.000988
C21   C     C_R   0.293401 0.843839 0.534093 -0.157531
C22   C     C_R   0.259096 0.765673 0.543196 0.068482
C23   C     C_3   0.319472 0.846411 0.316663 -0.402644
C24   C     C_R   0.005465 0.799809 0.483630 0.019816
C25   C     C_R   0.092906 0.540417 0.280659 -0.274216
C26   C     C_R   0.964316 0.499822 0.246209 0.082034
C27   C     C_R   0.915919 0.497114 0.161896 -0.043146
C28   C     C_R   0.004501 0.524183 0.107593 0.355201
C29   C     C_R   0.144561 0.552023 0.139083 -0.035590
C30   C     C_R   0.187755 0.562487 0.226081 -0.059848
C31   C     C_R   0.876304 0.522833 0.857909 -0.105881
C32   C     C_R   0.836510 0.514600 0.771935 0.056480
C33   C     C_R   0.786470 0.494972 0.910998 0.368419
C34   C     C_3   0.411295 0.322275 0.234575 0.189187
C35   C     C_R   0.712042 0.470659 0.734948 -0.112789
C36   C     C_R   0.615086 0.444937 0.786045 -0.085378
C37   C     C_R   0.650009 0.460021 0.876225 -0.085514
C38   C     C_3   0.442332 0.278423 0.134614 0.171781
C39   C     C_3   0.411173 0.733003 0.797497 0.717903
C40   C     C_3   0.405612 0.812927 0.888209 0.462606
C41   C     C_3   0.946259 0.269228 0.303141 0.227427
C42   C     C_3   0.070070 0.190690 0.267943 0.356808
H1    H     H_    0.676633 0.716589 0.280197 0.145345
H2    H     H_    0.384274 0.320580 0.097502 0.012129
H3    H     H_    0.511963 0.799264 0.922730 0.135687
H4    H     H_    0.986652 0.305103 0.368048 -0.075620
H5    H     H_    0.609631 0.875980 0.272695 0.032586
H6    H     H_    0.083119 0.151530 0.313395 -0.010043
H7    H     H_    0.179625 0.214335 0.267126 0.034891
H8    H     H_    0.866854 0.741859 0.298906 0.000044
H9    H     H_    0.097467 0.717246 0.704629 0.023220
H10   H     H_    0.926795 0.717204 0.643130 0.009516
H11   H     H_    0.825233 0.851117 0.721257 0.129825
H12   H     H_    0.219737 0.894161 0.343783 0.061225
H13   H     H_    0.613345 0.249288 0.680751 -0.051070
H14   H     H_    0.624979 0.270004 0.797339 0.022599
H15   H     H_    0.881007 0.224014 0.729993 0.116023
H16   H     H_    0.893864 0.315682 0.699068 -0.321564
H17   H     H_    0.088648 0.356886 0.794606 0.004105
H18   H     H_    0.182084 0.249073 0.772213 0.164277
H19   H     H_    0.198884 0.744921 0.323231 -0.063331
H20   H     H_    0.448471 0.118556 0.359649 0.081872
H21   H     H_    0.693826 0.314887 0.527255 0.023446
H22   H     H_    0.083800 0.683890 0.517667 0.026271
H23   H     H_    0.060157 0.038826 0.460237 0.103621
H24   H     H_    0.798153 0.942782 0.472891 0.124997
H25   H     H_    0.973978 0.554970 0.884288 0.148943
H26   H     H_    0.217745 0.568514 0.096527 0.124707
H27   H     H_    0.813007 0.470602 0.137404 0.180569
H28   H     H_    0.129161 0.545645 0.346732 0.051437
H29   H     H_    0.683621 0.461643 0.667200 0.068347
H30   H     H_    0.403599 0.843973 0.368746 0.119449
H31   H     H_    0.369825 0.869039 0.267714 0.167629
H32   H     H_    0.483260 0.374063 0.260742 0.060268
N1    N     N_2   0.960926 0.520435 0.020282 -0.167312
N2    N     N_2   0.830168 0.501021 0.999026 -0.125362
O1    O     O_2   0.554430 0.712240 0.583340 -0.433770
O2    O     O_3   0.921303 0.320023 0.246732 -0.514682
O3    O     O_3   0.399296 0.696751 0.248184 -0.566984
O4    O     O_2   0.255890 0.287710 0.416620 -0.497482
O5    O     O_3   0.472550 0.396030 0.437270 -0.522656
O6    O     O_3   0.997190 0.341000 0.573500 -0.488416
O7    O     O_3   0.438205 0.261060 0.279882 -0.623057
O8    O     O_3   0.856110 0.544300 0.605450 -0.469414
O9    O     O_3   0.397490 0.384750 0.623120 -0.427172
O10   O     O_2   0.294726 0.454922 0.783340 -0.392674
O11   O     O_3   0.413852 0.301558 0.750926 -0.599418
O12   O     O_3   0.337760 0.603960 0.562660 -0.475301
O13   O     O_3   0.954190 0.455690 0.394480 -0.535339
O14   O     O_2   0.106750 0.542200 0.705290 -0.395797
O15   O     O_3   0.913695 0.686995 0.757833 -0.499748
O16   O     O_2   0.128880 0.189125 0.482309 -0.450289
O17   O     O_3   0.045176 0.202125 0.638792 -0.508486
O18   O     O_3   0.813110 0.658990 0.426440 -0.488005
O19   O     O_2   0.735555 0.800040 0.550911 -0.467403
O20   O     O_3   0.340395 0.752156 0.721665 -0.626900
O21   O     O_3   0.700662 0.814255 0.392165 -0.670031
O22   O     O_2   0.703570 0.457750 0.294670 -0.453921
O23   O     O_3   0.412810 0.615240 0.376810 -0.506074
O24   O     O_2   0.505226 0.535890 0.215610 -0.416874
P1    P     P_3+3 0.385820 0.698700 0.604730 1.155927
P2    P     P_3+3 0.884390 0.431600 0.301750 1.081913
P3    P     P_3+3 0.373089 0.600282 0.266502 0.990782
P4    P     P_3+3 0.424480 0.301290 0.395200 0.984203
P5    P     P_3+3 0.436640 0.398560 0.734545 1.081160
P6    P     P_3+3 0.814561 0.768764 0.462105 0.932795
P7    P     P_3+3 0.930850 0.573800 0.711771 1.190376
P8    P     P_3+3 0.993670 0.230736 0.544811 1.050498
C43   C     C_2   0.385061 0.192641 0.101533 0.703565
H33   H     H_    0.290061 0.184320 0.056835 0.014408
O25   O     O_2   0.445023 0.131874 0.124520 -0.453267
S1    S     S_3+6 0.634756 0.265749 0.103639 0.022773
O26   O     O_2   0.696124 0.349404 0.136735 -0.280074
O27   O     O_2   0.722742 0.200743 0.139940 -0.148486
O28   O     O_3   0.652806 0.231290 0.995455 -0.395693
H34   H     H_    0.621087 0.282944 0.976993 0.370080
S2    S     S_3+6 0.600033 0.699457 0.776415 -0.052483
O29   O     O_2   0.680565 0.677789 0.852314 -0.284453
O30   O     O_2   0.619221 0.624993 0.695684 -0.349450
O31   O     O_3   0.661095 0.783727 0.763636 -0.567592
H35   H     H_    0.605181 0.796131 0.714715 0.388141
S3    S     S_3+6 0.344571 0.642498 0.812141 -0.025168
O32   O     O_2   0.367329 0.575025 0.725979 -0.278919
O33   O     O_2   0.436568 0.612653 0.880114 -0.279884
O34   O     O_3   0.162787 0.661142 0.842162 -0.484355
H36   H     H_    0.133351 0.722505 0.849364 0.334083
S4    S     S_3+6 0.281158 0.824983 0.978596 -0.001671
O35   O     O_2   0.350839 0.878951 0.059594 -0.199766
O36   O     O_2   0.130026 0.872664 0.966533 -0.254763
O37   O     O_3   0.257757 0.732714 0.997019 -0.481257
H37   H     H_    0.147688 0.736885 0.008089 0.390995
S5    S     S_3+6 0.426023 0.920293 0.886438 0.093674
O38   O     O_2   0.477753 0.925062 0.801795 -0.173738
O39   O     O_2   0.279235 0.979130 0.910206 -0.164298
O40   O     O_3   0.558402 0.957944 0.960857 -0.424748
H38   H     H_    0.504621 0.979474 0.017125 0.413374
C44   C     C_2   0.797853 0.244612 0.316767 0.538726
H39   H     H_    0.708710 0.296065 0.343131 -0.091182
O41   O     O_2   0.774277 0.170110 0.296820 -0.541079
S6    S     S_3+6 0.046231 0.120019 0.160314 0.062854
O42   O     O_2   0.189989 0.058906 0.135405 -0.220976
O43   O     O_2   0.918811 0.068044 0.156765 -0.123652
O44   O     O_3   0.013723 0.176398 0.089174 -0.431882
H40   H     H_    0.978028 0.135484 0.035733 0.412005
S7    S     S_3+6 0.688973 0.775668 0.136626 0.014172
O45   O     O_2   0.707859 0.832101 0.081360 -0.146126
O46   O     O_2   0.801301 0.695909 0.108379 -0.275046
O47   O     O_3   0.513416 0.747183 0.121207 -0.475014
H41   H     H_    0.522552 0.693463 0.072008 0.404976
S8    S     S_3+6 0.031592 0.915105 0.736943 -0.031365
O48   O     O_2   0.007379 0.995371 0.812633 -0.152745
O49   O     O_2   0.968005 0.936311 0.657883 -0.279868
O50   O     O_3   0.216621 0.891074 0.722624 -0.472511
H42   H     H_    0.246259 0.943370 0.713740 0.438309
C45   C     C_2   0.885211 0.863257 0.851326 0.783499
H43   H     H_    0.843876 0.930068 0.883230 0.123092
O51   O     O_2   0.884479 0.812954 0.893055 -0.451045
C46   C     C_2   0.838874 0.888195 0.261244 0.624657
H44   H     H_    0.944190 0.874698 0.293920 -0.128662
O52   O     O_2   0.821604 0.950161 0.234089 -0.461662
S9    S     S_3+6 0.411093 0.118493 0.629477 -0.038411
O53   O     O_2   0.274386 0.080523 0.644097 -0.232216
O54   O     O_2   0.359664 0.192223 0.594528 -0.302339
O55   O     O_3   0.514930 0.043293 0.552389 -0.566808
H45   H     H_    0.443579 0.027669 0.502805 0.324763
S10   S     S_3+6 0.704312 0.090549 0.714462 0.038457
O56   O     O_2   0.784833 0.094125 0.636214 -0.348757
O57   O     O_2   0.799620 0.121889 0.793832 -0.160341
O58   O     O_3   0.678104 0.989694 0.703317 -0.392392
H46   H     H_    0.695603 0.959910 0.640814 0.396703
S11   S     S_3+6 0.436317 0.147748 0.824385 0.033907
O59   O     O_2   0.301837 0.099295 0.803133 -0.180243
O60   O     O_2   0.547824 0.102396 0.873555 -0.141893
O61   O     O_3   0.379589 0.246783 0.890039 -0.573465
H47   H     H_    0.355352 0.238542 0.945665 0.346519
S12   S     S_3+6 0.008666 0.282714 0.887980 -0.019894
O62   O     O_2   0.091178 0.339459 0.961509 -0.290157
O63   O     O_2   0.841480 0.310949 0.899154 -0.330908
O64   O     O_3   0.044073 0.180974 0.890482 -0.357359
H48   H     H_    0.118527 0.181694 0.937964 0.373771
C47   C     C_2   0.437452 0.874307 0.558934 0.625618
H49   H     H_    0.502914 0.889766 0.512550 0.028736
O65   O     O_2   0.481780 0.885695 0.632999 -0.509567
C48   C     C_2   0.177016 0.762934 0.196665 0.487526
H50   H     H_    0.212016 0.796775 0.154735 0.142091
O66   O     O_2   0.059771 0.731114 0.180928 -0.608027
C49   C     C_2   0.542618 0.440829 0.933987 0.590536
H51   H     H_    0.452343 0.402841 0.907097 0.050255
O67   O     O_2   0.550834 0.468831 0.012996 -0.533926
C50   C     C_2   0.249161 0.360137 0.245723 0.327487
H52   H     H_    0.207957 0.394670 0.310406 -0.018265
O68   O     O_2   0.162608 0.350559 0.183523 -0.588484

loop_
_geom_bond_atom_site_label_1
_geom_bond_atom_site_label_2
_ccdc_geom_bond_type
O58   H46   S    
C1    S7    S    
Ba1   O12   S    
C32   C35   A    
C39   C40   S    
Ba2   O6    S    
C17   C18   D    
C23   H12   S    
C4    H11   S    
C41   C42   S    
S5    O40   S    
S12   O62   D    
C1    H5    S    
C17   H23   S    
C14   P8    S    
C5    C6    S    
N1    N2    D    
C38   H2    S    
O21   P6    S    
C45   H43   S    
C11   C16   S    
C2    H8    S    
C3    C4    S    
C39   S3    S    
C3    H9    S    
C26   C27   A    
S9    O54   D    
C35   C36   A    
Ba1   Ba2   S    
C47   O65   D    
C36   C37   A    
C12   C48   S    
O14   P7    D    
S2    O31   S    
O20   P1    S    
C5    O11   S    
O64   H48   S    
Ba1   P1    S    
O22   P2    D    
O24   P3    D    
C49   O67   D    
C23   H30   S    
C36   P5    S    
Ba2   O12   S    
C35   H29   S    
C6    S10   S    
S7    O45   D    
C15   C17   S    
C28   N1    S    
C9    C13   S    
C29   H26   S    
C38   S1    S    
S9    O53   D    
S12   O64   S    
O37   H37   S    
C21   C22   A    
S8    O49   D    
C41   C44   S    
C34   H32   S    
C7    C8    S    
O13   P2    S    
C5    H14   S    
C31   H25   S    
S4    O37   S    
C4    S8    S    
S10   O57   D    
O18   P6    S    
C45   O51   D    
C19   C20   A    
O19   P6    D    
S6    O44   S    
O1    P1    D    
Ba2   O5    S    
C8    H18   S    
Ba1   O22   S    
O44   H40   S    
C38   C43   S    
C2    H1    S    
S11   O60   D    
O23   P3    S    
O3    P3    S    
C8    S12   S    
C3    H10   S    
C34   C38   S    
S9    O55   S    
C24   P6    S    
O10   P5    D    
C6    S11   S    
C14   C15   S    
S5    O39   D    
C41   O2    S    
S11   O59   D    
C10   H22   S    
Ba2   P4    S    
C49   H51   S    
O6    P8    S    
C10   C24   A    
C7    H15   S    
C50   O68   D    
C33   C37   A    
C47   H49   S    
C21   C47   S    
C27   C28   A    
C9    C14   D    
C26   P2    S    
C3    O15   S    
C29   C30   A    
S8    O50   S    
C44   H39   S    
O8    P7    S    
C15   C16   S    
Ba2   O9    S    
C43   O25   D    
C39   S2    S    
Ba2   O14   S    
Ba1   P2    S    
S2    O30   D    
S3    O34   S    
C42   H7    S    
S10   O56   D    
O2    P2    S    
C30   P3    S    
C11   C13   D    
O55   H45   S    
Ba1   O1    S    
S6    O43   D    
Ba2   O4    S    
C8    H17   S    
C48   O66   D    
C1    C2    S    
Ba1   O23   S    
S7    O47   S    
C25   C26   A    
C4    C45   S    
C13   P4    S    
S3    O33   D    
S4    O35   D    
C41   H4    S    
S11   O61   S    
C42   H6    S    
Ba1   O8    S    
C7    O17   S    
O61   H47   S    
C43   H33   S    
S7    O46   D    
C25   C30   A    
C34   C50   S    
C18   H24   S    
O7    P4    S    
C18   C20   S    
O17   P8    S    
S1    O27   D    
S2    O29   D    
C6    S9    S    
S1    O26   D    
S5    O38   D    
C34   O7    S    
Ba1   O5    S    
O40   H38   S    
C10   C22   A    
C33   N2    S    
O47   H41   S    
O5    P4    S    
C40   S5    S    
C22   P1    S    
C50   H52   S    
C7    H16   S    
C19   C21   A    
C48   H50   S    
O16   P8    D    
O28   H34   S    
C46   H44   S    
C44   O41   D    
C1    C46   S    
C28   C29   A    
C11   H20   S    
Ba1   O18   S    
C37   C49   S    
C12   H19   S    
Ba1   O13   S    
S4    O36   D    
C31   C33   A    
C31   C32   A    
Ba2   O8    S    
C40   S4    S    
C40   H3    S    
O4    P4    D    
C12   C23   S    
Ba2   O13   S    
O12   P1    S    
S1    O28   S    
O11   P5    S    
C9    H21   S    
O9    P5    S    
S8    O48   D    
C42   S6    S    
C20   C24   A    
C2    O21   S    
O15   P7    S    
O50   H42   S    
S6    O42   D    
C32   P7    S    
C39   O20   S    
S10   O58   S    
C12   O3    S    
C23   H31   S    
O31   H35   S    
S12   O63   D    
C5    H13   S    
C25   H28   S    
O34   H36   S    
C46   O52   D    
S3    O32   D    
C27   H27   S    
