data_mof_unit_38803.cif
_audit_creation_date              2012-12-11T15:49:04-0500
_audit_creation_method            fapswitch 2.2
_symmetry_space_group_name_H-M    P1
_symmetry_Int_Tables_number       1
_space_group_crystal_system       triclinic
_cell_length_a                    21.781885
_cell_length_b                    7.226514
_cell_length_c                    14.879093
_cell_angle_alpha                 90.432327
_cell_angle_beta                  106.527787
_cell_angle_gamma                 90.117856
_cell_volume                      2245.21920694

loop_
_atom_site_label
_atom_site_type_symbol
_atom_type_description
_atom_site_fract_x
_atom_site_fract_y
_atom_site_fract_z
_atom_type_partial_charge
O1    O     O_R   0.335860 0.638190 0.002110 -0.521092
O2    O     O_R   0.664140 0.361810 0.997890 -0.521092
O3    O     O_R   0.164140 0.138190 0.997890 -0.521478
O4    O     O_R   0.835860 0.861810 0.002110 -0.521478
O5    O     O_R   0.217530 0.305920 0.861960 -0.542940
O6    O     O_R   0.782470 0.694080 0.138040 -0.542940
O7    O     O_R   0.282470 0.805920 0.138040 -0.541818
O8    O     O_R   0.717530 0.194080 0.861960 -0.541818
C1    C     C_R   0.205596 0.475763 0.825975 0.667885
C2    C     C_R   0.794404 0.524237 0.174025 0.667885
C3    C     C_R   0.294332 0.977514 0.173901 0.668646
C4    C     C_R   0.705668 0.022486 0.826099 0.668646
O9    O     O_R   0.338690 0.308320 0.993240 -0.538267
O10   O     O_R   0.661310 0.691680 0.006760 -0.538267
O11   O     O_R   0.161310 0.808320 0.006760 -0.538377
O12   O     O_R   0.838690 0.191680 0.993240 -0.538377
O13   O     O_R   0.286170 0.140430 0.130100 -0.535827
O14   O     O_R   0.713830 0.859570 0.869900 -0.535827
O15   O     O_R   0.213830 0.640430 0.869900 -0.535855
O16   O     O_R   0.786170 0.359570 0.130100 -0.535855
C5    C     C_R   0.364511 0.478786 0.996011 0.680364
C6    C     C_R   0.635489 0.521214 0.003989 0.680362
C7    C     C_R   0.135488 0.978614 0.003949 0.678829
C8    C     C_R   0.864512 0.021386 0.996051 0.678830
O17   O     O_3   0.232630 0.472410 0.044750 -0.354790
O18   O     O_3   0.767370 0.527590 0.955250 -0.354789
O19   O     O_3   0.267370 0.972410 0.955250 -0.354960
O20   O     O_3   0.732630 0.027590 0.044750 -0.354961
V1    V     V_3+5 0.253220 0.196620 0.991700 1.515245
V2    V     V_3+5 0.746780 0.803380 0.008300 1.515245
V3    V     V_3+5 0.246780 0.696620 0.008300 1.515733
V4    V     V_3+5 0.753220 0.303380 0.991700 1.515733
C9    C     C_R   0.033226 0.834160 0.014519 -0.255671
C10   C     C_R   0.966773 0.165840 0.985481 -0.255671
C11   C     C_R   0.466389 0.334025 0.984754 -0.256044
C12   C     C_R   0.533611 0.665975 0.015246 -0.256044
H1    H     H_    0.058211 0.705004 0.025828 0.170246
H2    H     H_    0.941789 0.294996 0.974172 0.170246
H3    H     H_    0.441092 0.204731 0.972872 0.171439
H4    H     H_    0.558908 0.795269 0.027127 0.171439
C13   C     C_R   0.967618 0.835980 0.007163 0.020413
C14   C     C_R   0.032382 0.164020 0.992837 0.020413
C15   C     C_R   0.532015 0.335690 0.992238 0.019803
C16   C     C_R   0.467985 0.664310 0.007762 0.019803
C17   C     C_R   0.933230 0.005687 0.994765 -0.070654
C18   C     C_R   0.066770 0.994313 0.005235 -0.070654
C19   C     C_R   0.566777 0.505500 0.005313 -0.068835
C20   C     C_R   0.433223 0.494499 0.994687 -0.068835
C21   C     C_R   0.677345 0.010728 0.724766 -0.024511
C22   C     C_R   0.322655 0.989272 0.275233 -0.024511
C23   C     C_R   0.822556 0.521211 0.275638 -0.025743
C24   C     C_R   0.177443 0.478790 0.724362 -0.025741
C25   C     C_R   0.687931 0.954625 0.569968 -0.162715
C26   C     C_R   0.312068 0.045368 0.430033 -0.162716
C27   C     C_R   0.813690 0.582396 0.431035 -0.163560
C28   C     C_R   0.186311 0.417621 0.568964 -0.163560
C29   C     C_R   0.715761 0.975145 0.666031 -0.162768
C30   C     C_R   0.284239 0.024850 0.333969 -0.162770
C31   C     C_R   0.785421 0.567734 0.334846 -0.159808
C32   C     C_R   0.214579 0.432279 0.665153 -0.159810
C33   C     C_R   0.610956 0.025429 0.687705 -0.211758
C34   C     C_R   0.389044 0.974573 0.312294 -0.211758
C35   C     C_R   0.888271 0.490201 0.312571 -0.215482
C36   C     C_R   0.111729 0.509793 0.687430 -0.215481
C37   C     C_R   0.581159 0.003061 0.590363 0.084722
C38   C     C_R   0.418841 0.996937 0.409637 0.084723
C39   C     C_R   0.918744 0.509204 0.409989 0.084503
C40   C     C_R   0.081256 0.490799 0.590011 0.084504
C41   C     C_R   0.621243 0.967399 0.531826 0.136105
C42   C     C_R   0.378757 0.032595 0.468175 0.136105
C43   C     C_R   0.879820 0.555358 0.468885 0.136241
C44   C     C_R   0.120180 0.444653 0.531115 0.136240
C45   C     C_R   0.513257 0.013019 0.549508 0.056267
C46   C     C_R   0.486743 0.986979 0.450491 0.056267
C47   C     C_R   0.986338 0.487616 0.450503 0.056594
C48   C     C_R   0.013662 0.512387 0.549497 0.056594
C49   C     C_R   0.528999 0.952286 0.395684 -0.182548
C50   C     C_R   0.471001 0.047709 0.604316 -0.182549
C51   C     C_R   0.972462 0.556913 0.604662 -0.185195
C52   C     C_R   0.027538 0.443097 0.395338 -0.185195
C53   C     C_R   0.594688 0.943073 0.435715 -0.194575
C54   C     C_R   0.405312 0.056921 0.564285 -0.194576
C55   C     C_R   0.907080 0.577391 0.564997 -0.195448
C56   C     C_R   0.092920 0.422624 0.435003 -0.195449
H5    H     H_    0.625086 0.915676 0.390739 0.130044
H6    H     H_    0.374914 0.084315 0.609261 0.130045
H7    H     H_    0.877535 0.612599 0.610217 0.132613
H8    H     H_    0.122466 0.387423 0.389781 0.132613
H9    H     H_    0.415687 0.948690 0.262662 0.089688
H10   H     H_    0.584313 0.051316 0.737337 0.089687
H11   H     H_    0.085856 0.542106 0.737327 0.093626
H12   H     H_    0.914142 0.457875 0.262674 0.093629
H13   H     H_    0.232829 0.037888 0.305319 0.114410
H14   H     H_    0.767171 0.962104 0.694682 0.114410
H15   H     H_    0.265321 0.405511 0.693607 0.113024
H16   H     H_    0.734680 0.594508 0.306392 0.113024
H17   H     H_    0.718558 0.926800 0.525413 0.115374
H18   H     H_    0.281442 0.073190 0.474587 0.115376
H19   H     H_    0.783987 0.618737 0.475831 0.115337
H20   H     H_    0.216014 0.381288 0.524168 0.115339
H21   H     H_    0.513089 0.930907 0.320998 0.125442
H22   H     H_    0.486911 0.069086 0.679002 0.125442
H23   H     H_    0.989025 0.577968 0.679336 0.127701
H24   H     H_    0.010976 0.422048 0.320663 0.127701
C57   C     C_2   0.937387 0.654547 0.008045 0.358955
H25   H     H_    0.954849 0.564052 0.067689 0.015790
O21   O     O_2   0.895221 0.601246 0.939535 -0.523874
C58   C     C_2   0.062613 0.345453 0.991955 0.358955
H26   H     H_    0.045151 0.435947 0.932311 0.015790
O22   O     O_2   0.104778 0.398754 0.060465 -0.523875
C59   C     C_2   0.561883 0.154135 0.990981 0.355791
H27   H     H_    0.543795 0.061247 0.931628 0.016583
O23   O     O_2   0.604369 0.103282 0.059043 -0.522823
C60   C     C_2   0.438117 0.845865 0.009019 0.355791
H28   H     H_    0.456205 0.938753 0.068372 0.016584
O24   O     O_2   0.395631 0.896718 0.940956 -0.522823

loop_
_geom_bond_atom_site_label_1
_geom_bond_atom_site_label_2
_ccdc_geom_bond_type
O17   V3    S    
C55   H7    S    
O1    C5    A    
C27   C31   A    
O19   V1    S    
O13   V1    S    
C45   C46   A    
O3    C7    A    
C59   H27   S    
C10   C14   A    
C48   C51   A    
C52   C56   A    
O4    V2    S    
O15   V3    S    
C4    C21   S    
C21   C29   A    
O7    C3    A    
C57   O21   D    
C13   C57   S    
C52   H24   S    
C8    C17   S    
C36   C40   A    
O9    V1    S    
C30   H13   S    
O16   V4    S    
O4    C8    A    
C50   H22   S    
C2    C23   S    
C38   C46   A    
C34   H9    S    
O1    V3    S    
C37   C45   A    
C58   H26   S    
C12   C19   A    
O2    V4    S    
C14   C18   A    
O3    V1    S    
C24   C32   A    
C49   H21   S    
C1    O15   A    
C2    O16   A    
C28   C44   A    
C46   C49   A    
C35   H12   S    
O2    C6    A    
C45   C50   A    
O14   V2    S    
C11   C15   A    
C47   C52   A    
C43   C55   A    
C23   C35   A    
C40   C44   A    
C5    C20   S    
O11   C7    A    
C6    C19   S    
C16   C60   S    
O12   C8    A    
C7    C18   S    
C9    C18   A    
C51   H23   S    
C1    C24   S    
C15   C59   S    
O10   V2    S    
C11   C20   A    
C60   H28   S    
O5    V1    S    
C35   C39   A    
C21   C33   A    
C34   C38   A    
C22   C30   A    
C12   H4    S    
O7    V3    S    
C24   C36   A    
C25   C29   A    
O18   V4    S    
C25   H17   S    
C25   C41   A    
C54   H6    S    
C9    H1    S    
C28   C32   A    
O8    V4    S    
C11   H3    S    
C47   C48   A    
O5    C1    A    
C50   C54   A    
C26   C42   A    
C49   C53   A    
O8    C4    A    
O9    C5    A    
C59   O23   D    
C10   C17   A    
C40   C48   A    
C44   C56   A    
O6    V2    S    
C29   H14   S    
C22   C34   A    
C12   C16   A    
C23   C31   A    
C31   H16   S    
C28   H20   S    
C27   H19   S    
C33   H10   S    
C26   C30   A    
C3    O13   A    
C10   H2    S    
C56   H8    S    
O6    C2    A    
C60   O24   D    
O11   V3    S    
O12   V4    S    
C57   H25   S    
C9    C13   A    
O10   C6    A    
O20   V2    S    
C3    C22   S    
C51   C55   A    
C38   C42   A    
C14   C58   S    
C37   C41   A    
C58   O22   D    
C39   C43   A    
C42   C54   A    
C53   H5    S    
C41   C53   A    
C32   H15   S    
C33   C37   A    
C39   C47   A    
C4    O14   A    
C13   C17   A    
C26   H18   S    
C36   H11   S    
C15   C19   A    
C27   C43   A    
C16   C20   A    
