data_mof_unit_33006.cif
_audit_creation_date              2012-12-10T19:05:56-0500
_audit_creation_method            fapswitch 2.2
_symmetry_space_group_name_H-M    P1
_symmetry_Int_Tables_number       1
_space_group_crystal_system       triclinic
_cell_length_a                    19.345121
_cell_length_b                    10.865311
_cell_length_c                    9.555178
_cell_angle_alpha                 89.560918
_cell_angle_beta                  90.014804
_cell_angle_gamma                 92.044625
_cell_volume                      2007.07248035

loop_
_atom_site_label
_atom_site_type_symbol
_atom_type_description
_atom_site_fract_x
_atom_site_fract_y
_atom_site_fract_z
_atom_type_partial_charge
C1    C     C_R   0.499897 0.262259 0.500595 0.795175
C2    C     C_R   0.852613 0.449106 0.507498 -0.091658
C3    C     C_R   0.473800 0.059455 0.616254 0.155250
C4    C     C_R   0.367426 0.497910 0.499804 0.803362
C5    C     C_R   0.497345 0.128600 0.500014 -0.154689
C6    C     C_R   0.513855 0.066286 0.376337 -0.241723
C7    C     C_R   0.512929 0.937927 0.373733 -0.215449
C8    C     C_R   0.497465 0.870385 0.496197 -0.084206
C9    C     C_R   0.475809 0.932747 0.613820 0.053241
C10   C     C_3   0.500035 0.923145 0.760503 -0.508456
C11   C     C_3   0.494899 0.062153 0.767865 0.256592
C12   C     C_R   0.291376 0.488918 0.497868 -0.042054
C13   C     C_R   0.535249 0.590510 0.072959 0.184945
C14   C     C_R   0.455816 0.424661 0.075968 -0.138659
C15   C     C_R   0.454531 0.426405 0.927035 0.002583
C16   C     C_R   0.500623 0.737540 0.499182 0.821259
C17   C     C_R   0.536314 0.589327 0.926115 0.237164
C18   C     C_3   0.612113 0.620589 0.923011 0.229683
C19   C     C_3   0.609939 0.625257 0.082188 -0.560861
C20   C     C_R   0.632413 0.492948 0.499915 0.830368
C21   C     C_R   0.253217 0.503013 0.620818 -0.161215
C22   C     C_R   0.181289 0.490978 0.618309 -0.150727
C23   C     C_R   0.928857 0.448231 0.503679 0.464516
C24   C     C_R   0.145772 0.464449 0.492931 0.011122
C25   C     C_R   0.184463 0.448893 0.368769 -0.004186
C26   C     C_R   0.256526 0.461894 0.372393 -0.218938
C27   C     C_3   0.458212 0.091066 0.995583 0.055659
C28   C     C_3   0.392803 0.086348 0.084452 -0.756499
C29   C     C_1   0.401206 0.354972 0.857078 0.356740
C30   C     C_3   0.696683 0.766739 0.860179 0.088846
C31   C     C_3   0.707756 0.904037 0.832063 -0.831974
C32   C     C_1   0.152657 0.415322 0.236981 0.257497
C33   C     C_3   0.835887 0.400188 0.851867 0.051195
C34   C     C_R   0.069220 0.455584 0.495538 0.397083
C35   C     C_3   0.883897 0.412666 0.977362 -0.686759
C36   C     C_3   0.692445 0.282865 0.251242 0.091596
C37   C     C_3   0.649661 0.256170 0.120536 -0.828483
C38   C     C_R   0.816467 0.473538 0.631678 0.465554
C39   C     C_R   0.744905 0.487957 0.625933 -0.374799
C40   C     C_R   0.707859 0.473627 0.500713 -0.183676
C41   C     C_R   0.743346 0.435396 0.380355 0.438839
C42   C     C_R   0.815298 0.427855 0.383569 -0.322200
Cu1   Cu    Cu3+1 0.500000 0.499980 0.640670 0.967072
Cu2   Cu    Cu3+1 0.500000 0.500020 0.359330 0.950981
H1    H     H_    0.278882 0.523806 0.719022 0.156003
H2    H     H_    0.618585 0.718999 0.126226 0.202355
H3    H     H_    0.285555 0.448672 0.276889 0.150645
H4    H     H_    0.718664 0.511979 0.720186 0.160073
H5    H     H_    0.841887 0.404311 0.288363 0.178694
H6    H     H_    0.529692 0.116533 0.282771 0.164205
H7    H     H_    0.489884 0.175025 0.021731 0.135280
H8    H     H_    0.488383 0.008719 0.022811 0.139705
H9    H     H_    0.362748 0.999263 0.064464 0.252558
H10   H     H_    0.406040 0.090589 0.197092 0.211801
H11   H     H_    0.360066 0.165149 0.058662 0.243876
H12   H     H_    0.527686 0.892364 0.278383 0.159439
H13   H     H_    0.722025 0.716245 0.775027 0.167112
H14   H     H_    0.721939 0.744808 0.961791 0.155691
H15   H     H_    0.682304 0.957504 0.914925 0.239285
H16   H     H_    0.763965 0.928638 0.831480 0.216808
H17   H     H_    0.685523 0.928560 0.728767 0.241349
H18   H     H_    0.843340 0.308091 0.804412 0.140922
H19   H     H_    0.781732 0.405317 0.890005 0.136382
H20   H     H_    0.875733 0.501218 0.031209 0.247402
H21   H     H_    0.873030 0.335498 0.051887 0.185690
H22   H     H_    0.938641 0.409786 0.942888 0.269205
H23   H     H_    0.462501 0.869790 0.827437 0.222971
H24   H     H_    0.661352 0.251701 0.344053 0.132499
H25   H     H_    0.740414 0.229359 0.245673 0.137569
H26   H     H_    0.637238 0.155824 0.113501 0.187887
H27   H     H_    0.600614 0.306060 0.124820 0.258275
H28   H     H_    0.679036 0.286297 0.025711 0.233700
H29   H     H_    0.554196 0.894680 0.766500 0.230076
H30   H     H_    0.544426 0.114994 0.787166 0.073506
H31   H     H_    0.420903 0.363121 0.133828 0.145635
H32   H     H_    0.642526 0.544770 0.880741 0.088272
H33   H     H_    0.640677 0.553129 0.130980 0.252659
H34   H     H_    0.153362 0.503895 0.715014 0.167614
N1    N     N_R   0.031742 0.475349 0.377999 -0.219241
N2    N     N_R   0.963013 0.471363 0.381805 -0.241767
N3    N     N_R   0.966233 0.428281 0.621348 -0.180530
N4    N     N_R   0.035015 0.431969 0.617410 -0.234985
N5    N     N_R   0.500440 0.500930 0.147930 -0.181768
N6    N     N_R   0.500440 0.500890 0.852020 -0.241819
N7    N     N_1   0.357493 0.298617 0.801427 -0.248587
N8    N     N_1   0.127405 0.388372 0.131212 -0.260287
O1    O     O_R   0.500000 0.319640 0.618810 -0.579962
O2    O     O_3   0.624998 0.737475 0.861492 -0.579764
O3    O     O_3   0.851797 0.496278 0.755358 -0.565819
O4    O     O_3   0.708869 0.410340 0.256851 -0.593123
O5    O     O_R   0.500010 0.319680 0.381230 -0.588309
O6    O     O_R   0.400140 0.499970 0.618830 -0.583958
O7    O     O_R   0.400150 0.500010 0.381250 -0.584936
O8    O     O_R   0.499990 0.680320 0.618770 -0.557846
O9    O     O_R   0.500000 0.680360 0.381190 -0.584523
O10   O     O_R   0.599850 0.499990 0.618750 -0.591663
O11   O     O_R   0.599860 0.500030 0.381170 -0.540270
O12   O     O_3   0.438973 0.094530 0.852939 -0.535097

loop_
_geom_bond_atom_site_label_1
_geom_bond_atom_site_label_2
_ccdc_geom_bond_type
C1    O1    A    
C27   O12   S    
C41   C42   A    
C31   H17   S    
Cu2   N5    S    
N3    N4    A    
C19   H2    S    
C7    C8    A    
C10   H23   S    
C27   H8    S    
C38   O3    S    
C11   O12   S    
C1    C5    S    
C7    H12   S    
C36   C37   S    
C30   C31   S    
C20   C40   S    
C10   H29   S    
C35   H21   S    
C30   H13   S    
Cu1   O8    S    
C17   C18   S    
C18   C19   S    
C31   H15   S    
C19   H33   S    
Cu2   O7    S    
C20   O11   A    
C8    C9    A    
C35   H20   S    
C23   N2    A    
C4    C12   S    
C9    C10   S    
C29   N7    T    
C25   C32   S    
C41   O4    S    
C20   O10   A    
C1    O5    A    
C37   H26   S    
Cu1   N6    S    
C14   N5    A    
C28   H11   S    
C27   H7    S    
C15   C29   S    
C21   H1    S    
C38   C39   A    
C13   C19   S    
C24   C25   A    
C22   H34   S    
C39   C40   A    
C28   H10   S    
C33   H18   S    
C35   H22   S    
C25   C26   A    
C12   C21   A    
C24   C34   S    
C4    O7    A    
C12   C26   A    
C31   H16   S    
Cu1   Cu2   S    
C3    C9    A    
C33   O3    S    
C34   N1    A    
Cu2   O11   S    
C2    C38   A    
C33   H19   S    
C32   N8    T    
Cu1   O10   S    
C6    H6    S    
C6    C7    A    
Cu2   O5    S    
C26   H3    S    
C40   C41   A    
C37   H27   S    
C22   C24   A    
C30   O2    S    
C2    C23   S    
C36   H25   S    
C36   O4    S    
C16   O9    A    
C18   H32   S    
C23   N3    A    
C3    C5    A    
C11   H30   S    
C28   H9    S    
C36   H24   S    
C15   N6    A    
C13   N5    A    
C16   O8    A    
Cu1   O6    S    
C13   C17   A    
C17   N6    A    
Cu1   O1    S    
C14   H31   S    
Cu2   O9    S    
C5    C6    A    
C2    C42   A    
C30   H14   S    
C33   C35   S    
C18   O2    S    
C3    C11   S    
C10   C11   S    
C42   H5    S    
N1    N2    A    
C8    C16   S    
C37   H28   S    
C27   C28   S    
C14   C15   A    
C34   N4    A    
C21   C22   A    
C39   H4    S    
C4    O6    A    
