data_mof_unit_64398.cif
_audit_creation_date              2012-12-10T17:04:19-0500
_audit_creation_method            fapswitch 2.2
_symmetry_space_group_name_H-M    P1
_symmetry_Int_Tables_number       1
_space_group_crystal_system       triclinic
_cell_length_a                    15.142231
_cell_length_b                    15.109409
_cell_length_c                    16.022519
_cell_angle_alpha                 89.602734
_cell_angle_beta                  90.276926
_cell_angle_gamma                 90.208189
_cell_volume                      3665.64001903

loop_
_atom_site_label
_atom_site_type_symbol
_atom_type_description
_atom_site_fract_x
_atom_site_fract_y
_atom_site_fract_z
_atom_type_partial_charge
C1    C     C_R   0.259831 0.485162 0.488399 0.802140
C2    C     C_R   0.979375 0.454802 0.490484 0.096806
C3    C     C_R   0.018947 0.536361 0.513717 0.122868
C4    C     C_R   0.739692 0.514637 0.512177 0.878358
C5    C     C_R   0.110633 0.545685 0.512768 -0.243203
C6    C     C_R   0.124899 0.395552 0.462458 -0.217466
C7    C     C_R   0.033626 0.384862 0.464758 -0.151755
C8    C     C_R   0.522783 0.163628 0.513721 -0.028421
C9    C     C_R   0.479564 0.835372 0.481318 0.006934
C10   C     C_R   0.389194 0.965669 0.462126 -0.207897
C11   C     C_R   0.398105 0.874055 0.461717 -0.193966
C12   C     C_1   0.478112 0.519601 0.886727 0.013248
C13   C     C_R   0.552284 0.888005 0.502394 -0.269412
C14   C     C_R   0.543061 0.979846 0.506123 0.179080
C15   C     C_R   0.461071 0.018968 0.484877 0.177111
C16   C     C_R   0.513479 0.259774 0.512828 0.823082
C17   C     C_R   0.451970 0.110681 0.487676 -0.269817
C18   C     C_R   0.603269 0.124584 0.536906 -0.165473
C19   C     C_R   0.613691 0.033127 0.532273 -0.212044
C20   C     C_R   0.486436 0.739742 0.486263 0.790274
C21   C     C_R   0.512772 0.488496 0.277286 0.823381
C22   C     C_R   0.487305 0.511285 0.722711 0.807071
C23   C     C_1   0.522279 0.479473 0.113325 0.015955
C24   C     C_1   0.517994 0.483525 0.188223 -0.126205
C25   C     C_2   0.527080 0.474961 0.023816 -0.156268
C26   C     C_2   0.473313 0.523994 0.976241 -0.164589
C27   C     C_1   0.482301 0.515796 0.811811 -0.127801
C28   C     C_R   0.163763 0.475581 0.487115 -0.015590
C29   C     C_R   0.835403 0.519378 0.515157 -0.077322
C30   C     C_R   0.966477 0.607994 0.536886 -0.197690
C31   C     C_R   0.875163 0.599797 0.536508 -0.264267
C32   C     C_R   0.886785 0.446069 0.492606 0.294144
Cl1   Cl    Cl    0.834098 0.345767 0.463772 -0.649956
H1    H     H_    0.425288 0.567854 0.004285 0.161590
H2    H     H_    0.996048 0.670705 0.554236 0.152324
H3    H     H_    0.006455 0.321700 0.446062 0.199902
H4    H     H_    0.835193 0.656276 0.553217 0.154472
H5    H     H_    0.389537 0.140875 0.470458 0.154609
H6    H     H_    0.658715 0.165013 0.556559 0.186492
H7    H     H_    0.325899 0.994676 0.446259 0.144485
H8    H     H_    0.676644 0.004123 0.549331 0.149410
H9    H     H_    0.341533 0.833176 0.446102 0.142856
H10   H     H_    0.614586 0.857197 0.519040 0.136749
H11   H     H_    0.575119 0.431105 0.995788 0.165791
H12   H     H_    0.140649 0.607907 0.531178 0.156054
H13   H     H_    0.165269 0.340487 0.442866 0.166401
O1    O     O_3   0.500000 0.500000 0.500000 -0.490244
O2    O     O_R   0.461330 0.435620 0.316920 -0.632691
O3    O     O_R   0.434750 0.558200 0.677930 -0.633569
O4    O     O_R   0.559650 0.545720 0.316320 -0.627599
O5    O     O_R   0.544270 0.460460 0.688830 -0.637765
O6    O     O_R   0.559890 0.307360 0.561630 -0.629766
O7    O     O_R   0.434610 0.697530 0.534530 -0.641115
O8    O     O_R   0.307380 0.433810 0.444990 -0.648070
O9    O     O_R   0.698130 0.561300 0.458860 -0.641030
O10   O     O_R   0.296270 0.542620 0.535390 -0.644965
O11   O     O_R   0.698230 0.462280 0.560770 -0.607800
O12   O     O_R   0.461480 0.296280 0.460320 -0.643755
O13   O     O_R   0.544020 0.698820 0.443520 -0.640665
Zn1   Zn    Zn3+2 0.574310 0.433680 0.576480 1.011192
Zn2   Zn    Zn3+2 0.433700 0.417860 0.431740 0.983564
Zn3   Zn    Zn3+2 0.574160 0.575160 0.430870 0.992846
Zn4   Zn    Zn3+2 0.417840 0.573310 0.560900 0.968989

loop_
_geom_bond_atom_site_label_1
_geom_bond_atom_site_label_2
_ccdc_geom_bond_type
C4    O11   A    
O1    Zn2   S    
C1    C28   S    
C1    O8    A    
C6    C7    A    
O3    Zn4   S    
O8    Zn2   S    
C3    C30   A    
C5    C28   A    
O7    Zn4   S    
C7    H3    S    
C9    C20   S    
C8    C17   A    
C23   C24   T    
C21   O2    A    
C32   Cl1   S    
O1    Zn3   S    
C2    C3    A    
O1    Zn1   S    
O10   Zn4   S    
C29   C31   A    
C16   O12   A    
C13   C14   A    
C20   O13   A    
C9    C11   A    
O2    Zn2   S    
C30   C31   A    
C30   H2    S    
O12   Zn2   S    
C22   O3    A    
C25   H11   S    
C10   H7    S    
C21   O4    A    
C1    O10   A    
C29   C32   A    
C10   C15   A    
C23   C25   S    
C4    O9    A    
O1    Zn4   S    
C22   C27   S    
O4    Zn3   S    
C8    C18   A    
C10   C11   A    
C12   C27   T    
O9    Zn3   S    
C16   O6    A    
C13   H10   S    
O6    Zn1   S    
C17   H5    S    
C11   H9    S    
C2    C32   A    
C18   C19   A    
C8    C16   S    
C21   C24   S    
C12   C26   S    
C15   C17   A    
C18   H6    S    
C9    C13   A    
C14   C15   A    
C22   O5    A    
O11   Zn1   S    
O5    Zn1   S    
C6    H13   S    
C2    C7    A    
C3    C5    A    
C25   C26   D    
C5    H12   S    
C14   C19   A    
C26   H1    S    
C6    C28   A    
C4    C29   S    
C19   H8    S    
C31   H4    S    
C20   O7    A    
O13   Zn3   S    
