data_mof_unit_24320.cif
_audit_creation_date              2012-12-10T18:23:11-0500
_audit_creation_method            fapswitch 2.2
_symmetry_space_group_name_H-M    P1
_symmetry_Int_Tables_number       1
_space_group_crystal_system       triclinic
_cell_length_a                    14.975317
_cell_length_b                    14.171629
_cell_length_c                    10.674587
_cell_angle_alpha                 88.027405
_cell_angle_beta                  89.410884
_cell_angle_gamma                 88.890889
_cell_volume                      2263.53888454

loop_
_atom_site_label
_atom_site_type_symbol
_atom_type_description
_atom_site_fract_x
_atom_site_fract_y
_atom_site_fract_z
_atom_type_partial_charge
C1    C     C_R   0.327118 0.500845 0.503000 0.925394
C2    C     C_R   0.953996 0.487179 0.279574 0.490656
C3    C     C_R   0.559133 0.801158 0.424835 0.448054
C4    C     C_R   0.444581 0.198998 0.580297 0.472170
C5    C     C_R   0.431900 0.799272 0.559595 0.468762
C6    C     C_R   0.557808 0.201623 0.422333 0.466518
C7    C     C_R   0.434586 0.899043 0.568102 -0.079074
C8    C     C_R   0.547162 0.102359 0.405195 -0.101307
C9    C     C_R   0.548685 0.901088 0.407418 -0.072899
C10   C     C_R   0.435477 0.099894 0.570077 -0.068840
C11   C     C_R   0.491284 0.950394 0.487414 0.008600
C12   C     C_R   0.672737 0.499579 0.504499 0.936114
C13   C     C_R   0.490348 0.051128 0.486277 0.020355
C14   C     C_R   0.376861 0.948909 0.648106 -0.199666
C15   C     C_R   0.593547 0.052423 0.311865 -0.212863
C16   C     C_R   0.594633 0.953249 0.313319 -0.179142
C17   C     C_R   0.375177 0.047798 0.645954 -0.188039
C18   C     C_R   0.499869 0.501215 0.257083 0.925250
C19   C     C_R   0.501412 0.498627 0.742797 0.920865
C20   C     C_3   0.461850 0.581843 0.033664 -0.291581
C21   C     C_3   0.539681 0.416923 0.965441 -0.356306
C22   C     C_3   0.547615 0.573286 0.952579 -0.269454
C23   C     C_R   0.953172 0.502574 0.505965 -0.054748
C24   C     C_3   0.454031 0.425108 0.047370 -0.342317
C25   C     C_3   0.417963 0.504626 0.958303 0.568654
C26   C     C_3   0.583401 0.493748 0.040857 0.593109
C27   C     C_3   0.502359 0.496690 0.878166 -0.104032
C28   C     C_3   0.499422 0.502437 0.121576 -0.099604
C29   C     C_R   0.814126 0.494500 0.394739 -0.346487
C30   C     C_R   0.185730 0.523513 0.612305 -0.324369
C31   C     C_R   0.768132 0.500463 0.507804 -0.217519
C32   C     C_R   0.231530 0.503913 0.501780 -0.209272
C33   C     C_R   0.812705 0.516096 0.619987 0.422597
C34   C     C_R   0.046612 0.503771 0.504553 -0.060710
C35   C     C_R   0.186419 0.492848 0.389097 0.470379
C36   C     C_R   0.906087 0.515341 0.619276 0.005817
C37   C     C_R   0.093546 0.488385 0.391530 -0.011134
C38   C     C_3   0.269481 0.454455 0.951965 0.029032
C39   C     C_3   0.264908 0.363646 0.878656 -0.340377
C40   C     C_3   0.172324 0.320532 0.887526 -0.902200
C41   C     C_3   0.730642 0.443766 0.011329 0.082959
C42   C     C_3   0.753723 0.344986 0.065021 -0.314419
C43   C     C_3   0.816682 0.292027 0.977530 -0.944109
C44   C     C_3   0.746999 0.636667 0.727150 0.037245
C45   C     C_R   0.906828 0.493620 0.392900 0.026833
C46   C     C_3   0.765806 0.677236 0.854574 -0.379228
C47   C     C_3   0.731483 0.779126 0.861416 -0.960395
C48   C     C_3   0.263098 0.575438 0.235046 0.035279
C49   C     C_3   0.190938 0.635610 0.168696 -0.401311
C50   C     C_3   0.231059 0.723327 0.105027 -0.945801
C51   C     C_3   0.062439 0.672408 0.850475 0.026880
C52   C     C_3   0.125538 0.742248 0.785353 -0.309602
C53   C     C_3   0.097262 0.843770 0.813259 -0.972706
C54   C     C_3   0.932750 0.586658 0.109671 0.052187
C55   C     C_3   0.878081 0.669238 0.162314 -0.344407
C56   C     C_R   0.092828 0.524363 0.614683 0.039736
C57   C     C_3   0.914709 0.763668 0.113448 -0.986356
C58   C     C_3   0.706797 0.759629 0.442995 0.137572
C59   C     C_3   0.767110 0.842933 0.408270 -0.425113
C60   C     C_3   0.858919 0.831092 0.468799 -0.963644
C61   C     C_3   0.467486 0.237975 0.782826 0.099679
C62   C     C_3   0.460509 0.148634 0.867876 -0.440588
C63   C     C_3   0.513677 0.156849 0.988214 -0.948906
C64   C     C_3   0.291669 0.758807 0.499547 0.126381
C65   C     C_3   0.232942 0.848929 0.496525 -0.430375
C66   C     C_3   0.148816 0.837641 0.419001 -0.957108
C67   C     C_R   0.952860 0.532958 0.728145 -0.316126
C68   C     C_3   0.712437 0.198431 0.416055 0.050974
C69   C     C_3   0.784192 0.267084 0.450827 -0.307657
C70   C     C_3   0.872403 0.216311 0.482077 -0.968773
C71   C     C_R   0.046616 0.475310 0.281190 -0.305997
C72   C     C_R   0.045017 0.546188 0.724044 0.474127
H1    H     H_    0.431035 0.649298 0.063772 0.164615
H2    H     H_    0.629865 0.089707 0.238032 0.160316
H3    H     H_    0.633085 0.917559 0.242121 0.171608
H4    H     H_    0.328099 0.083271 0.706778 0.177536
H5    H     H_    0.204387 0.491980 0.945725 0.236715
H6    H     H_    0.278715 0.436839 0.053024 0.164197
H7    H     H_    0.282170 0.377968 0.778383 0.271746
H8    H     H_    0.313271 0.311263 0.919054 0.208994
H9    H     H_    0.153226 0.306552 0.987219 0.262391
H10   H     H_    0.172891 0.252816 0.838147 0.264600
H11   H     H_    0.121919 0.368943 0.842767 0.279918
H12   H     H_    0.574040 0.351609 0.935006 0.153681
H13   H     H_    0.792364 0.485024 0.004728 0.208628
H14   H     H_    0.707382 0.439817 0.912918 0.168044
H15   H     H_    0.786535 0.351214 0.156879 0.248559
H16   H     H_    0.691832 0.303954 0.079980 0.225285
H17   H     H_    0.784396 0.282833 0.885602 0.258885
H18   H     H_    0.833185 0.221217 0.019759 0.259245
H19   H     H_    0.879579 0.331428 0.962762 0.286067
H20   H     H_    0.675115 0.648087 0.706311 0.186918
H21   H     H_    0.788008 0.677915 0.657591 0.130757
H22   H     H_    0.734424 0.634059 0.930515 0.244490
H23   H     H_    0.583508 0.633998 0.910069 0.169315
H24   H     H_    0.838637 0.676353 0.869280 0.204249
H25   H     H_    0.765811 0.824644 0.789915 0.259740
H26   H     H_    0.744986 0.806071 0.955663 0.278060
H27   H     H_    0.658345 0.783337 0.845309 0.261518
H28   H     H_    0.318193 0.563254 0.168745 0.175915
H29   H     H_    0.291594 0.616566 0.309963 0.138445
H30   H     H_    0.158903 0.593705 0.096815 0.231267
H31   H     H_    0.139483 0.657825 0.237955 0.212712
H32   H     H_    0.273019 0.761237 0.171341 0.255070
H33   H     H_    0.176746 0.771936 0.072018 0.261819
H34   H     H_    0.416993 0.365272 0.091160 0.165442
H35   H     H_    0.272795 0.703028 0.023353 0.288229
H36   H     H_    0.066495 0.682484 0.952369 0.170682
H37   H     H_    0.992346 0.690527 0.823803 0.126686
H38   H     H_    0.194817 0.728326 0.818328 0.253673
H39   H     H_    0.124107 0.732721 0.682696 0.222567
H40   H     H_    0.034263 0.862972 0.763720 0.270471
H41   H     H_    0.149843 0.893471 0.781902 0.257821
H42   H     H_    0.086555 0.852090 0.915374 0.262108
H43   H     H_    0.918909 0.583416 0.009082 0.144654
H44   H     H_    0.004977 0.601047 0.115556 0.134340
H45   H     H_    0.777022 0.488316 0.308781 0.234464
H46   H     H_    0.806998 0.663517 0.135385 0.246478
H47   H     H_    0.881362 0.667263 0.265985 0.225411
H48   H     H_    0.983113 0.773395 0.149646 0.266934
H49   H     H_    0.871421 0.822645 0.144762 0.270405
H50   H     H_    0.917143 0.767094 0.009606 0.261683
H51   H     H_    0.746562 0.694052 0.428502 0.183695
H52   H     H_    0.689568 0.762261 0.544466 0.097767
H53   H     H_    0.775270 0.849079 0.305147 0.235188
H54   H     H_    0.736641 0.909329 0.442339 0.225588
H55   H     H_    0.852194 0.830275 0.572530 0.258118
H56   H     H_    0.222960 0.537658 0.695859 0.239120
H57   H     H_    0.901527 0.891156 0.438681 0.274001
H58   H     H_    0.892518 0.764540 0.440611 0.264186
H59   H     H_    0.449884 0.298020 0.841115 0.192793
H60   H     H_    0.538262 0.247417 0.751449 0.131132
H61   H     H_    0.389493 0.136256 0.893401 0.236177
H62   H     H_    0.488459 0.086966 0.818575 0.236155
H63   H     H_    0.584897 0.171090 0.966003 0.258959
H64   H     H_    0.510118 0.089548 0.044308 0.276045
H65   H     H_    0.485499 0.214206 0.045579 0.273000
H66   H     H_    0.246267 0.698723 0.514991 0.183345
H67   H     H_    0.917630 0.540603 0.815528 0.176402
H68   H     H_    0.323769 0.750754 0.405728 0.114097
H69   H     H_    0.212350 0.866114 0.592744 0.245117
H70   H     H_    0.270876 0.908786 0.454363 0.234638
H71   H     H_    0.166882 0.826039 0.319736 0.274974
H72   H     H_    0.106783 0.902894 0.423055 0.274388
H73   H     H_    0.108980 0.777331 0.456028 0.259848
H74   H     H_    0.739687 0.156825 0.337717 0.149750
H75   H     H_    0.702030 0.149808 0.499446 0.121982
H76   H     H_    0.795450 0.316275 0.370059 0.236941
H77   H     H_    0.761853 0.306204 0.534017 0.238226
H78   H     H_    0.081480 0.463575 0.193542 0.192916
H79   H     H_    0.863454 0.165967 0.563107 0.263868
H80   H     H_    0.922712 0.268982 0.506839 0.278235
H81   H     H_    0.897746 0.177379 0.400018 0.266210
H82   H     H_    0.332661 0.911513 0.712589 0.174888
N1    N     N_R   0.500000 0.750030 0.500000 -0.203204
N2    N     N_R   0.500000 0.249970 0.500000 -0.188777
O1    O     O_R   0.367850 0.580280 0.500030 -0.630778
O2    O     O_3   0.669988 0.490259 0.092262 -0.667656
O3    O     O_3   0.765737 0.538101 0.728203 -0.694091
O4    O     O_3   0.232409 0.485500 0.276513 -0.681239
O5    O     O_3   0.088805 0.577827 0.827691 -0.678737
O6    O     O_3   0.909727 0.498579 0.167016 -0.665323
O7    O     O_3   0.629961 0.756032 0.366115 -0.610773
O8    O     O_3   0.405765 0.241598 0.682202 -0.633714
O9    O     O_3   0.354930 0.754089 0.598969 -0.613146
O10   O     O_3   0.633026 0.247746 0.375694 -0.602388
O11   O     O_R   0.632150 0.419720 0.499970 -0.591421
O12   O     O_R   0.632150 0.580280 0.499970 -0.628635
O13   O     O_R   0.367850 0.419720 0.500030 -0.578129
O14   O     O_R   0.499970 0.580260 0.313950 -0.612020
O15   O     O_R   0.500030 0.419740 0.686050 -0.639582
O16   O     O_R   0.500030 0.580260 0.686050 -0.605480
O17   O     O_R   0.499970 0.419740 0.313950 -0.587915
O18   O     O_3   0.333950 0.516339 0.899746 -0.658514
Zn1   Zn    Zn3+2 0.500000 0.607200 0.500000 0.992410
Zn2   Zn    Zn3+2 0.500000 0.392800 0.500000 1.020392

loop_
_geom_bond_atom_site_label_1
_geom_bond_atom_site_label_2
_ccdc_geom_bond_type
O12   Zn1   S    
C21   C26   S    
C6    O10   S    
C34   C56   A    
C8    C13   A    
C23   C45   A    
C70   H81   S    
C41   C42   S    
C40   H11   S    
C2    O6    S    
C12   O11   A    
C36   C67   A    
C68   H74   S    
C55   H47   S    
C52   C53   S    
C59   H54   S    
C7    C11   A    
C41   H14   S    
C48   O4    S    
C58   H51   S    
C62   C63   S    
C47   H26   S    
C62   H61   S    
C35   C37   A    
C9    C16   A    
C19   O15   A    
C38   C39   S    
C38   O18   S    
C71   H78   S    
C66   H72   S    
C20   C25   S    
C10   C17   A    
C15   C16   A    
C61   O8    S    
C33   C36   A    
C47   H27   S    
C67   C72   A    
C22   H23   S    
C1    O13   A    
C38   H5    S    
C35   O4    S    
C66   H73   S    
C44   H21   S    
C61   H60   S    
C57   H50   S    
C46   C47   S    
C25   O18   S    
C7    C14   A    
C53   H41   S    
C51   H36   S    
C56   C72   A    
C54   H44   S    
C17   H4    S    
C72   O5    S    
C4    O8    S    
C51   O5    S    
C5    O9    S    
C19   C27   S    
C44   H20   S    
O16   Zn1   S    
C3    O7    S    
C21   C27   S    
C59   C60   S    
C51   H37   S    
C14   H82   S    
C63   H65   S    
C14   C17   A    
C61   C62   S    
C58   O7    S    
C44   C46   S    
O14   Zn1   S    
C18   O14   A    
C2    C45   A    
C48   H28   S    
C30   H56   S    
C43   H18   S    
C31   C33   A    
C51   C52   S    
C32   C35   A    
C40   H10   S    
C18   C28   S    
C24   C25   S    
C24   H34   S    
C60   H58   S    
C49   H30   S    
C5    C7    A    
C68   C69   S    
C6    C8    A    
C66   H71   S    
C20   C28   S    
C52   H39   S    
C58   C59   S    
C5    N1    A    
C29   H45   S    
C1    C32   S    
C43   H19   S    
C29   C45   A    
C39   H7    S    
C49   H31   S    
C64   O9    S    
C3    C9    A    
C50   H33   S    
C65   H69   S    
C50   H32   S    
C46   H22   S    
C21   H12   S    
C52   H38   S    
C23   C34   A    
C54   H43   S    
C3    N1    A    
C70   H80   S    
C43   H17   S    
C19   O16   A    
C16   H3    S    
C9    C11   A    
C68   H75   S    
O1    Zn1   S    
C57   H48   S    
C23   C36   A    
C53   H40   S    
C48   C49   S    
C4    N2    A    
C20   C22   S    
C65   C66   S    
C8    C15   A    
C22   C27   S    
C37   C71   A    
C12   C31   S    
C50   H35   S    
C25   C27   S    
C42   C43   S    
C4    C10   A    
C2    C71   A    
C39   C40   S    
C67   H67   S    
C53   H42   S    
C64   H68   S    
O17   Zn2   S    
N1    Zn1   S    
C69   H76   S    
C54   C55   S    
N2    Zn2   S    
C58   H52   S    
C40   H9    S    
C60   H55   S    
C70   H79   S    
C24   C28   S    
C10   C13   A    
C60   H57   S    
C12   O12   A    
C34   C37   A    
C54   O6    S    
C38   H6    S    
O15   Zn2   S    
C26   C28   S    
C47   H25   S    
C69   H77   S    
C39   H8    S    
C62   H62   S    
C55   C57   S    
C64   H66   S    
C29   C31   A    
C59   H53   S    
C64   C65   S    
C42   H16   S    
C30   C32   A    
C65   H70   S    
C11   C13   A    
C30   C56   A    
C48   H29   S    
C1    O1    A    
O13   Zn2   S    
C20   H1    S    
C26   O2    S    
C69   C70   S    
C61   H59   S    
C57   H49   S    
C41   O2    S    
C18   O17   A    
C15   H2    S    
C46   H24   S    
C49   C50   S    
C22   C26   S    
C21   C24   S    
C44   O3    S    
C63   H64   S    
C42   H15   S    
C6    N2    A    
C41   H13   S    
C33   O3    S    
C63   H63   S    
O11   Zn2   S    
C55   H46   S    
C68   O10   S    
