data_mof_unit_30438.cif
_audit_creation_date              2012-10-26T20:22:32-0400
_audit_creation_method            fapswitch 2.2
_symmetry_space_group_name_H-M    P1
_symmetry_Int_Tables_number       1
_space_group_crystal_system       triclinic
_cell_length_a                    9.524405
_cell_length_b                    10.880664
_cell_length_c                    17.273252
_cell_angle_alpha                 90.602731
_cell_angle_beta                  84.447323
_cell_angle_gamma                 90.972973
_cell_volume                      1781.33175243

loop_
_atom_site_label
_atom_site_type_symbol
_atom_type_description
_atom_site_fract_x
_atom_site_fract_y
_atom_site_fract_z
_atom_type_partial_charge
C1    C     C_R   0.501712 0.737919 0.500397 0.562199
C2    C     C_R   0.083234 0.436613 0.444501 0.011662
C3    C     C_R   0.066556 0.564317 0.555913 0.400438
C4    C     C_R   0.933961 0.435961 0.444143 0.390506
C5    C     C_R   0.479701 0.497864 0.650045 0.559538
C6    C     C_R   0.520589 0.502961 0.349930 0.557892
C7    C     C_R   0.465544 0.498045 0.734864 -0.022648
C8    C     C_R   0.537508 0.501106 0.265041 -0.016131
C9    C     C_R   0.559214 0.572143 0.772996 -0.170098
C10   C     C_R   0.441899 0.430760 0.226000 -0.168699
C11   C     C_R   0.552112 0.574249 0.853466 -0.164644
C12   C     C_R   0.497889 0.262119 0.502419 0.556782
C13   C     C_R   0.455858 0.424399 0.145495 -0.170337
C14   C     C_R   0.453268 0.499880 0.897189 0.017861
C15   C     C_R   0.566286 0.487416 0.102470 0.015584
C16   C     C_R   0.358829 0.424261 0.859717 0.282509
C17   C     C_R   0.671681 0.547623 0.141411 0.299274
C18   C     C_R   0.363023 0.424810 0.778299 0.077280
C19   C     C_R   0.651579 0.562547 0.222491 0.107124
C20   C     C_2   0.449906 0.498553 0.982091 -0.132087
C21   C     C_2   0.569079 0.494576 0.017256 -0.132465
C22   C     C_3   0.325134 0.237230 0.917328 0.012376
C23   C     C_R   0.631167 0.941720 0.499721 0.082042
C24   C     C_3   0.210037 0.142230 0.942306 -0.251524
C25   C     C_3   0.272868 0.018703 0.959984 -0.479293
C26   C     C_3   0.886856 0.505107 0.076599 0.002796
C27   C     C_3   0.981670 0.475686 0.140604 -0.253786
C28   C     C_3   0.074239 0.365854 0.117682 -0.500750
C29   C     C_3   0.076584 0.626730 0.684942 0.002631
C30   C     C_3   0.011983 0.748076 0.714954 -0.273149
C31   C     C_3   0.957049 0.739607 0.800744 -0.477801
C32   C     C_3   0.888725 0.254168 0.379668 0.002392
C33   C     C_3   0.973836 0.216672 0.303778 -0.292793
C34   C     C_R   0.367906 0.058195 0.511839 0.086218
C35   C     C_3   0.994409 0.077905 0.299180 -0.443939
C36   C     C_R   0.624164 0.068413 0.502595 -0.143181
C37   C     C_R   0.374538 0.931358 0.509935 -0.125161
C38   C     C_R   0.494727 0.128242 0.505883 0.000493
C39   C     C_R   0.504360 0.871716 0.502748 -0.001061
C40   C     C_R   0.916760 0.564231 0.555109 0.007481
Cu1   Cu    Cu3+1 0.359340 0.499980 0.500000 1.052024
Cu2   Cu    Cu3+1 0.640660 0.500020 0.500000 1.043308
H1    H     H_    0.637323 0.629722 0.740296 0.130439
H2    H     H_    0.147367 0.388120 0.399523 0.124156
H3    H     H_    0.394769 0.249867 0.965025 0.131093
H4    H     H_    0.388885 0.200553 0.864714 0.152529
H5    H     H_    0.145651 0.175818 0.995048 0.163426
H6    H     H_    0.139666 0.129340 0.895040 0.198804
H7    H     H_    0.335662 0.981953 0.907527 0.157915
H8    H     H_    0.186565 0.951952 0.977774 0.157269
H9    H     H_    0.341589 0.028972 0.008153 0.152707
H10   H     H_    0.954743 0.538591 0.024930 0.162674
H11   H     H_    0.834236 0.419020 0.057677 0.115438
H12   H     H_    0.356092 0.380459 0.257892 0.126853
H13   H     H_    0.049415 0.557020 0.151467 0.193680
H14   H     H_    0.916218 0.452864 0.195361 0.195897
H15   H     H_    0.007790 0.282783 0.109353 0.144409
H16   H     H_    0.142170 0.347241 0.164698 0.139793
H17   H     H_    0.141565 0.384778 0.062978 0.174277
H18   H     H_    0.164910 0.605990 0.719976 0.181399
H19   H     H_    0.998629 0.549438 0.695156 0.123908
H20   H     H_    0.093318 0.822645 0.707657 0.199852
H21   H     H_    0.923670 0.772361 0.680788 0.178012
H22   H     H_    0.875378 0.665690 0.809425 0.147995
H23   H     H_    0.670000 0.500886 0.982480 0.141516
H24   H     H_    0.909315 0.828264 0.820622 0.160212
H25   H     H_    0.044829 0.719925 0.836474 0.158985
H26   H     H_    0.782155 0.211351 0.379625 0.164965
H27   H     H_    0.936906 0.216120 0.430358 0.147597
H28   H     H_    0.916708 0.245177 0.254010 0.172205
H29   H     H_    0.078781 0.263309 0.299119 0.153728
H30   H     H_    0.054753 0.047349 0.347213 0.198192
H31   H     H_    0.054326 0.053551 0.242911 0.154209
H32   H     H_    0.890655 0.028979 0.303003 0.188803
H33   H     H_    0.347673 0.494372 0.015580 0.149165
H34   H     H_    0.380999 0.369019 0.116677 0.116704
H35   H     H_    0.623820 0.634354 0.881615 0.129597
H36   H     H_    0.722120 0.120236 0.501743 0.154821
H37   H     H_    0.276209 0.879210 0.514406 0.193754
H38   H     H_    0.852369 0.618097 0.597219 0.125402
I1    I     I_    0.788051 0.688799 0.275959 -0.289014
I2    I     I_    0.220129 0.305144 0.724963 -0.336590
I3    I     I_    0.840994 0.873514 0.489125 -0.365457
I4    I     I_    0.159187 0.127100 0.527308 -0.372180
N1    N     N_R   0.147930 0.499970 0.499980 -0.232588
N2    N     N_R   0.852070 0.500030 0.500020 -0.234324
O1    O     O_R   0.381260 0.680340 0.500000 -0.475704
O2    O     O_3   0.790199 0.599222 0.100525 -0.554710
O3    O     O_3   0.133916 0.639750 0.606572 -0.531365
O4    O     O_3   0.871648 0.383130 0.382439 -0.537107
O5    O     O_R   0.618740 0.319660 0.500000 -0.510548
O6    O     O_R   0.618830 0.680370 0.500010 -0.470375
O7    O     O_R   0.381170 0.319630 0.499990 -0.470359
O8    O     O_R   0.367440 0.500000 0.613600 -0.444551
O9    O     O_R   0.632560 0.500000 0.386400 -0.423448
O10   O     O_R   0.605010 0.500030 0.613600 -0.525956
O11   O     O_R   0.394990 0.499970 0.386400 -0.526940
O12   O     O_3   0.261220 0.349902 0.902404 -0.572028

loop_
_geom_bond_atom_site_label_1
_geom_bond_atom_site_label_2
_ccdc_geom_bond_type
C1    O1    A    
C31   H24   S    
C35   H32   S    
C22   O12   S    
C3    N1    A    
C34   C37   A    
Cu1   Cu2   S    
C12   O5    A    
C29   O3    S    
C5    O8    A    
C28   H15   S    
C31   H25   S    
C37   H37   S    
C26   C27   S    
C23   I3    S    
Cu2   O10   S    
C30   C31   S    
C33   C35   S    
C11   C14   A    
C27   H13   S    
C4    N2    A    
C17   O2    S    
C2    N1    A    
C7    C9    A    
Cu2   O5    S    
C40   N2    A    
C25   H8    S    
Cu1   O11   S    
C11   H35   S    
C17   C19   A    
C32   O4    S    
C2    H2    S    
C40   H38   S    
Cu2   N2    S    
Cu2   O6    S    
C32   H26   S    
C30   H21   S    
C34   I4    S    
C4    O4    S    
Cu1   O1    S    
C29   H19   S    
C9    H1    S    
C8    C19   A    
Cu2   O9    S    
C24   H6    S    
C6    O11   A    
C14   C20   S    
C24   C25   S    
C5    C7    S    
C33   H29   S    
C27   H14   S    
C6    C8    S    
C20   H33   S    
C2    C4    A    
C25   H9    S    
C29   C30   S    
C26   H10   S    
C13   H34   S    
Cu1   O8    S    
C29   H18   S    
C7    C18   A    
C16   C18   A    
C9    C11   A    
C33   H28   S    
C8    C10   A    
C22   H4    S    
C3    C40   A    
C23   C36   A    
C1    O6    A    
C30   H20   S    
C14   C16   A    
C12   O7    A    
C26   H11   S    
C5    O10   A    
C28   H17   S    
C15   C17   A    
C35   H31   S    
C21   H23   S    
C34   C38   A    
C24   H5    S    
C31   H22   S    
C10   C13   A    
C35   H30   S    
C32   H27   S    
C28   H16   S    
Cu1   N1    S    
C3    O3    S    
Cu1   O7    S    
C32   C33   S    
C13   C15   A    
C37   C39   A    
C36   H36   S    
C16   O12   S    
C23   C39   A    
C36   C38   A    
C18   I2    S    
C22   C24   S    
C12   C38   S    
C10   H12   S    
C25   H7    S    
C1    C39   S    
C15   C21   S    
C22   H3    S    
C20   C21   D    
C26   O2    S    
C6    O9    A    
C27   C28   S    
C19   I1    S    
