data_mof_unit_46880.cif
_audit_creation_date              2012-12-10T17:06:40-0500
_audit_creation_method            fapswitch 2.2
_symmetry_space_group_name_H-M    P1
_symmetry_Int_Tables_number       1
_space_group_crystal_system       triclinic
_cell_length_a                    14.135548
_cell_length_b                    10.732433
_cell_length_c                    10.064246
_cell_angle_alpha                 85.161305
_cell_angle_beta                  91.004667
_cell_angle_gamma                 89.953332
_cell_volume                      1521.15553237

loop_
_atom_site_label
_atom_site_type_symbol
_atom_type_description
_atom_site_fract_x
_atom_site_fract_y
_atom_site_fract_z
_atom_type_partial_charge
C1    C     C_R   0.504193 0.263205 0.506555 0.756271
C2    C     C_R   0.498940 0.738290 0.493324 0.783881
C3    C     C_R   0.670724 0.498706 0.501094 0.849308
C4    C     C_1   0.227792 0.498300 0.496892 -0.238154
C5    C     C_1   0.142513 0.497590 0.496723 -0.026063
C6    C     C_1   0.042640 0.497230 0.498257 0.005657
C7    C     C_1   0.957383 0.497279 0.500152 0.003506
C8    C     C_1   0.857513 0.497634 0.502125 -0.015765
C9    C     C_3   0.299419 0.822195 0.626383 0.044536
C10   C     C_3   0.232156 0.830166 0.742614 -0.310172
C11   C     C_3   0.138657 0.764274 0.718121 -0.957673
C12   C     C_1   0.772237 0.498022 0.502750 -0.213077
C13   C     C_3   0.604723 0.892108 0.297098 0.123307
C14   C     C_3   0.685634 0.844131 0.393424 -0.378982
C15   C     C_3   0.783177 0.886394 0.345370 -0.949925
C16   C     C_3   0.330119 0.128834 0.493940 -0.506480
C17   C     C_3   0.305742 0.120340 0.345957 -0.325593
C18   C     C_3   0.212968 0.187491 0.306713 -0.878974
C19   C     C_3   0.673173 0.141758 0.571638 0.082710
C20   C     C_3   0.755641 0.076466 0.650026 -0.335149
C21   C     C_3   0.846656 0.152125 0.632641 -0.963765
C22   C     C_3   0.647119 0.252327 0.962533 0.057728
C23   C     C_2   0.429921 0.931539 0.549747 0.411019
C24   C     C_3   0.752252 0.261928 0.999253 -0.344565
C25   C     C_3   0.782127 0.158070 0.104146 -0.984017
C26   C     C_3   0.402828 0.478032 0.107136 -0.186016
C27   C     C_3   0.345097 0.600145 0.095717 -0.345944
C28   C     C_3   0.240618 0.575114 0.068241 -0.917761
C29   C     C_2   0.488572 0.872602 0.471437 0.236657
C30   C     C_2   0.425514 0.067535 0.529532 0.022920
C31   C     C_2   0.508428 0.130069 0.530558 0.356554
C32   C     C_2   0.560456 0.438837 0.930649 0.494903
C33   C     C_2   0.570323 0.467038 0.075957 -0.239056
C34   C     C_R   0.329288 0.499204 0.498975 0.859330
H1    H     H_    0.471777 0.579648 0.886811 0.146935
H2    H     H_    0.632076 0.968758 0.227210 0.169387
H3    H     H_    0.582126 0.819158 0.231431 0.151941
H4    H     H_    0.674799 0.874544 0.494133 0.246608
H5    H     H_    0.685104 0.740735 0.402318 0.203902
H6    H     H_    0.794568 0.859828 0.242539 0.264971
H7    H     H_    0.838538 0.840837 0.412534 0.267738
H8    H     H_    0.790117 0.989103 0.347567 0.273739
H9    H     H_    0.154198 0.146529 0.367783 0.265291
H10   H     H_    0.219122 0.288630 0.321056 0.266253
H11   H     H_    0.196336 0.177414 0.199928 0.247076
H12   H     H_    0.639234 0.454779 0.123958 0.162228
H13   H     H_    0.363141 0.163487 0.283603 0.240844
H14   H     H_    0.299357 0.020580 0.325090 0.216439
H15   H     H_    0.274344 0.082481 0.556465 0.217772
H16   H     H_    0.328745 0.228027 0.517100 0.206053
H17   H     H_    0.665378 0.234009 0.612731 0.168380
H18   H     H_    0.690761 0.155333 0.464001 0.139843
H19   H     H_    0.738409 0.064778 0.757594 0.222737
H20   H     H_    0.768315 0.982464 0.616576 0.230399
H21   H     H_    0.866479 0.162400 0.525941 0.267670
H22   H     H_    0.904961 0.103251 0.691297 0.267211
H23   H     H_    0.309381 0.722879 0.608738 0.171620
H24   H     H_    0.837422 0.246328 0.668544 0.269843
H25   H     H_    0.636582 0.166642 0.909519 0.171355
H26   H     H_    0.602994 0.238282 0.053343 0.132274
H27   H     H_    0.795003 0.255443 0.908529 0.232631
H28   H     H_    0.767281 0.353632 0.038418 0.219304
H29   H     H_    0.742416 0.166579 0.197223 0.263374
H30   H     H_    0.858924 0.165914 0.126916 0.272991
H31   H     H_    0.768314 0.065087 0.067041 0.263062
H32   H     H_    0.231645 0.531635 0.972479 0.268657
H33   H     H_    0.211006 0.512054 0.150363 0.269565
H34   H     H_    0.265871 0.870095 0.534668 0.108952
H35   H     H_    0.200690 0.664642 0.061232 0.256657
H36   H     H_    0.351896 0.647898 0.188939 0.252523
H37   H     H_    0.371944 0.666250 0.014609 0.197631
H38   H     H_    0.393785 0.427567 0.016493 0.126934
H39   H     H_    0.371417 0.410693 0.183230 0.218409
H40   H     H_    0.265912 0.786139 0.835514 0.236755
H41   H     H_    0.217999 0.930028 0.756741 0.214195
H42   H     H_    0.090388 0.776353 0.801960 0.263603
H43   H     H_    0.150940 0.662721 0.712354 0.274970
H44   H     H_    0.104294 0.804451 0.623977 0.266462
N1    N     N_2   0.500930 0.501330 0.852150 -0.210955
N2    N     N_2   0.500950 0.501360 0.147810 -0.100139
O1    O     O_R   0.499990 0.319060 0.613040 -0.582471
O2    O     O_3   0.525555 0.942673 0.359513 -0.679846
O3    O     O_3   0.589520 0.069283 0.587946 -0.655842
O4    O     O_3   0.620200 0.355901 0.873512 -0.608366
O5    O     O_R   0.500010 0.319100 0.386900 -0.618077
O6    O     O_R   0.373700 0.499980 0.613090 -0.595991
O7    O     O_R   0.373730 0.500020 0.386960 -0.606840
O8    O     O_R   0.499990 0.680900 0.613100 -0.576035
O9    O     O_R   0.500010 0.680940 0.386960 -0.625815
O10   O     O_R   0.626270 0.499980 0.613040 -0.547812
O11   O     O_R   0.626300 0.500020 0.386910 -0.602089
O12   O     O_3   0.387900 0.872568 0.661522 -0.643902
Zn1   Zn    Zn3+2 0.499980 0.499970 0.650990 0.983718
Zn2   Zn    Zn3+2 0.500020 0.500030 0.349010 0.904122

loop_
_geom_bond_atom_site_label_1
_geom_bond_atom_site_label_2
_ccdc_geom_bond_type
C24   H27   S    
C26   H38   S    
C28   H35   S    
C17   H14   S    
C7    C8    S    
C26   C27   S    
C2    C29   S    
C23   C29   D    
C11   H44   S    
C16   H16   S    
N1    Zn1   S    
C11   H42   S    
C22   H26   S    
C30   C31   D    
C16   C30   S    
O7    Zn2   S    
C1    C31   S    
C26   H39   S    
C31   O3    S    
C3    O11   A    
C25   H29   S    
O9    Zn2   S    
C3    C12   S    
C11   H43   S    
C14   H5    S    
C19   H18   S    
C19   C20   S    
C16   C17   S    
C2    O8    A    
C9    C10   S    
C13   H3    S    
C13   C14   S    
C33   H12   S    
C19   O3    S    
C9    O12   S    
C1    O5    A    
C32   O4    S    
C4    C34   S    
C23   C30   S    
C28   H33   S    
C25   H31   S    
C16   H15   S    
C15   H7    S    
C13   H2    S    
C20   H20   S    
C22   H25   S    
C21   H21   S    
C4    C5    T    
C13   O2    S    
C26   N2    S    
C25   H30   S    
C22   O4    S    
C2    O9    A    
C28   H32   S    
O6    Zn1   S    
C18   H10   S    
C14   H4    S    
O1    Zn1   S    
O5    Zn2   S    
C8    C12   T    
C17   C18   S    
C24   C25   S    
C27   H36   S    
C3    O10   A    
C22   C24   S    
N2    Zn2   S    
C18   H11   S    
C27   H37   S    
O10   Zn1   S    
O8    Zn1   S    
C24   H28   S    
C23   O12   S    
C17   H13   S    
C15   H8    S    
C20   H19   S    
C21   H22   S    
C33   N2    D    
C6    C7    T    
C34   O6    A    
C32   C33   S    
C9    H34   S    
C29   O2    S    
C18   H9    S    
C32   N1    D    
C10   H40   S    
C5    C6    S    
H1    N1    S    
C9    H23   S    
C34   O7    A    
C15   H6    S    
C10   C11   S    
C19   H17   S    
C21   H24   S    
C20   C21   S    
C27   C28   S    
C14   C15   S    
C1    O1    A    
O11   Zn2   S    
C10   H41   S    
