data_mof_unit_41578.cif
_audit_creation_date              2012-10-26T19:54:51-0400
_audit_creation_method            fapswitch 2.2
_symmetry_space_group_name_H-M    P1
_symmetry_Int_Tables_number       1
_space_group_crystal_system       triclinic
_cell_length_a                    17.759773
_cell_length_b                    16.437334
_cell_length_c                    10.837358
_cell_angle_alpha                 89.158786
_cell_angle_beta                  89.420094
_cell_angle_gamma                 89.647177
_cell_volume                      3163.11740167

loop_
_atom_site_label
_atom_site_type_symbol
_atom_type_description
_atom_site_fract_x
_atom_site_fract_y
_atom_site_fract_z
_atom_type_partial_charge
C1    C     C_R   0.355556 0.500327 0.499803 0.579656
C2    C     C_R   0.537297 0.170276 0.593541 -0.008032
C3    C     C_R   0.548301 0.741425 0.573964 0.068153
C4    C     C_R   0.464432 0.258592 0.408567 0.064176
C5    C     C_R   0.451962 0.743391 0.425454 0.066490
C6    C     C_R   0.536581 0.256352 0.590299 0.070066
C7    C     C_R   0.500443 0.872829 0.499011 -0.042381
C8    C     C_R   0.500944 0.127063 0.498820 -0.036956
C9    C     C_1   0.500661 0.962715 0.498731 -0.063323
C10   C     C_1   0.500869 0.037178 0.498724 -0.060296
C11   C     C_R   0.508520 0.500773 0.261726 0.582325
C12   C     C_R   0.644450 0.499676 0.500015 0.580205
C13   C     C_R   0.490788 0.499277 0.737986 0.582187
C14   C     C_R   0.516221 0.654434 0.107688 -0.070988
C15   C     C_R   0.478280 0.346290 0.892556 -0.077538
C16   C     C_R   0.444290 0.643148 0.882663 -0.067332
C17   C     C_R   0.551939 0.356327 0.116225 -0.075987
C18   C     C_R   0.489999 0.724598 0.048110 -0.086340
C19   C     C_R   0.502449 0.275569 0.952940 -0.068696
C20   C     C_R   0.451272 0.718574 0.938075 -0.083175
C21   C     C_R   0.542342 0.280872 0.061963 -0.067337
C22   C     C_R   0.476038 0.572105 0.937191 0.005447
C23   C     C_R   0.885447 0.491254 0.489620 0.021226
C24   C     C_R   0.521036 0.427973 0.062127 0.003536
C25   C     C_R   0.503155 0.576236 0.058590 0.010656
C26   C     C_R   0.493444 0.424090 0.941089 0.011304
C27   C     C_R   0.480841 0.497551 0.873809 0.006371
C28   C     C_R   0.516987 0.502672 0.125597 0.004722
C29   C     C_R   0.846434 0.536727 0.398764 -0.025962
C30   C     C_R   0.153198 0.464255 0.599753 -0.025458
C31   C     C_R   0.154379 0.552760 0.414911 0.007529
C32   C     C_R   0.845983 0.446225 0.581382 0.008154
C33   C     C_R   0.767135 0.541096 0.403722 -0.027919
C34   C     C_R   0.114550 0.508758 0.507383 0.020203
C35   C     C_R   0.232514 0.459935 0.595775 -0.027902
C36   C     C_R   0.233932 0.548977 0.411203 -0.050428
C37   C     C_R   0.766443 0.449951 0.585965 -0.050539
C38   C     C_R   0.727373 0.498112 0.497748 -0.016916
C39   C     C_R   0.272639 0.501896 0.501141 -0.016755
C40   C     C_2   0.888122 0.576874 0.294758 0.278259
C41   C     C_2   0.111122 0.425056 0.704199 0.278284
C42   C     C_2   0.112925 0.600414 0.319318 0.336966
C43   C     C_2   0.887780 0.397565 0.675465 0.335809
C44   C     C_2   0.726133 0.586830 0.305517 0.235934
C45   C     C_1   0.966356 0.497196 0.495471 0.136132
C46   C     C_2   0.273176 0.415416 0.695550 0.234461
C47   C     C_2   0.277778 0.592872 0.312855 0.221533
C48   C     C_2   0.723005 0.404832 0.683509 0.227451
C49   C     C_2   0.605774 0.868312 0.654805 0.225917
C50   C     C_2   0.428608 0.131984 0.298624 0.217986
C51   C     C_2   0.395331 0.872551 0.342777 0.232413
C52   C     C_2   0.575896 0.126918 0.696304 0.222893
C53   C     C_1   0.033653 0.502903 0.501005 0.135514
C54   C     C_R   0.550503 0.827405 0.575051 -0.013501
C55   C     C_R   0.464883 0.172650 0.403909 -0.011031
C56   C     C_R   0.450198 0.829448 0.423362 -0.015275
Cu1   Cu    Cu3+1 0.500000 0.580420 0.500000 0.967801
Cu2   Cu    Cu3+1 0.500000 0.419580 0.500000 0.970486
H1    H     H_    0.564178 0.226326 0.106297 0.144339
H2    H     H_    0.436049 0.293807 0.337736 0.179257
H3    H     H_    0.414371 0.709543 0.367667 0.190218
H4    H     H_    0.565060 0.289880 0.660989 0.182026
H5    H     H_    0.870485 0.635897 0.259368 0.114085
H6    H     H_    0.128932 0.366610 0.741540 0.113064
H7    H     H_    0.131507 0.599495 0.223669 0.159594
H8    H     H_    0.869159 0.396938 0.771128 0.159551
H9    H     H_    0.743518 0.647675 0.278435 0.096714
H10   H     H_    0.255970 0.354718 0.723748 0.096038
H11   H     H_    0.329029 0.566036 0.275656 0.113450
H12   H     H_    0.428242 0.772610 0.893948 0.138905
H13   H     H_    0.672218 0.431465 0.722708 0.114524
H14   H     H_    0.613199 0.933563 0.649222 0.125381
H15   H     H_    0.432836 0.066728 0.288302 0.119249
H16   H     H_    0.388393 0.937896 0.347302 0.118596
H17   H     H_    0.569660 0.061883 0.709151 0.115031
H18   H     H_    0.491172 0.216685 0.913971 0.151555
H19   H     H_    0.498986 0.783619 0.088316 0.141267
H20   H     H_    0.549213 0.663100 0.189491 0.171942
H21   H     H_    0.445190 0.338718 0.810524 0.167520
H22   H     H_    0.412621 0.640842 0.798065 0.163288
H23   H     H_    0.584558 0.358017 0.199868 0.161274
H24   H     H_    0.585937 0.706064 0.631832 0.178607
N1    N     N_R   0.500000 0.701220 0.500000 -0.277117
N2    N     N_R   0.500000 0.298780 0.500000 -0.273558
O1    O     O_R   0.391260 0.567930 0.500000 -0.499998
O2    O     O_2   0.057443 0.459317 0.752395 -0.455599
O3    O     O_2   0.059141 0.643128 0.347449 -0.452099
O4    O     O_2   0.941928 0.355770 0.646048 -0.455392
O5    O     O_2   0.674041 0.555718 0.251331 -0.511527
O6    O     O_2   0.324768 0.447433 0.749764 -0.514320
O7    O     O_2   0.258964 0.660463 0.276004 -0.451482
O8    O     O_2   0.741594 0.336503 0.717346 -0.454209
O9    O     O_2   0.644285 0.829355 0.727652 -0.494275
O10   O     O_2   0.393988 0.171170 0.220912 -0.505244
O11   O     O_2   0.356654 0.835342 0.270368 -0.458273
O12   O     O_R   0.608740 0.432070 0.500000 -0.491434
O13   O     O_2   0.615179 0.163537 0.768527 -0.475563
O14   O     O_R   0.608740 0.567930 0.500000 -0.490169
O15   O     O_R   0.391260 0.432070 0.500000 -0.485375
O16   O     O_R   0.500000 0.567910 0.319660 -0.512591
O17   O     O_R   0.500000 0.432090 0.680340 -0.518723
O18   O     O_R   0.500000 0.567910 0.680340 -0.518796
O19   O     O_R   0.500000 0.432090 0.319660 -0.525705
O20   O     O_2   0.941251 0.542768 0.244724 -0.454211

loop_
_geom_bond_atom_site_label_1
_geom_bond_atom_site_label_2
_ccdc_geom_bond_type
C23   C45   S    
C31   C42   S    
C14   C18   A    
C5    C56   A    
C51   H16   S    
C52   H17   S    
C1    O15   A    
C25   C28   A    
C15   C19   A    
Cu1   O18   S    
C26   C27   A    
C40   H5    S    
C30   C35   A    
C43   O4    D    
C23   C29   A    
C19   H18   S    
C19   C21   A    
C24   C26   A    
C21   H1    S    
C18   H19   S    
C5    N1    A    
C3    C54   A    
C49   C54   S    
C29   C33   A    
C52   O13   D    
C36   C47   S    
C51   C56   S    
Cu2   O12   S    
C47   H11   S    
C15   H21   S    
C22   C25   A    
C42   H7    S    
Cu1   N1    S    
C30   C41   S    
C9    C10   T    
C17   H23   S    
C45   C53   T    
C20   H12   S    
C2    C6    A    
C7    C56   A    
C8    C55   A    
C1    O1    A    
C17   C24   A    
C6    N2    A    
C30   C34   A    
C50   H15   S    
C50   O10   D    
C15   C26   A    
Cu1   O16   S    
C49   H14   S    
C17   C21   A    
C11   O16   A    
C16   H22   S    
C35   C39   A    
C46   H10   S    
C37   C38   A    
C41   O2    D    
Cu2   N2    S    
C40   O20   D    
C4    N2    A    
C16   C20   A    
C50   C55   S    
C4    H2    S    
C3    H24   S    
C31   C34   A    
C5    H3    S    
Cu2   O17   S    
C32   C37   A    
C13   C27   S    
C37   C48   S    
C2    C52   S    
C22   C27   A    
C4    C55   A    
C3    N1    A    
C48   H13   S    
C13   O17   A    
C7    C9    S    
C16   C22   A    
C33   C44   S    
C47   O7    D    
C36   C39   A    
C2    C8    A    
Cu2   O15   S    
C24   C28   A    
C46   O6    D    
C33   C38   A    
C7    C54   A    
C23   C32   A    
C6    H4    S    
Cu1   Cu2   S    
C11   C28   S    
C43   H8    S    
Cu1   O14   S    
C29   C40   S    
C32   C43   S    
Cu1   O1    S    
C18   C20   A    
C14   H20   S    
C14   C25   A    
C12   C38   S    
C42   O3    D    
C1    C39   S    
C34   C53   S    
C8    C10   S    
C48   O8    D    
C12   O14   A    
C31   C36   A    
C12   O12   A    
C44   H9    S    
C11   O19   A    
Cu2   O19   S    
C41   H6    S    
C49   O9    D    
C13   O18   A    
C35   C46   S    
C44   O5    D    
C51   O11   D    
