data_mof_unit_58828.cif
_audit_creation_date              2012-12-10T20:27:57-0500
_audit_creation_method            fapswitch 2.2
_symmetry_space_group_name_H-M    P1
_symmetry_Int_Tables_number       1
_space_group_crystal_system       triclinic
_cell_length_a                    12.920804
_cell_length_b                    10.699067
_cell_length_c                    9.944355
_cell_angle_alpha                 89.947978
_cell_angle_beta                  94.243622
_cell_angle_gamma                 89.442741
_cell_volume                      1370.87753948

loop_
_atom_site_label
_atom_site_type_symbol
_atom_type_description
_atom_site_fract_x
_atom_site_fract_y
_atom_site_fract_z
_atom_type_partial_charge
C1    C     C_R   0.495829 0.260579 0.499740 0.919652
C2    C     C_R   0.475638 0.937900 0.370309 0.528047
C3    C     C_R   0.483971 0.872450 0.494801 -0.196275
C4    C     C_R   0.299142 0.499675 0.476002 0.895427
C5    C     C_R   0.469471 0.936813 0.614055 0.010946
C6    C     C_3   0.523816 0.931469 0.752741 0.044459
C7    C     C_3   0.516297 0.073431 0.753561 -0.453066
C8    C     C_R   0.428716 0.566820 0.064471 -0.043316
C9    C     C_R   0.569027 0.427177 0.076279 0.189438
C10   C     C_R   0.570956 0.431168 0.933787 -0.169288
C11   C     C_R   0.428498 0.567772 0.922674 0.059665
C12   C     C_R   0.025327 0.554491 0.542555 0.024697
C13   C     C_3   0.312071 0.560666 0.901489 0.865397
C14   C     C_3   0.312807 0.554265 0.057403 0.184831
C15   C     C_R   0.498227 0.740069 0.499148 0.907857
C16   C     C_R   0.701209 0.506330 0.522980 0.926813
C17   C     C_R   0.812144 0.524838 0.529383 -0.190665
C18   C     C_R   0.188525 0.496204 0.462274 -0.103370
C19   C     C_R   0.032235 0.421040 0.342465 0.530394
C20   C     C_R   0.139883 0.420370 0.363243 -0.292517
C21   C     C_R   0.131837 0.565671 0.549335 -0.263582
C22   C     C_3   0.818037 0.575791 0.212542 -0.188397
C23   C     C_R   0.975059 0.489286 0.433305 -0.060072
C24   C     C_3   0.198400 0.738285 0.893850 -0.500470
C25   C     C_3   0.177653 0.422441 0.828376 -0.251703
C26   C     C_3   0.327412 0.330634 0.095006 -0.266405
C27   C     C_3   0.019572 0.351886 0.121686 -0.240558
C28   C     C_3   0.397188 0.889559 0.164186 -0.309556
C29   C     C_R   0.867734 0.493538 0.417696 0.504949
C30   C     C_R   0.862781 0.580999 0.642775 -0.245834
C31   C     C_R   0.968397 0.603754 0.644853 -0.190021
C32   C     C_R   0.464083 0.064081 0.614785 0.063626
C33   C     C_R   0.478011 0.129935 0.496985 -0.141521
C34   C     C_R   0.473842 0.067352 0.373388 -0.310127
H1    H     H_    0.462892 0.109995 0.827267 0.182676
H2    H     H_    0.475409 0.886923 0.826947 0.157253
H3    H     H_    0.777153 0.555277 0.113126 0.188219
H4    H     H_    0.898359 0.604212 0.193934 0.124615
H5    H     H_    0.775991 0.654526 0.258270 0.163993
H6    H     H_    0.234206 0.806792 0.966236 0.175911
H7    H     H_    0.143908 0.678158 0.945317 0.159293
H8    H     H_    0.152089 0.792431 0.815131 0.220936
H9    H     H_    0.155246 0.370070 0.734732 0.188431
H10   H     H_    0.126768 0.505637 0.829858 0.154047
H11   H     H_    0.161969 0.359640 0.912425 0.171938
H12   H     H_    0.592302 0.121473 0.755308 0.229459
H13   H     H_    0.378489 0.313686 0.186984 0.211551
H14   H     H_    0.373158 0.326883 0.005306 0.181786
H15   H     H_    0.272708 0.251397 0.086573 0.137263
H16   H     H_    0.087270 0.288499 0.114055 0.162244
H17   H     H_    0.039550 0.449902 0.096415 0.146618
H18   H     H_    0.958244 0.321425 0.045095 0.195209
H19   H     H_    0.329821 0.849737 0.212607 0.144033
H20   H     H_    0.407675 0.835788 0.070902 0.188570
H21   H     H_    0.380843 0.988058 0.133193 0.142470
H22   H     H_    0.625550 0.373148 0.884116 0.169325
H23   H     H_    0.279664 0.636676 0.106739 0.086119
H24   H     H_    0.820202 0.611602 0.726773 0.202603
H25   H     H_    0.005978 0.653291 0.729515 0.150496
H26   H     H_    0.185628 0.358215 0.305391 0.200357
H27   H     H_    0.170887 0.623991 0.625076 0.229352
H28   H     H_    0.478755 0.117502 0.279581 0.191668
I1    I     I_    0.682246 0.866700 0.760294 -0.385893
I2    I     I_    0.658256 0.280717 0.170553 -0.261324
N1    N     N_R   0.499290 0.499140 0.142710 -0.108907
N2    N     N_R   0.499290 0.499180 0.857070 -0.104066
O1    O     O_R   0.500010 0.316790 0.614690 -0.617355
O2    O     O_3   0.276650 0.671271 0.831678 -0.637044
O3    O     O_3   0.284507 0.449432 0.830055 -0.595296
O4    O     O_3   0.269798 0.442861 0.108628 -0.614989
O5    O     O_3   0.981345 0.340660 0.250347 -0.552772
O6    O     O_3   0.489129 0.878350 0.249100 -0.561203
O7    O     O_R   0.500000 0.316760 0.385350 -0.634058
O8    O     O_R   0.346360 0.499990 0.595720 -0.551443
O9    O     O_R   0.346350 0.499960 0.366370 -0.602782
O10   O     O_R   0.500000 0.683240 0.614650 -0.599140
O11   O     O_R   0.499990 0.683210 0.385310 -0.572252
O12   O     O_R   0.653650 0.500040 0.633630 -0.629079
O13   O     O_R   0.653640 0.500010 0.404280 -0.555587
O14   O     O_3   0.817740 0.467216 0.293556 -0.534657
Zn1   Zn    Zn3+2 0.500010 0.500020 0.653130 1.011061
Zn2   Zn    Zn3+2 0.499990 0.499980 0.346870 1.010891

loop_
_geom_bond_atom_site_label_1
_geom_bond_atom_site_label_2
_ccdc_geom_bond_type
C24   H7    S    
C18   C21   A    
C24   H8    S    
C19   O5    S    
C19   C20   A    
C25   H9    S    
C1    C33   S    
C12   C23   A    
C4    O8    A    
C5    C6    S    
C23   C29   A    
C30   C31   A    
C9    I2    S    
C34   H28   S    
C17   C29   A    
C31   H25   S    
C4    O9    A    
C24   H6    S    
C16   C17   S    
C20   H26   S    
C10   H22   S    
C9    C10   A    
C21   H27   S    
C27   H16   S    
C26   H14   S    
C5    C32   A    
C4    C18   S    
C2    C34   A    
C15   O10   A    
C8    N1    A    
C13   C14   S    
C17   C30   A    
C14   O4    S    
C28   O6    S    
C2    O6    S    
C25   H10   S    
C28   H21   S    
C27   H17   S    
C10   N2    A    
C7    H12   S    
C26   H15   S    
C28   H20   S    
C22   H3    S    
C12   C21   A    
C27   O5    S    
C6    I1    S    
C19   C23   A    
C33   C34   A    
C26   H13   S    
O1    Zn1   S    
C12   C31   A    
C26   O4    S    
C25   O3    S    
O8    Zn1   S    
C25   H11   S    
O7    Zn2   S    
C3    C15   S    
C27   H18   S    
C16   O12   A    
C14   H23   S    
C8    C14   S    
C7    C32   S    
C7    H1    S    
C3    C5    A    
O10   Zn1   S    
O13   Zn2   S    
C28   H19   S    
C11   N2    A    
O9    Zn2   S    
C6    C7    S    
C16   O13   A    
C1    O7    A    
C32   C33   A    
C2    C3    A    
C22   O14   S    
N2    Zn1   S    
C11   C13   S    
O12   Zn1   S    
N1    Zn2   S    
C15   O11   A    
C29   O14   S    
C13   O3    S    
O11   Zn2   S    
C8    C11   A    
C22   H5    S    
C30   H24   S    
C1    O1    A    
C6    H2    S    
C18   C20   A    
C9    N1    A    
C24   O2    S    
C13   O2    S    
C22   H4    S    
