data_mof_unit_10763.cif
_audit_creation_date              2012-12-10T20:36:38-0500
_audit_creation_method            fapswitch 2.2
_symmetry_space_group_name_H-M    P1
_symmetry_Int_Tables_number       1
_space_group_crystal_system       triclinic
_cell_length_a                    10.517032
_cell_length_b                    10.691981
_cell_length_c                    9.893042
_cell_angle_alpha                 89.655657
_cell_angle_beta                  89.902476
_cell_angle_gamma                 90.237804
_cell_volume                      1112.42052904

loop_
_atom_site_label
_atom_site_type_symbol
_atom_type_description
_atom_site_fract_x
_atom_site_fract_y
_atom_site_fract_z
_atom_type_partial_charge
C1    C     C_R   0.498871 0.260246 0.500353 0.900616
C2    C     C_3   0.959452 0.485664 0.370128 -0.223677
C3    C     C_3   0.042627 0.391499 0.449024 0.243262
C4    C     C_3   0.122970 0.500512 0.500716 -0.091822
C5    C     C_R   0.425620 0.061616 0.597684 0.084612
C6    C     C_R   0.491954 0.128276 0.498178 -0.097488
C7    C     C_R   0.541179 0.065510 0.385521 -0.172611
C8    C     C_R   0.540917 0.936466 0.384128 -0.198384
C9    C     C_R   0.491841 0.870994 0.495633 -0.074132
C10   C     C_R   0.426449 0.934116 0.595974 0.091144
C11   C     C_3   0.423627 0.921222 0.746293 -0.530217
C12   C     C_R   0.257646 0.500703 0.500222 0.923613
C13   C     C_3   0.419320 0.064174 0.749582 -0.053043
C14   C     C_R   0.409799 0.434116 0.071874 0.238006
C15   C     C_R   0.592078 0.560194 0.072016 -0.165361
C16   C     C_R   0.591370 0.561915 0.928489 0.014905
C17   C     C_R   0.409365 0.434839 0.929123 0.208094
C18   C     C_3   0.270364 0.461799 0.925694 -0.526709
C19   C     C_3   0.270382 0.457503 0.078486 -0.468660
C20   C     C_R   0.499969 0.739553 0.499380 0.880561
C21   C     C_R   0.742417 0.499089 0.499612 0.893537
C22   C     C_3   0.040240 0.513237 0.628032 -0.220769
C23   C     C_3   0.958671 0.404515 0.574881 -0.019421
C24   C     C_3   0.877150 0.498417 0.498094 -0.075592
C25   C     C_3   0.956932 0.608476 0.549811 -0.189540
C26   C     C_3   0.041250 0.594167 0.423753 -0.011710
H1    H     H_    0.512883 0.879871 0.786740 0.213225
H2    H     H_    0.664327 0.611402 0.126853 0.151834
H3    H     H_    0.250038 0.556667 0.884624 0.212710
H4    H     H_    0.214250 0.385430 0.879347 0.227420
H5    H     H_    0.246801 0.548918 0.125068 0.223281
H6    H     H_    0.217391 0.376013 0.120632 0.244284
H7    H     H_    0.073995 0.524593 0.733224 0.164110
H8    H     H_    0.918760 0.698029 0.588442 0.170745
H9    H     H_    0.923656 0.474837 0.265288 0.172441
H10   H     H_    0.586102 0.115483 0.302485 0.175606
H11   H     H_    0.585710 0.888620 0.300441 0.167840
H12   H     H_    0.335270 0.873606 0.781744 0.205015
N1    N     N_R   0.499140 0.499140 0.142800 -0.116353
N2    N     N_R   0.499140 0.499180 0.857150 -0.131833
O1    O     O_R   0.500020 0.316790 0.614690 -0.620913
O2    O     O_R   0.500000 0.316760 0.385350 -0.606860
O3    O     O_R   0.313960 0.499990 0.614650 -0.630236
O4    O     O_R   0.313940 0.499950 0.385310 -0.610414
O5    O     O_R   0.500000 0.683240 0.614650 -0.621974
O6    O     O_R   0.499980 0.683210 0.385310 -0.624311
O7    O     O_R   0.686060 0.500050 0.614690 -0.613596
O8    O     O_R   0.686040 0.500010 0.385350 -0.630931
Zn1   Zn    Zn3+2 0.500010 0.500020 0.653130 0.966185
Zn2   Zn    Zn3+2 0.499990 0.499980 0.346870 0.966979
C27   C     C_1   0.911164 0.299761 0.657337 0.229579
N3    N     N_1   0.874037 0.216949 0.722214 -0.161161
C28   C     C_1   0.297150 0.112068 0.799358 0.212493
N4    N     N_1   0.200255 0.148040 0.838275 -0.191420
C29   C     C_1   0.529838 0.120979 0.817088 0.212159
N5    N     N_1   0.616330 0.165682 0.870765 -0.184486
C30   C     C_1   0.683545 0.638719 0.859595 0.232153
N6    N     N_1   0.757730 0.701631 0.805395 -0.224793
C31   C     C_1   0.090323 0.698648 0.341831 0.167642
N7    N     N_1   0.129242 0.780968 0.277329 -0.171594
Br1   Br    Br    0.109337 0.235753 0.379313 -0.534043

loop_
_geom_bond_atom_site_label_1
_geom_bond_atom_site_label_2
_ccdc_geom_bond_type
C2    H9    S    
C11   H12   S    
C4    C26   S    
C23   C24   S    
C31   N7    T    
C6    C7    A    
C18   H4    S    
O5    Zn1   S    
C4    C12   S    
C4    C22   S    
C26   C31   S    
O6    Zn2   S    
C9    C20   S    
C23   C27   S    
C20   O5    A    
C11   H1    S    
C25   H8    S    
C29   N5    T    
C21   O8    A    
C19   H5    S    
O8    Zn2   S    
C17   C18   S    
C30   N6    T    
C10   C11   S    
C7    C8    A    
C2    C26   S    
C18   H3    S    
O7    Zn1   S    
C28   N4    T    
C11   C13   S    
C14   C17   A    
C15   N1    A    
C15   H2    S    
O2    Zn2   S    
C19   H6    S    
C5    C13   S    
C9    C10   A    
O1    Zn1   S    
C16   N2    A    
C2    C3    S    
C12   O3    A    
C13   C28   S    
C16   C30   S    
C3    Br1   S    
C2    C24   S    
C5    C6    A    
C14   N1    A    
C8    H11   S    
O4    Zn2   S    
N2    Zn1   S    
C1    O2    A    
C5    C10   A    
N1    Zn2   S    
C24   C25   S    
C12   O4    A    
C18   C19   S    
C7    H10   S    
C21   C24   S    
C1    O1    A    
C1    C6    S    
C22   H7    S    
C22   C23   S    
O3    Zn1   S    
C13   C29   S    
C25   C26   S    
C3    C23   S    
C14   C19   S    
C22   C25   S    
C15   C16   A    
C20   O6    A    
C3    C4    S    
C27   N3    T    
C8    C9    A    
C21   O7    A    
C17   N2    A    
