data_mof_unit_59235.cif
_audit_creation_date              2012-12-10T16:49:25-0500
_audit_creation_method            fapswitch 2.2
_symmetry_space_group_name_H-M    P1
_symmetry_Int_Tables_number       1
_space_group_crystal_system       triclinic
_cell_length_a                    7.786857
_cell_length_b                    8.566246
_cell_length_c                    12.87142
_cell_angle_alpha                 89.47635
_cell_angle_beta                  88.382206
_cell_angle_gamma                 93.362375
_cell_volume                      856.707138146

loop_
_atom_site_label
_atom_site_type_symbol
_atom_type_description
_atom_site_fract_x
_atom_site_fract_y
_atom_site_fract_z
_atom_type_partial_charge
C1    C     C_R   0.454941 0.205410 0.497363 0.954653
C2    C     C_R   0.711083 0.464992 0.141274 -0.189161
C3    C     C_R   0.590439 0.476343 0.869268 -0.274758
C4    C     C_R   0.409561 0.523656 0.130731 -0.274757
C5    C     C_R   0.579116 0.483407 0.975685 0.186574
C6    C     C_R   0.420883 0.516593 0.024315 0.186574
C7    C     C_2   0.431117 0.042043 0.495770 -0.372598
C8    C     C_2   0.568883 0.957957 0.504230 -0.372599
C9    C     C_R   0.545058 0.794590 0.502637 0.954653
C10   C     C_R   0.466341 0.502023 0.699676 0.867633
C11   C     C_R   0.533659 0.497977 0.300324 0.867633
C12   C     C_R   0.553398 0.496426 0.189257 -0.046587
C13   C     C_R   0.446602 0.503574 0.810743 -0.046587
C14   C     C_R   0.276129 0.541631 0.965958 -0.228313
C15   C     C_R   0.723871 0.458369 0.034042 -0.228313
C16   C     C_R   0.288917 0.535007 0.858726 -0.189161
H1    H     H_    0.287570 0.549382 0.167626 0.165105
H2    H     H_    0.915597 0.307564 0.632257 0.329413
H3    H     H_    0.712430 0.450618 0.832374 0.165105
H4    H     H_    0.823074 0.444040 0.186306 0.175857
H5    H     H_    0.176926 0.555960 0.813694 0.175857
H6    H     H_    0.154351 0.566954 0.003078 0.140158
H7    H     H_    0.845649 0.433046 0.996922 0.140158
H8    H     H_    0.300790 0.991486 0.487618 0.190738
H9    H     H_    0.699210 0.008514 0.512382 0.190738
H10   H     H_    0.084403 0.692436 0.367743 0.329413
N1    N     N_2   0.054030 0.541640 0.471970 0.176118
N2    N     N_2   0.945970 0.458360 0.528030 0.176118
O1    O     O_R   0.609680 0.261530 0.506880 -0.634096
O2    O     O_3   0.015442 0.361795 0.595198 -0.666308
O3    O     O_R   0.390320 0.738470 0.493120 -0.634096
O4    O     O_R   0.323330 0.288220 0.488910 -0.577070
O5    O     O_R   0.676670 0.711780 0.511090 -0.577070
O6    O     O_R   0.619510 0.488830 0.661140 -0.647457
O7    O     O_R   0.380490 0.511170 0.338860 -0.647457
O8    O     O_R   0.333160 0.515520 0.643180 -0.582667
O9    O     O_R   0.666840 0.484480 0.356820 -0.582667
O10   O     O_3   0.984558 0.638205 0.404802 -0.666308
Zn1   Zn    Zn3+2 0.691200 0.482180 0.511990 1.032766
Zn2   Zn    Zn3+2 0.308800 0.517820 0.488010 1.032766

loop_
_geom_bond_atom_site_label_1
_geom_bond_atom_site_label_2
_ccdc_geom_bond_type
C8    C9    S    
C11   C12   S    
C3    H3    S    
C16   H5    S    
C8    H9    S    
C4    C12   A    
C3    C13   A    
N1    Zn2   S    
C2    C12   A    
C15   H7    S    
C14   H6    S    
C1    O1    A    
O7    Zn2   S    
C7    C8    D    
C10   O6    A    
C9    O5    A    
C2    C15   A    
O1    Zn1   S    
O5    Zn1   S    
H2    O2    S    
C4    H1    S    
C11   O7    A    
O4    Zn2   S    
C5    C6    A    
C14   C16   A    
C5    C15   A    
C4    C6    A    
C6    C14   A    
C9    O3    A    
N1    O10   S    
C2    H4    S    
C7    H8    S    
O8    Zn2   S    
O3    Zn2   S    
O9    Zn1   S    
C13   C16   A    
N1    N2    D    
C11   O9    A    
H10   O10   S    
C10   O8    A    
N2    Zn1   S    
C1    C7    S    
C1    O4    A    
O6    Zn1   S    
N2    O2    S    
C3    C5    A    
C10   C13   S    
