data_mof_unit_6470.cif
_audit_creation_date              2012-12-10T18:44:21-0500
_audit_creation_method            fapswitch 2.2
_symmetry_space_group_name_H-M    P1
_symmetry_Int_Tables_number       1
_space_group_crystal_system       triclinic
_cell_length_a                    12.832097
_cell_length_b                    10.69275
_cell_length_c                    9.842516
_cell_angle_alpha                 90.001903
_cell_angle_beta                  96.277119
_cell_angle_gamma                 90.012764
_cell_volume                      1342.39894455

loop_
_atom_site_label
_atom_site_type_symbol
_atom_type_description
_atom_site_fract_x
_atom_site_fract_y
_atom_site_fract_z
_atom_type_partial_charge
C1    C     C_R   0.499972 0.259947 0.499946 0.827058
C2    C     C_R   0.500026 0.740090 0.500054 0.875339
C3    C     C_R   0.500033 0.872558 0.500047 -0.006241
C4    C     C_R   0.499960 0.127581 0.499951 0.007138
C5    C     C_R   0.500589 0.609833 0.071884 -0.054710
C6    C     C_R   0.499895 0.390178 0.928211 -0.084984
C7    C     C_R   0.500363 0.609803 0.928215 -0.055112
C8    C     C_R   0.499225 0.390211 0.071704 -0.085871
C9    C     C_R   0.298291 0.491026 0.474516 0.900280
C10   C     C_R   0.701705 0.491064 0.525473 0.900264
C11   C     C_R   0.812507 0.462921 0.539097 -0.178983
C12   C     C_R   0.187471 0.462931 0.460832 -0.179023
C13   C     C_R   0.024258 0.442976 0.317109 -0.192347
C14   C     C_R   0.975706 0.442642 0.682775 -0.192348
C15   C     C_R   0.131385 0.461089 0.330637 -0.287940
C16   C     C_R   0.868591 0.460816 0.669289 -0.287958
C17   C     C_R   0.136942 0.435528 0.577779 0.441265
C18   C     C_R   0.863018 0.435716 0.422082 0.441178
C19   C     C_R   0.028329 0.436401 0.565671 0.010434
C20   C     C_R   0.971631 0.436531 0.434198 0.010453
C21   C     C_R   0.533608 0.064154 0.388663 -0.208201
C22   C     C_R   0.466318 0.936035 0.611300 -0.195373
C23   C     C_R   0.533715 0.936023 0.388747 -0.195137
C24   C     C_R   0.466343 0.064166 0.611282 -0.207907
H1    H     H_    0.830099 0.475076 0.760682 0.193782
H2    H     H_    0.169885 0.475513 0.239277 0.193832
H3    H     H_    0.982391 0.443265 0.215385 0.192672
H4    H     H_    0.017576 0.442724 0.784499 0.192655
H5    H     H_    0.560646 0.113266 0.302802 0.140740
H6    H     H_    0.439127 0.886968 0.697096 0.149663
H7    H     H_    0.560931 0.886947 0.302980 0.149542
H8    H     H_    0.439282 0.113287 0.697116 0.140632
H9    H     H_    0.501075 0.697958 0.125667 0.125090
H10   H     H_    0.500089 0.302028 0.874572 0.118782
H11   H     H_    0.500659 0.697911 0.874517 0.125248
H12   H     H_    0.498351 0.302086 0.125277 0.119347
N1    N     N_R   0.499970 0.499970 0.857200 -0.074144
N2    N     N_R   0.500030 0.500030 0.142800 -0.074233
O1    O     O_R   0.499990 0.316750 0.614620 -0.647100
O2    O     O_R   0.500010 0.683250 0.385380 -0.632187
O3    O     O_R   0.499990 0.316780 0.385290 -0.647228
O4    O     O_R   0.500010 0.683220 0.614710 -0.632244
O5    O     O_R   0.346360 0.499970 0.595710 -0.572424
O6    O     O_R   0.653640 0.500030 0.404290 -0.572566
O7    O     O_R   0.346360 0.499990 0.366380 -0.620165
O8    O     O_R   0.653640 0.500010 0.633620 -0.620191
Zn1   Zn    Zn3+2 0.500000 0.499980 0.653120 0.955799
Zn2   Zn    Zn3+2 0.500000 0.500020 0.346880 0.955681
O9    O     O_3   0.807820 0.418626 0.294088 -0.639401
C25   C     C_3   0.765902 0.295797 0.284225 0.129396
H13   H     H_    0.694481 0.298610 0.209785 0.170730
H14   H     H_    0.740271 0.260741 0.382153 0.110276
C26   C     C_3   0.843763 0.204195 0.231047 -0.400925
H15   H     H_    0.867751 0.239402 0.132859 0.230725
H16   H     H_    0.914696 0.196579 0.306117 0.222419
C27   C     C_3   0.795283 0.074475 0.208422 -0.951922
H17   H     H_    0.772433 0.036575 0.306013 0.268034
H18   H     H_    0.853285 0.010182 0.169851 0.274362
H19   H     H_    0.724953 0.078851 0.131973 0.255321
O10   O     O_3   0.192138 0.418120 0.705708 -0.639342
C28   C     C_3   0.233922 0.295240 0.715193 0.129139
H20   H     H_    0.305347 0.297834 0.789617 0.170442
H21   H     H_    0.259503 0.260390 0.617158 0.110211
C29   C     C_3   0.155986 0.203566 0.768144 -0.400869
H22   H     H_    0.132089 0.238551 0.866468 0.230726
H23   H     H_    0.085014 0.196189 0.693108 0.222434
C30   C     C_3   0.204325 0.073753 0.790323 -0.951761
H24   H     H_    0.227021 0.036046 0.692576 0.268127
H25   H     H_    0.146300 0.009430 0.828825 0.274365
H26   H     H_    0.274728 0.077897 0.866662 0.255258

loop_
_geom_bond_atom_site_label_1
_geom_bond_atom_site_label_2
_ccdc_geom_bond_type
C12   C17   A    
C10   O8    A    
C28   C29   S    
C25   H14   S    
C12   C15   A    
C11   C18   A    
C9    O7    A    
C14   C16   A    
N1    Zn1   S    
C22   H6    S    
C11   C16   A    
C3    C23   A    
C19   C20   A    
C27   H19   S    
C30   H26   S    
C6    H10   S    
C29   H22   S    
C1    C4    S    
C24   H8    S    
C25   H13   S    
C7    N1    A    
C6    N1    A    
C26   H15   S    
C4    C21   A    
C21   H5    S    
C8    N2    A    
C2    O4    A    
C14   C19   A    
C1    O3    A    
C17   C19   A    
O3    Zn2   S    
C27   H18   S    
C2    C3    S    
C18   C20   A    
O4    Zn1   S    
C26   H16   S    
C13   C15   A    
C28   H20   S    
C4    C24   A    
C9    C12   S    
C22   C24   A    
C9    O5    A    
C25   C26   S    
C10   C11   S    
C1    O1    A    
C17   O10   S    
C10   O6    A    
C30   H24   S    
C29   C30   S    
C2    O2    A    
C7    H11   S    
N2    Zn2   S    
C27   H17   S    
O1    Zn1   S    
O9    C25   S    
C8    H12   S    
C26   C27   S    
C30   H25   S    
C16   H1    S    
C5    C7    A    
O2    Zn2   S    
O8    Zn1   S    
C13   H3    S    
C3    C22   A    
C6    C8    A    
O7    Zn2   S    
C13   C20   A    
C14   H4    S    
C5    N2    A    
O5    Zn1   S    
C21   C23   A    
C28   H21   S    
O6    Zn2   S    
C18   O9    S    
C5    H9    S    
O10   C28   S    
C15   H2    S    
C23   H7    S    
C29   H23   S    
