data_mof_unit_58918.cif
_audit_creation_date              2012-12-11T17:04:48-0500
_audit_creation_method            fapswitch 2.2
_symmetry_space_group_name_H-M    P1
_symmetry_Int_Tables_number       1
_space_group_crystal_system       triclinic
_cell_length_a                    17.427216
_cell_length_b                    24.328609
_cell_length_c                    14.894496
_cell_angle_alpha                 90.168862
_cell_angle_beta                  125.161736
_cell_angle_gamma                 89.656251
_cell_volume                      5162.57924933

loop_
_atom_site_label
_atom_site_type_symbol
_atom_type_description
_atom_site_fract_x
_atom_site_fract_y
_atom_site_fract_z
_atom_type_partial_charge
C1    C     C_R   0.849884 0.651817 0.905283 -0.136435
C2    C     C_R   0.933991 0.502614 0.631842 0.068858
C3    C     C_R   0.769397 0.047362 0.267477 -0.194206
C4    C     C_R   0.815865 0.370862 0.909945 -0.117087
C5    C     C_R   0.184913 0.371675 0.086905 -0.133220
C6    C     C_R   0.315867 0.870860 0.909947 -0.117136
C7    C     C_R   0.684914 0.871676 0.086908 -0.133207
C8    C     C_R   0.940376 0.653448 0.087916 -0.142615
C9    C     C_R   0.059327 0.652692 0.910607 -0.121946
C10   C     C_R   0.440375 0.153448 0.087916 -0.142615
C11   C     C_R   0.559327 0.152691 0.910607 -0.121946
C12   C     C_R   0.878014 0.684262 0.994681 0.081120
C13   C     C_R   0.461243 0.003235 0.287653 0.066388
C14   C     C_R   0.119418 0.684045 0.003431 0.081087
C15   C     C_R   0.378013 0.184262 0.994681 0.081117
C16   C     C_R   0.619418 0.184045 0.003430 0.081087
C17   C     C_R   0.433988 0.002614 0.631841 0.068888
C18   C     C_R   0.697140 0.501664 0.636227 -0.122642
C19   C     C_R   0.325026 0.501338 0.310247 -0.128219
C20   C     C_R   0.197099 0.001684 0.636266 -0.122597
C21   C     C_R   0.825031 0.001317 0.310153 -0.128300
C22   C     C_3   0.534635 0.455184 0.521280 -0.203352
C23   C     C_3   0.493336 0.460314 0.398104 -0.188291
C24   C     C_3   0.034535 0.955336 0.521661 -0.203048
C25   C     C_R   0.147096 0.652345 0.093459 -0.146336
C26   C     C_3   0.993315 0.960119 0.398463 -0.188557
C27   C     C_3   0.464490 0.497833 0.510617 -0.142448
C28   C     C_3   0.561545 0.507694 0.421923 -0.132831
C29   C     C_3   0.964424 0.998152 0.510545 -0.142275
C30   C     C_3   0.061598 0.007380 0.421894 -0.133055
C31   C     C_3   0.424252 0.502790 0.389126 0.203611
C32   C     C_3   0.601167 0.502347 0.543397 0.199954
C33   C     C_3   0.924258 0.002764 0.389028 0.203605
C34   C     C_3   0.101144 0.002380 0.543396 0.199936
C35   C     C_3   0.489869 0.550314 0.410312 -0.144384
C36   C     C_R   0.349885 0.151817 0.905283 -0.136412
C37   C     C_3   0.531669 0.545082 0.533562 -0.139690
C38   C     C_3   0.989950 0.050171 0.409822 -0.144305
C39   C     C_3   0.031681 0.045285 0.533106 -0.139752
C40   C     C_R   0.776050 0.302536 0.107677 0.050583
C41   C     C_R   0.226317 0.307067 0.888026 0.057898
C42   C     C_R   0.276054 0.802534 0.107680 0.050558
C43   C     C_R   0.726328 0.807072 0.888032 0.057897
C44   C     C_R   0.753551 0.324170 0.008205 0.080713
C45   C     C_R   0.250771 0.330759 0.986906 0.074531
C46   C     C_R   0.253555 0.824168 0.008208 0.080713
C47   C     C_R   0.647096 0.152345 0.093459 -0.146363
C48   C     C_R   0.750776 0.830760 0.986912 0.074525
C49   C     C_R   0.663673 0.313777 0.912433 -0.194586
C50   C     C_R   0.340111 0.318848 0.082692 -0.199255
C51   C     C_R   0.163675 0.813777 0.912437 -0.194590
C52   C     C_R   0.840112 0.818846 0.082700 -0.199214
C53   C     C_R   0.911232 0.367986 0.093359 -0.055502
C54   C     C_R   0.093961 0.376481 0.903827 -0.018010
C55   C     C_R   0.411234 0.867985 0.093361 -0.055467
C56   C     C_R   0.593962 0.876481 0.903829 -0.018096
C57   C     C_R   0.109430 0.771816 0.912711 -0.194026
C58   C     C_R   0.823737 0.352961 0.003263 0.060445
C59   C     C_R   0.891155 0.773997 0.083538 -0.193536
C60   C     C_R   0.609429 0.271816 0.912707 -0.194020
C61   C     C_R   0.391154 0.273999 0.083530 -0.193535
C62   C     C_R   0.145333 0.741141 0.009086 0.078886
C63   C     C_R   0.852946 0.742021 0.988094 0.080865
C64   C     C_R   0.645332 0.241141 0.009084 0.078890
C65   C     C_R   0.352943 0.242020 0.988090 0.080855
C66   C     C_R   0.221261 0.762495 0.108584 0.083623
C67   C     C_R   0.777938 0.764001 0.888249 0.078509
C68   C     C_R   0.721257 0.262497 0.108582 0.083545
C69   C     C_R   0.180576 0.359641 0.992904 0.051364
C70   C     C_R   0.277928 0.263996 0.888244 0.078607
C71   C     C_3   0.304499 0.734720 0.207070 -0.613221
C72   C     C_3   0.692624 0.737273 0.791327 -0.611710
C73   C     C_3   0.804496 0.234723 0.207072 -0.612997
C74   C     C_3   0.192612 0.237263 0.791334 -0.611979
C75   C     C_3   0.864713 0.277966 0.204712 0.353760
C76   C     C_3   0.135721 0.283973 0.792180 0.354561
C77   C     C_3   0.364718 0.777962 0.204710 0.353818
C78   C     C_3   0.635734 0.783984 0.792174 0.354588
C79   C     C_R   0.896822 0.555063 0.469044 0.151228
C80   C     C_R   0.323740 0.852959 0.003266 0.060444
C81   C     C_R   0.904596 0.555172 0.382162 0.165923
C82   C     C_R   0.396812 0.055060 0.469037 0.151271
C83   C     C_R   0.404587 0.055169 0.382157 0.165944
C84   C     C_R   0.897051 0.505179 0.515960 0.033546
C85   C     C_R   0.913053 0.505444 0.341112 0.040294
C86   C     C_R   0.397047 0.005177 0.515959 0.033543
C87   C     C_R   0.413054 0.005442 0.341114 0.040295
C88   C     C_R   0.877982 0.456728 0.454718 -0.206815
C89   C     C_R   0.886077 0.456873 0.366678 -0.203433
C90   C     C_R   0.377985 0.956725 0.454722 -0.206829
C91   C     C_R   0.680579 0.859641 0.992907 0.051397
C92   C     C_R   0.386084 0.956870 0.366685 -0.203445
C93   C     C_3   0.965828 0.605009 0.423947 -0.514938
C94   C     C_3   0.957563 0.604914 0.519128 -0.510205
C95   C     C_3   0.465804 0.105010 0.423930 -0.514983
C96   C     C_3   0.457537 0.104915 0.519110 -0.510251
C97   C     C_R   0.983674 0.548024 0.250983 -0.142226
C98   C     C_R   0.950440 0.547415 0.697010 -0.136527
C99   C     C_R   0.483674 0.048024 0.250984 -0.142236
C100  C     C_R   0.450438 0.047415 0.697009 -0.136548
C101  C     C_R   0.745614 0.455586 0.696182 0.499727
C102  C     C_R   0.961242 0.503236 0.287651 0.066387
C103  C     C_R   0.268729 0.455342 0.279020 0.495546
C104  C     C_R   0.245580 0.955598 0.696191 0.499625
C105  C     C_R   0.768722 0.955332 0.278988 0.495586
C106  C     C_R   0.994739 0.456685 0.266231 -0.130193
C107  C     C_R   0.949021 0.456112 0.693628 -0.137158
C108  C     C_R   0.494740 0.956685 0.266232 -0.130193
C109  C     C_R   0.449019 0.956111 0.693628 -0.137163
C110  C     C_R   0.742913 0.547111 0.698276 -0.208473
C111  C     C_R   0.269388 0.547374 0.267526 -0.194110
C112  C     C_R   0.242892 0.047123 0.698317 -0.208305
H1    H     H_    0.815932 0.665034 0.821305 0.102483
H2    H     H_    0.549145 0.579849 0.590714 0.113092
H3    H     H_    0.968535 0.088849 0.361539 0.111683
H4    H     H_    0.049165 0.080218 0.589918 0.112952
H5    H     H_    0.639700 0.333090 0.835066 0.125110
H6    H     H_    0.365330 0.339291 0.159560 0.123482
H7    H     H_    0.139702 0.833091 0.835071 0.125098
H8    H     H_    0.865329 0.839286 0.159570 0.123501
H9    H     H_    0.046502 0.759330 0.835295 0.122661
H10   H     H_    0.953485 0.760943 0.161195 0.121739
H11   H     H_    0.546503 0.259328 0.835291 0.122661
H12   H     H_    0.178704 0.666305 0.176586 0.105412
H13   H     H_    0.453488 0.260948 0.161187 0.121739
H14   H     H_    0.319020 0.692737 0.190292 0.225684
H15   H     H_    0.676064 0.696755 0.810623 0.228427
H16   H     H_    0.819020 0.192740 0.190296 0.225675
H17   H     H_    0.176061 0.196745 0.810643 0.228427
H18   H     H_    0.303167 0.737939 0.280635 0.156020
H19   H     H_    0.693655 0.737639 0.717392 0.155714
H20   H     H_    0.803161 0.237943 0.280635 0.155988
H21   H     H_    0.193634 0.237625 0.717392 0.155758
H22   H     H_    0.901703 0.305217 0.278204 0.017135
H23   H     H_    0.315934 0.165035 0.821305 0.102482
H24   H     H_    0.100591 0.310633 0.717805 0.025356
H25   H     H_    0.401713 0.805211 0.278204 0.017170
H26   H     H_    0.600617 0.810649 0.717807 0.025262
H27   H     H_    0.869668 0.417674 0.482559 0.128107
H28   H     H_    0.883184 0.418047 0.329181 0.118717
H29   H     H_    0.369675 0.917671 0.482565 0.128120
H30   H     H_    0.383197 0.918044 0.329192 0.118720
H31   H     H_    0.930998 0.641127 0.368973 0.196505
H32   H     H_    0.025923 0.596493 0.598636 0.205543
H33   H     H_    0.430965 0.141123 0.368947 0.196517
H34   H     H_    0.678705 0.166304 0.176586 0.105413
H35   H     H_    0.525896 0.096501 0.598617 0.205548
H36   H     H_    0.943082 0.357038 0.176989 0.107384
H37   H     H_    0.067547 0.374754 0.818370 0.090448
H38   H     H_    0.443086 0.857036 0.176991 0.107403
H39   H     H_    0.567550 0.874755 0.818372 0.090440
H40   H     H_    0.038724 0.596572 0.449876 0.201325
H41   H     H_    0.918138 0.641041 0.519039 0.192161
H42   H     H_    0.538700 0.096581 0.449859 0.201327
H43   H     H_    0.418104 0.141037 0.519013 0.192175
H44   H     H_    0.967482 0.590629 0.252458 0.112933
H45   H     H_    0.552921 0.416161 0.568024 0.137491
H46   H     H_    0.929779 0.589482 0.670825 0.101339
H47   H     H_    0.467483 0.090629 0.252460 0.112934
H48   H     H_    0.429777 0.089482 0.670823 0.101342
H49   H     H_    0.999291 0.416109 0.297244 0.087093
H50   H     H_    0.929309 0.414512 0.663507 0.111395
H51   H     H_    0.499292 0.916109 0.297243 0.087095
H52   H     H_    0.429307 0.914512 0.663508 0.111360
H53   H     H_    0.726951 0.589758 0.673517 0.122596
H54   H     H_    0.290324 0.590022 0.283222 0.125126
H55   H     H_    0.226949 0.089772 0.673569 0.122523
H56   H     H_    0.474409 0.425814 0.339973 0.118380
H57   H     H_    0.790354 0.090007 0.283170 0.125190
H58   H     H_    0.757587 0.365359 0.825423 0.152014
H59   H     H_    0.240993 0.360649 0.169121 0.170416
H60   H     H_    0.257590 0.865354 0.825428 0.152082
H61   H     H_    0.740997 0.860655 0.169128 0.170418
H62   H     H_    0.985891 0.668745 0.170937 0.086827
H63   H     H_    0.015388 0.666892 0.826555 0.085744
H64   H     H_    0.485890 0.168745 0.170937 0.086827
H65   H     H_    0.515387 0.166892 0.826555 0.085743
H66   H     H_    0.422160 0.493855 0.544320 0.124900
H67   H     H_    0.052793 0.916441 0.568783 0.137321
H68   H     H_    0.604588 0.511644 0.389177 0.117089
H69   H     H_    0.922046 0.994426 0.544230 0.124776
H70   H     H_    0.104692 0.011078 0.389173 0.117137
H71   H     H_    0.978910 0.241283 0.245671 0.315501
H72   H     H_    0.018790 0.252694 0.752626 0.316885
H73   H     H_    0.478884 0.741221 0.245678 0.315424
H74   H     H_    0.518732 0.752793 0.752566 0.316853
H75   H     H_    0.694216 0.404474 0.575555 0.308922
H76   H     H_    0.358554 0.404228 0.390192 0.313061
H77   H     H_    0.193925 0.904456 0.575580 0.309003
H78   H     H_    0.974395 0.925458 0.340659 0.118486
H79   H     H_    0.858468 0.904292 0.390451 0.313109
H80   H     H_    0.468400 0.589118 0.362405 0.111535
N1    N     N_R   0.892620 0.603790 0.941770 -0.038483
N2    N     N_R   0.973690 0.529110 0.793240 -0.043805
N3    N     N_R   0.526310 0.029110 0.206760 -0.044066
N4    N     N_R   0.473690 0.029110 0.793240 -0.043807
N5    N     N_R   0.818570 0.472310 0.793020 -0.069947
N6    N     N_R   0.181430 0.472310 0.206980 -0.067264
N7    N     N_R   0.318570 0.972310 0.793020 -0.069945
N8    N     N_R   0.681430 0.972310 0.206980 -0.067249
N9    N     N_R   0.026930 0.472300 0.207330 -0.041624
N10   N     N_R   0.973070 0.472300 0.792670 -0.048726
N11   N     N_R   0.526930 0.972300 0.207330 -0.041620
N12   N     N_R   0.107380 0.603790 0.058230 -0.038422
N13   N     N_R   0.473070 0.972300 0.792670 -0.048737
N14   N     N_R   0.817960 0.529130 0.792460 -0.062409
N15   N     N_R   0.182040 0.529130 0.207540 -0.064489
N16   N     N_R   0.317960 0.029130 0.792460 -0.062424
N17   N     N_R   0.682040 0.029130 0.207540 -0.064475
N18   N     N_R   0.894850 0.397640 0.943830 -0.040429
N19   N     N_R   0.105150 0.397640 0.056170 -0.045130
N20   N     N_R   0.394850 0.897640 0.943830 -0.040437
N21   N     N_R   0.605150 0.897640 0.056170 -0.045132
N22   N     N_R   0.950040 0.603780 0.055950 -0.039999
N23   N     N_R   0.392620 0.103790 0.941770 -0.038483
N24   N     N_R   0.049960 0.603780 0.944050 -0.040739
N25   N     N_R   0.450040 0.103780 0.055950 -0.039997
N26   N     N_R   0.549960 0.103780 0.944050 -0.040737
N27   N     N_R   0.607380 0.103790 0.058230 -0.038416
N28   N     N_R   0.952270 0.397640 0.058010 -0.052347
N29   N     N_R   0.047730 0.397640 0.941990 -0.049229
N30   N     N_R   0.452270 0.897640 0.058010 -0.052346
N31   N     N_R   0.547730 0.897640 0.941990 -0.049235
N32   N     N_R   0.026310 0.529110 0.206760 -0.044063
Ni1   Ni    Ni4+2 0.934160 0.565860 0.869070 0.192549
Ni2   Ni    Ni4+2 0.065840 0.565860 0.130930 0.196952
Ni3   Ni    Ni4+2 0.434160 0.065860 0.869070 0.192553
Ni4   Ni    Ni4+2 0.565840 0.065860 0.130930 0.196949
Ni5   Ni    Ni4+2 0.067260 0.435560 0.132230 0.263308
Ni6   Ni    Ni4+2 0.932740 0.435560 0.867770 0.262994
Ni7   Ni    Ni4+2 0.567260 0.935560 0.132230 0.263322
Ni8   Ni    Ni4+2 0.432740 0.935560 0.867770 0.262968
O1    O     O_3   0.922212 0.255310 0.176230 -0.724296
O2    O     O_3   0.076810 0.265737 0.821616 -0.722174
O3    O     O_3   0.422213 0.755307 0.176224 -0.724186
O4    O     O_3   0.576815 0.765745 0.821594 -0.722173
O5    O     O_3   0.739489 0.403426 0.656504 -0.797199
O6    O     O_3   0.290762 0.405088 0.330845 -0.796339
O7    O     O_3   0.239365 0.903429 0.656502 -0.797196
O8    O     O_3   0.790731 0.905094 0.330871 -0.796347

loop_
_geom_bond_atom_site_label_1
_geom_bond_atom_site_label_2
_ccdc_geom_bond_type
C44   C49   A    
C3    N17   A    
C104  O7    S    
C83   C87   A    
C35   H80   S    
C38   H3    S    
C99   H47   S    
C73   C75   S    
N26   Ni3   S    
C2    C84   S    
C95   C96   S    
C95   H33   S    
C27   H66   S    
C73   H20   S    
C9    C14   A    
C25   N12   A    
C19   C31   S    
C15   C65   S    
C76   H24   S    
N6    Ni5   S    
C4    N18   A    
C57   C62   A    
C6    H60   S    
N5    Ni6   S    
C43   C78   S    
C98   N2    A    
C93   C94   S    
C49   C60   A    
C29   H69   S    
N3    Ni4   S    
C72   H19   S    
C33   C38   S    
C64   C68   A    
N2    Ni1   S    
C35   C37   S    
C24   C26   S    
C108  N11   A    
C8    N22   A    
C10   C15   A    
N23   N25   A    
C36   N23   A    
C38   C39   S    
N20   Ni8   S    
C110  H53   S    
C101  N5    A    
C106  H49   S    
C96   H43   S    
N3    N11   A    
C65   C70   A    
C14   C62   S    
C74   H21   S    
C99   N3    A    
C2    C107  A    
C77   O3    S    
N18   N28   A    
C30   C38   S    
C67   C72   S    
C42   C46   A    
C97   H44   S    
N32   Ni2   S    
N4    N13   A    
C24   C29   S    
C72   C78   S    
C26   C33   S    
N28   Ni5   S    
C20   C112  A    
C19   C103  A    
C100  N4    A    
C105  N8    A    
C49   H5    S    
C98   H46   S    
C28   C35   S    
C44   C58   S    
C48   C91   S    
N29   Ni6   S    
C70   C74   S    
C51   H7    S    
C102  C106  A    
C71   H14   S    
C75   O1    S    
C51   C57   A    
N8    Ni7   S    
N27   Ni4   S    
C92   H30   S    
C43   C48   A    
C22   C32   S    
C97   C102  A    
N21   Ni7   S    
N10   Ni6   S    
C20   C34   S    
C59   H10   S    
N9    Ni5   S    
N4    Ni3   S    
C83   C95   S    
C29   C33   S    
C87   C92   A    
C30   H70   S    
C29   C39   S    
N5    N14   A    
C1    C12   A    
C1    H1    S    
C24   H67   S    
C13   C108  A    
C78   H26   S    
C16   C47   A    
H75   O5    S    
C22   H45   S    
C54   H37   S    
H74   O4    S    
C56   C91   A    
C9    N24   A    
C10   H64   S    
C5    N19   A    
C108  H51   S    
C63   C67   A    
C75   H22   S    
C82   C96   S    
C62   C66   A    
C72   H15   S    
C101  O5    S    
C17   C86   S    
C84   C88   A    
C28   C32   S    
C112  N16   A    
C107  N10   A    
C86   C90   A    
C79   C81   A    
C12   C63   S    
C30   C34   S    
C3    H57   S    
C54   N29   A    
N20   N30   A    
C37   H2    S    
C68   C73   S    
C82   C86   A    
C112  H55   S    
C45   C69   S    
C46   C51   A    
C82   C83   A    
C53   H36   S    
C24   C34   S    
C34   C39   S    
C17   C109  A    
C103  N6    A    
C23   C31   S    
C13   C99   A    
C60   H11   S    
C1    N1    A    
N7    Ni8   S    
C88   H27   S    
C52   C59   A    
C81   C93   S    
C11   C16   A    
C100  H48   S    
N15   Ni2   S    
C90   C92   A    
C66   C71   S    
C107  H50   S    
C40   C44   A    
C8    C12   A    
C89   H28   S    
C7    C91   A    
C13   C87   S    
N14   Ni1   S    
C5    H59   S    
C110  N14   A    
C111  H54   S    
C32   C37   S    
C56   H39   S    
C109  N13   A    
C28   H68   S    
C11   N26   A    
H72   O2    S    
C25   H12   S    
C7    N21   A    
C4    H58   S    
C79   C94   S    
C55   N30   A    
C11   H65   S    
C52   H8    S    
C43   C67   A    
H73   O3    S    
H71   O1    S    
N30   Ni7   S    
C26   C30   S    
N11   Ni7   S    
C22   C27   S    
C27   C31   S    
C47   H34   S    
C6    C80   A    
C104  N7    A    
C31   C35   S    
C3    C21   A    
C23   C28   S    
C74   C76   S    
N12   Ni2   S    
H77   O7    S    
C36   H23   S    
C111  N15   A    
C15   C36   A    
C71   C77   S    
N31   Ni8   S    
C55   H38   S    
C8    H62   S    
H79   O8    S    
C96   H35   S    
C85   C89   A    
N19   Ni5   S    
N1    N22   A    
N6    N15   A    
C50   H6    S    
C5    C69   A    
C26   H78   S    
C22   C23   S    
C18   C110  A    
C77   H25   S    
N13   Ni8   S    
C109  H52   S    
C93   H31   S    
C56   N31   A    
C76   O2    S    
C53   C58   A    
C40   C75   S    
C20   C104  A    
N24   Ni1   S    
C19   C111  A    
C73   H16   S    
N12   N24   A    
C59   C63   A    
N8    N17   A    
C97   N32   A    
C60   C64   A    
C95   H42   S    
C94   H32   S    
C21   C33   S    
N1    Ni1   S    
N16   Ni3   S    
C106  N9    A    
C46   C80   S    
C55   C80   A    
N21   N31   A    
N26   N27   A    
C79   C84   A    
C54   C69   A    
C47   N27   A    
C45   C50   A    
C53   N28   A    
C94   H41   S    
C103  O6    S    
C7    H61   S    
N7    N16   A    
C105  O8    S    
C41   C76   S    
C18   C32   S    
C9    H63   S    
N23   Ni3   S    
C14   C25   A    
N22   Ni2   S    
C17   C100  A    
C81   C85   A    
N18   Ni6   S    
C90   H29   S    
H76   O6    S    
N25   Ni4   S    
C57   H9    S    
C23   H56   S    
C61   C65   A    
C48   C52   A    
C6    N20   A    
C88   C89   A    
C2    C98   A    
N2    N10   A    
C78   O4    S    
C39   H4    S    
C40   C68   A    
C74   H17   S    
C4    C58   A    
C42   C66   A    
C50   C61   A    
C41   C45   A    
C42   C77   S    
C93   H40   S    
C61   H13   S    
C16   C64   S    
N9    N32   A    
C18   C101  A    
C21   C105  A    
C85   C102  S    
C27   C37   S    
C10   N25   A    
N17   Ni4   S    
C41   C70   A    
C71   H18   S    
N19   N29   A    
