data_mof_unit_22017.cif
_audit_creation_date              2012-12-10T19:42:06-0500
_audit_creation_method            fapswitch 2.2
_symmetry_space_group_name_H-M    P1
_symmetry_Int_Tables_number       1
_space_group_crystal_system       triclinic
_cell_length_a                    18.291194
_cell_length_b                    18.384723
_cell_length_c                    18.330088
_cell_angle_alpha                 120.012083
_cell_angle_beta                  90.036273
_cell_angle_gamma                 120.005636
_cell_volume                      4356.06653471

loop_
_atom_site_label
_atom_site_type_symbol
_atom_type_description
_atom_site_fract_x
_atom_site_fract_y
_atom_site_fract_z
_atom_type_partial_charge
C1    C     C_R   0.140501 0.780240 0.141633 0.490340
C2    C     C_R   0.793886 0.108018 0.803938 0.033361
C3    C     C_R   0.731926 0.052288 0.833806 -0.014147
C4    C     C_R   0.857575 0.219907 0.860026 0.532987
C5    C     C_R   0.681918 0.943810 0.779465 -0.111533
C6    C     C_R   0.688468 0.891118 0.694794 0.009634
C7    C     C_R   0.736783 0.946864 0.661255 -0.005192
C8    C     C_3   0.799710 0.940218 0.610613 -0.254630
C9    C     C_3   0.861561 0.057715 0.672206 -0.103565
C10   C     C_R   0.757970 0.545498 0.204868 -0.002731
C11   C     C_R   0.796004 0.491378 0.187401 0.017277
C12   C     C_R   0.564281 0.419874 0.748289 0.009434
C13   C     C_R   0.768704 0.425098 0.214629 -0.149554
C14   C     C_R   0.715230 0.425494 0.269007 -0.157622
C15   C     C_R   0.689386 0.493138 0.297802 0.061272
C16   C     C_R   0.140132 0.498661 0.860130 0.504375
C17   C     C_R   0.708454 0.548917 0.261240 0.106517
C18   C     C_3   0.739675 0.657263 0.297109 0.032168
C19   C     C_3   0.794338 0.652235 0.232407 -0.163383
C20   C     C_R   0.160875 0.947163 0.224188 0.034314
C21   C     C_R   0.197344 0.891809 0.207213 -0.026978
C22   C     C_R   0.288158 0.946675 0.258306 -0.034580
C23   C     C_R   0.653873 0.455413 0.746575 0.008741
C24   C     C_R   0.341694 0.055654 0.315361 -0.013893
C25   C     C_R   0.305235 0.108904 0.317348 -0.025717
C26   C     C_R   0.212925 0.052608 0.279123 0.042184
C27   C     C_3   0.156257 0.060301 0.228388 -0.096395
C28   C     C_R   0.859029 0.499070 0.139014 0.499831
C29   C     C_3   0.098613 0.942233 0.165524 -0.109934
C30   C     C_R   0.288506 0.571946 0.232159 -0.017270
C31   C     C_R   0.197100 0.493813 0.188375 -0.010529
C32   C     C_R   0.162850 0.403792 0.184121 -0.100056
C33   C     C_R   0.216543 0.398116 0.233288 -0.005152
C34   C     C_R   0.708588 0.453436 0.800015 -0.000149
C35   C     C_R   0.304829 0.487209 0.290888 -0.006494
C36   C     C_R   0.341259 0.568372 0.281866 0.020441
C37   C     C_3   0.399957 0.682912 0.349670 -0.105310
C38   C     C_3   0.340614 0.687273 0.294018 0.015215
C39   C     C_R   0.277832 0.581990 0.830588 0.027063
C40   C     C_R   0.140364 0.500086 0.139879 0.509115
C41   C     C_R   0.196982 0.491644 0.805532 0.022445
C42   C     C_R   0.176466 0.395981 0.731722 -0.018126
C43   C     C_R   0.229791 0.396046 0.674910 -0.011671
C44   C     C_R   0.305160 0.491701 0.696827 -0.028597
C45   C     C_R   0.799441 0.494022 0.802731 0.046333
C46   C     C_R   0.331647 0.581808 0.778497 0.003682
C47   C     C_3   0.362440 0.685596 0.801719 -0.109574
C48   C     C_3   0.301985 0.686159 0.860650 0.005097
C49   C     C_R   0.639588 0.499518 0.359576 0.551479
C50   C     C_R   0.359905 0.498803 0.640004 0.480759
C51   C     C_R   0.639513 0.779901 0.639926 0.505748
C52   C     C_R   0.859219 0.499004 0.860019 0.494978
C53   C     C_R   0.360078 0.219928 0.362275 0.514303
C54   C     C_R   0.359784 0.496802 0.356996 0.489379
C55   C     C_R   0.639003 0.498977 0.639868 0.547839
C56   C     C_R   0.835696 0.533761 0.752655 0.002482
C57   C     C_R   0.670256 0.411907 0.849911 -0.017520
C58   C     C_R   0.592114 0.403479 0.866796 0.030763
C59   C     C_R   0.539656 0.406511 0.814847 -0.107254
C60   C     C_3   0.934343 0.582831 0.760717 -0.376067
C61   C     C_2   0.949438 0.095871 0.728270 0.217249
C62   C     C_2   0.664885 0.665698 0.277602 0.218292
C63   C     C_2   0.800103 0.738996 0.393701 0.198533
C64   C     C_3   0.764536 0.652727 0.154346 -0.401737
C65   C     C_2   0.329543 0.892381 0.249581 0.314821
C66   C     C_3   0.700815 0.360334 0.872562 -0.387416
C67   C     C_R   0.780355 0.530865 0.696565 -0.018402
C68   C     C_2   0.433743 0.111391 0.373882 0.350962
C69   C     C_2   0.109426 0.103892 0.283409 0.278734
C70   C     C_3   0.102962 0.901348 0.070575 -0.423625
C71   C     C_2   0.179826 0.298529 0.220814 0.240572
C72   C     C_3   0.498115 0.731506 0.352910 -0.338189
C73   C     C_3   0.286482 0.725356 0.344018 -0.380983
C74   C     C_2   0.562574 0.386745 0.935928 0.227587
C75   C     C_2   0.385157 0.737093 0.247210 0.258468
C76   C     C_3   0.102127 0.295655 0.716079 -0.325963
C77   C     C_2   0.209270 0.298079 0.594700 0.265443
C78   C     C_R   0.691031 0.493760 0.694971 0.042356
C79   C     C_3   0.463983 0.765193 0.849423 -0.376947
C80   C     C_3   0.349087 0.766047 0.962500 -0.335880
C81   C     C_3   0.223307 0.683433 0.826102 -0.394182
C82   C     C_2   0.490386 0.387940 0.680411 0.242969
C83   C     C_3   0.815862 0.570375 0.639460 -0.368793
C84   C     C_2   0.716385 0.103940 0.919015 0.246991
C85   C     C_R   0.791186 0.052410 0.715888 0.042116
H1    H     H_    0.771011 0.909867 0.540274 0.126170
H2    H     H_    0.339300 0.680968 0.742379 0.132473
H3    H     H_    0.475065 0.389825 0.821234 0.154241
H4    H     H_    0.637549 0.900354 0.802808 0.167248
H5    H     H_    0.825794 0.900212 0.618117 0.168612
H6    H     H_    0.974980 0.588353 0.810400 0.134090
H7    H     H_    0.940207 0.537739 0.695243 0.142955
H8    H     H_    0.966665 0.663311 0.782402 0.122796
H9    H     H_    0.997265 0.087938 0.696113 0.114163
H10   H     H_    0.681259 0.737450 0.290545 0.086242
H11   H     H_    0.832755 0.819400 0.420028 0.094478
H12   H     H_    0.869768 0.094402 0.636790 0.114790
H13   H     H_    0.779050 0.729276 0.180506 0.138403
H14   H     H_    0.802102 0.638321 0.107675 0.180133
H15   H     H_    0.691808 0.592590 0.116339 0.167846
H16   H     H_    0.296215 0.828011 0.254697 0.127057
H17   H     H_    0.643366 0.293919 0.868844 0.109240
H18   H     H_    0.727655 0.325354 0.822269 0.152133
H19   H     H_    0.750096 0.415193 0.941094 0.139325
H20   H     H_    0.491761 0.161071 0.364609 0.142576
H21   H     H_    0.115575 0.168983 0.290395 0.154337
H22   H     H_    0.173407 0.935745 0.071375 0.136925
H23   H     H_    0.791891 0.376591 0.197687 0.163042
H24   H     H_    0.066085 0.816404 0.029949 0.158881
H25   H     H_    0.070880 0.920532 0.038359 0.152694
H26   H     H_    0.223891 0.282961 0.239301 0.115221
H27   H     H_    0.503096 0.700478 0.284717 0.179952
H28   H     H_    0.534594 0.816245 0.391158 0.169708
H29   H     H_    0.532296 0.716812 0.388207 0.180755
H30   H     H_    0.234756 0.711566 0.297439 0.124356
H31   H     H_    0.252181 0.684593 0.375059 0.123339
H32   H     H_    0.331847 0.809165 0.397577 0.171642
H33   H     H_    0.606128 0.392963 0.982177 0.107589
H34   H     H_    0.698150 0.376711 0.291852 0.151860
H35   H     H_    0.360497 0.693395 0.174869 0.140142
H36   H     H_    0.042010 0.256153 0.660592 0.177146
H37   H     H_    0.124607 0.244930 0.699661 0.146710
H38   H     H_    0.083373 0.306844 0.776446 0.148653
H39   H     H_    0.263326 0.293253 0.574505 0.132895
H40   H     H_    0.480946 0.843993 0.883051 0.159985
H41   H     H_    0.489228 0.758487 0.899294 0.159312
H42   H     H_    0.498795 0.753339 0.799488 0.163817
H43   H     H_    0.383750 0.845033 0.979595 0.140959
H44   H     H_    0.299185 0.754827 0.997531 0.174212
H45   H     H_    0.868333 0.705396 0.266092 0.160863
H46   H     H_    0.398505 0.758967 0.988134 0.153138
H47   H     H_    0.186483 0.620502 0.753735 0.134434
H48   H     H_    0.175496 0.671042 0.863129 0.129727
H49   H     H_    0.248944 0.757786 0.835944 0.134809
H50   H     H_    0.447440 0.413667 0.701413 0.082871
H51   H     H_    0.808526 0.633062 0.657009 0.135051
H52   H     H_    0.887034 0.601579 0.646455 0.128472
H53   H     H_    0.777531 0.506681 0.567660 0.162614
H54   H     H_    0.735833 0.181997 0.951665 0.123710
H55   H     H_    0.193421 0.100366 0.197583 0.092394
H56   H     H_    0.029109 0.903475 0.167018 0.189001
H57   H     H_    0.094304 0.338112 0.142580 0.198904
H58   H     H_    0.393673 0.705502 0.416882 0.130843
O1    O     O_3   0.000000 0.500000 0.000000 -0.438834
O2    O     O_R   0.323450 0.268330 0.384170 -0.544515
O3    O     O_R   0.444860 0.560620 0.384150 -0.533157
O4    O     O_R   0.055050 0.731580 0.115780 -0.535836
O5    O     O_R   0.615780 0.439200 0.555040 -0.509223
O6    O     O_R   0.323420 0.439190 0.384160 -0.564829
O7    O     O_R   0.615760 0.560630 0.676470 -0.546643
O8    O     O_R   0.615740 0.731500 0.676460 -0.551358
O9    O     O_R   0.444900 0.268330 0.384170 -0.550558
O10   O     O_R   0.615750 0.560630 0.384150 -0.486974
O11   O     O_R   0.323430 0.439200 0.555040 -0.534786
O12   O     O_R   0.055090 0.439280 0.823480 -0.542720
O13   O     O_R   0.884220 0.268410 0.823490 -0.541306
O14   O     O_R   0.176520 0.560720 0.944920 -0.544362
O15   O     O_R   0.884200 0.439290 0.115800 -0.551518
O16   O     O_R   0.176530 0.560720 0.115800 -0.559034
O17   O     O_R   0.884180 0.560710 0.944910 -0.554250
O18   O     O_R   0.055100 0.439290 0.115810 -0.527802
O19   O     O_R   0.884190 0.439280 0.823480 -0.545276
O20   O     O_2   0.967940 0.134836 0.808417 -0.483484
O21   O     O_2   0.586308 0.593338 0.247514 -0.483994
O22   O     O_2   0.813881 0.717142 0.442627 -0.511559
O23   O     O_R   0.884180 0.560710 0.115790 -0.556691
O24   O     O_2   0.400139 0.918065 0.234345 -0.461895
O25   O     O_2   0.444943 0.099496 0.431720 -0.446321
O26   O     O_2   0.065673 0.068195 0.321517 -0.457743
O27   O     O_2   0.099430 0.230894 0.186991 -0.513849
O28   O     O_2   0.489805 0.367561 0.943219 -0.486467
O29   O     O_2   0.448288 0.827654 0.290433 -0.460707
O30   O     O_2   0.132204 0.222981 0.548963 -0.470336
O31   O     O_2   0.472389 0.326098 0.600962 -0.477743
O32   O     O_2   0.679358 0.058709 0.952952 -0.509219
O33   O     O_R   0.176500 0.731590 0.115790 -0.569209
O34   O     O_R   0.884220 0.268420 0.944930 -0.536912
O35   O     O_3   0.499960 0.499910 0.499960 -0.445831
O36   O     O_R   0.615770 0.439200 0.384160 -0.570220
O37   O     O_R   0.444870 0.560630 0.676470 -0.551489
O38   O     O_R   0.615730 0.731500 0.555020 -0.543074
Zn1   Zn    Zn3+2 0.956630 0.413250 0.869870 0.928815
Zn2   Zn    Zn3+2 0.130130 0.586750 0.043370 0.922109
Zn3   Zn    Zn3+2 0.956630 0.413250 0.043380 0.956460
Zn4   Zn    Zn3+2 0.956610 0.586750 0.043370 0.900376
Zn5   Zn    Zn3+2 0.543330 0.586660 0.630080 0.941921
Zn6   Zn    Zn3+2 0.543320 0.586660 0.456570 0.964369
Zn7   Zn    Zn3+2 0.369830 0.413160 0.456580 0.950841
Zn8   Zn    Zn3+2 0.543350 0.413170 0.456590 0.969991

loop_
_geom_bond_atom_site_label_1
_geom_bond_atom_site_label_2
_ccdc_geom_bond_type
C52   O17   A    
O33   Zn2   S    
C72   H27   S    
C1    O33   A    
C1    C21   S    
C27   C29   S    
O23   Zn4   S    
C41   C42   A    
C66   H17   S    
C40   O16   A    
C2    C4    S    
C35   C36   A    
C65   H16   S    
C4    O34   A    
O1    Zn3   S    
O38   Zn6   S    
O12   Zn1   S    
C81   H49   S    
C39   C41   A    
C7    C85   A    
C31   C40   S    
C67   C83   S    
C12   C23   A    
C26   C27   S    
C37   C38   S    
C73   H31   S    
C20   C29   S    
C9    C61   S    
C76   H36   S    
C49   O10   A    
C36   C37   S    
C25   C53   S    
O19   Zn1   S    
C70   H22   S    
C30   C31   A    
C18   C63   S    
C10   C17   A    
C72   H29   S    
C48   C81   S    
C30   C38   S    
C2    C85   A    
C15   C17   A    
C18   C19   S    
C82   H50   S    
C59   H3    S    
C70   H25   S    
C13   C14   A    
C9    C85   S    
C12   C59   A    
C64   H14   S    
C62   O21   D    
C82   O31   D    
C84   H54   S    
C8    C9    S    
C71   H26   S    
C34   C57   A    
C9    H12   S    
C47   C79   S    
C6    C51   S    
C84   O32   D    
C57   C66   S    
O8    Zn5   S    
C32   H57   S    
C27   C69   S    
C28   O23   A    
C38   C75   S    
O35   Zn7   S    
C60   H8    S    
C19   H45   S    
C64   H13   S    
C79   H40   S    
O1    Zn2   S    
C51   O8    A    
C80   H46   S    
C62   H10   S    
C35   C54   S    
C67   C78   A    
C3    C84   S    
O17   Zn4   S    
C13   H23   S    
C28   O15   A    
C44   C46   A    
C54   O6    A    
O1    Zn4   S    
C60   H7    S    
C74   H33   S    
O1    Zn1   S    
C73   H32   S    
O2    Zn7   S    
C66   H19   S    
O3    Zn6   S    
C7    C8    S    
C24   C25   A    
C45   C56   A    
C55   C78   S    
O13   Zn1   S    
C61   H9    S    
C18   C62   S    
C81   H47   S    
C80   H43   S    
C45   C52   S    
C3    C5    A    
C25   C26   A    
O11   Zn7   S    
C72   H28   S    
O4    Zn4   S    
C56   C60   S    
C47   H2    S    
C50   O37   A    
C43   C44   A    
C22   C65   S    
O9    Zn8   S    
C70   H24   S    
C53   O9    A    
C47   C48   S    
O36   Zn8   S    
C63   O22   D    
C10   C19   S    
C23   C34   A    
C29   H56   S    
C16   O12   A    
C53   O2    A    
C17   C18   S    
C74   O28   D    
C71   O27   D    
C12   C82   S    
C34   C45   A    
C69   O26   D    
C83   H51   S    
O37   Zn5   S    
C39   C46   A    
O35   Zn6   S    
C68   O25   D    
C4    O13   A    
C79   H41   S    
C22   C24   A    
C1    O4    A    
C8    H5    S    
C42   C43   A    
O34   Zn3   S    
C83   H52   S    
C58   C74   S    
C55   O7    A    
C29   C70   S    
C60   H6    S    
C44   C50   S    
O5    Zn8   S    
O35   Zn8   S    
C79   H42   S    
C46   C47   S    
C77   O30   D    
C80   H44   S    
C37   H58   S    
C16   O14   A    
C61   O20   D    
C76   H38   S    
C66   H18   S    
C31   C32   A    
C75   H35   S    
C51   O38   A    
O7    Zn5   S    
C69   H21   S    
C81   H48   S    
C6    C7    A    
C43   C77   S    
C56   C67   A    
O10   Zn6   S    
C65   O24   D    
C42   C76   S    
C27   H55   S    
C73   H30   S    
C30   C36   A    
C54   O3    A    
C76   H37   S    
C32   C33   A    
C48   C80   S    
O18   Zn3   S    
C2    C3    A    
C58   C59   A    
C40   O18   A    
C77   H39   S    
C11   C13   A    
C8    H1    S    
C57   C58   A    
C5    C6    A    
C20   C26   A    
C11   C28   S    
C50   O11   A    
C63   H11   S    
C33   C35   A    
C19   C64   S    
C55   O5    A    
C15   C49   S    
C23   C78   A    
C10   C11   A    
C24   C68   S    
C33   C71   S    
O35   Zn5   S    
C64   H15   S    
C20   C21   A    
O6    Zn7   S    
C14   H34   S    
C68   H20   S    
C37   C72   S    
C75   O29   D    
C14   C15   A    
O14   Zn2   S    
O16   Zn2   S    
C21   C22   A    
O15   Zn3   S    
C16   C41   S    
C83   H53   S    
C5    H4    S    
C52   O19   A    
C39   C48   S    
C49   O36   A    
C38   C73   S    
