data_mof_unit_32447.cif
_audit_creation_date              2012-12-10T21:27:23-0500
_audit_creation_method            fapswitch 2.2
_symmetry_space_group_name_H-M    P1
_symmetry_Int_Tables_number       1
_space_group_crystal_system       triclinic
_cell_length_a                    10.356421
_cell_length_b                    16.253001
_cell_length_c                    16.445854
_cell_angle_alpha                 92.38057
_cell_angle_beta                  93.0716
_cell_angle_gamma                 104.229415
_cell_volume                      2675.14517865

loop_
_atom_site_label
_atom_site_type_symbol
_atom_type_description
_atom_site_fract_x
_atom_site_fract_y
_atom_site_fract_z
_atom_type_partial_charge
C1    C     C_R   0.477354 0.489038 0.651926 0.890910
C2    C     C_R   0.497401 0.107711 0.485464 0.185574
C3    C     C_R   0.629202 0.864239 0.561930 -0.198273
C4    C     C_R   0.400155 0.133983 0.437437 -0.199347
C5    C     C_R   0.621944 0.775423 0.552674 0.013767
C6    C     C_R   0.392729 0.220433 0.442151 -0.024184
C7    C     C_R   0.746260 0.533561 0.498470 0.954507
C8    C     C_R   0.253524 0.466026 0.496575 0.900183
C9    C     C_2   0.887455 0.544751 0.482285 -0.487313
C10   C     C_2   0.109114 0.451985 0.483340 -0.482323
C11   C     C_2   0.920573 0.497430 0.420575 0.228525
C12   C     C_R   0.506532 0.508986 0.345965 0.870801
C13   C     C_2   0.057855 0.485252 0.418796 0.270710
C14   C     C_R   0.414459 0.479680 0.732511 -0.254969
C15   C     C_R   0.516710 0.512616 0.257237 -0.242206
C16   C     C_R   0.386308 0.550110 0.777157 -0.121312
C17   C     C_R   0.469320 0.438944 0.205735 -0.107715
C18   C     C_R   0.333196 0.538628 0.853733 0.176706
C19   C     C_R   0.382517 0.448880 0.140827 0.200332
C20   C     C_R   0.331667 0.463260 0.892332 0.160817
C21   C     C_R   0.415795 0.526216 0.100454 0.150306
C22   C     C_R   0.334188 0.390316 0.845147 -0.092110
C23   C     C_R   0.367048 0.397073 0.762906 0.154217
C24   C     C_R   0.507622 0.597389 0.140447 -0.106336
C25   C     C_3   0.080340 0.541392 0.279877 -0.801917
C26   C     C_3   0.783217 0.369958 0.344415 -0.698637
C27   C     C_R   0.737191 0.746547 0.586148 0.216683
C28   C     C_R   0.851938 0.756105 0.542010 -0.117155
C29   C     C_R   0.964748 0.734549 0.575946 -0.174978
C30   C     C_R   0.964230 0.703694 0.654093 -0.138354
C31   C     C_R   0.851053 0.694843 0.698433 -0.162367
C32   C     C_R   0.738458 0.716713 0.664615 -0.105271
C33   C     C_R   0.280395 0.242451 0.396844 0.209779
C34   C     C_R   0.555297 0.591962 0.221683 0.143765
C35   C     C_R   0.272955 0.236262 0.311551 -0.151228
C36   C     C_R   0.155364 0.238453 0.266887 -0.155312
C37   C     C_R   0.044794 0.248327 0.307315 -0.111600
C38   C     C_R   0.050457 0.252537 0.392369 -0.148142
C39   C     C_R   0.166297 0.247375 0.437067 -0.122419
C40   C     C_R   0.571963 0.393969 0.179618 0.158435
C41   C     C_R   0.699361 0.440974 0.159773 -0.139513
C42   C     C_R   0.789882 0.400365 0.125978 -0.161786
C43   C     C_R   0.756429 0.312209 0.112594 -0.132101
C44   C     C_R   0.631518 0.264722 0.131778 -0.164986
C45   C     C_R   0.419725 0.752685 0.470041 0.200016
C46   C     C_R   0.539388 0.305274 0.163662 -0.160129
C47   C     C_R   0.399098 0.635493 0.745870 0.185520
C48   C     C_R   0.471589 0.707699 0.793674 -0.187747
C49   C     C_R   0.465883 0.788921 0.772418 -0.161402
C50   C     C_R   0.388904 0.798875 0.703021 -0.124111
C51   C     C_R   0.316090 0.727357 0.655792 -0.165375
C52   C     C_R   0.318168 0.646031 0.678203 -0.068463
C53   C     C_3   0.145026 0.391122 0.115387 -0.809247
C54   C     C_3   0.134916 0.573437 0.904749 -0.791137
C55   C     C_R   0.290500 0.307126 0.881623 0.193824
C56   C     C_R   0.578195 0.256167 0.539899 0.244712
C57   C     C_R   0.158709 0.258358 0.865944 -0.140502
C58   C     C_R   0.115487 0.181250 0.902787 -0.170821
C59   C     C_R   0.203211 0.152749 0.955741 -0.123483
C60   C     C_R   0.334272 0.201344 0.972001 -0.157629
C61   C     C_R   0.377954 0.278540 0.935343 -0.129007
C62   C     C_R   0.559884 0.673881 0.094823 0.190246
C63   C     C_R   0.475433 0.725232 0.070500 -0.200476
C64   C     C_R   0.523595 0.795921 0.025114 -0.160840
C65   C     C_R   0.656196 0.815786 0.003948 -0.124259
C66   C     C_R   0.740958 0.765129 0.028359 -0.161162
C67   C     C_R   0.414313 0.839141 0.487474 0.120776
C68   C     C_R   0.693136 0.694339 0.073696 -0.112560
C69   C     C_3   0.386470 0.250646 0.724030 -0.771467
C70   C     C_3   0.638479 0.738184 0.283069 -0.748274
C71   C     C_3   0.799707 0.343800 0.590699 -0.767750
C72   C     C_3   0.322849 0.732684 0.328368 -0.868728
C73   C     C_3   0.801355 0.137981 0.551126 -0.746717
C74   C     C_3   0.232225 0.901794 0.529021 -0.794824
C75   C     C_R   0.743862 0.922940 0.609761 0.187937
C76   C     C_R   0.728055 0.952619 0.689060 -0.105004
C77   C     C_R   0.837721 0.001799 0.736983 -0.157547
C78   C     C_R   0.585979 0.169370 0.538767 0.050394
C79   C     C_R   0.963906 0.022254 0.705882 -0.123566
C80   C     C_R   0.979866 0.995266 0.626105 -0.156778
C81   C     C_R   0.869994 0.946825 0.577719 -0.154024
C82   C     C_R   0.301810 0.068724 0.384540 0.190772
C83   C     C_R   0.167368 0.044070 0.403209 -0.124636
C84   C     C_R   0.075953 0.981748 0.354040 -0.142270
C85   C     C_R   0.118231 0.943099 0.286412 -0.117405
C86   C     C_R   0.251865 0.967051 0.267586 -0.154051
C87   C     C_R   0.343425 0.029766 0.316295 -0.124645
C88   C     C_R   0.525725 0.896873 0.528774 0.180027
H1    H     H_    0.048427 0.428364 0.533077 0.123534
H2    H     H_    0.810322 0.348592 0.284455 0.241217
H3    H     H_    0.852870 0.778720 0.480953 0.106565
H4    H     H_    0.050406 0.738934 0.540218 0.142237
H5    H     H_    0.050230 0.685369 0.680090 0.143646
H6    H     H_    0.850512 0.671061 0.758956 0.131186
H7    H     H_    0.652825 0.710652 0.699374 0.145868
H8    H     H_    0.354839 0.222197 0.281038 0.112973
H9    H     H_    0.147646 0.228836 0.201284 0.133679
H10   H     H_    0.953521 0.249615 0.272764 0.128679
H11   H     H_    0.964144 0.257283 0.423732 0.115875
H12   H     H_    0.963053 0.576695 0.528863 0.144929
H13   H     H_    0.166349 0.245571 0.502865 0.117289
H14   H     H_    0.728750 0.509433 0.168261 0.126043
H15   H     H_    0.885905 0.437507 0.109913 0.131967
H16   H     H_    0.826672 0.280694 0.086768 0.123915
H17   H     H_    0.604816 0.196386 0.120336 0.121910
H18   H     H_    0.442153 0.266766 0.173176 0.102050
H19   H     H_    0.530991 0.700726 0.848018 0.143141
H20   H     H_    0.520489 0.843865 0.810155 0.125233
H21   H     H_    0.385255 0.861961 0.686425 0.133843
H22   H     H_    0.255506 0.733985 0.602452 0.128431
H23   H     H_    0.199086 0.469559 0.336017 0.227938
H24   H     H_    0.254599 0.591315 0.644032 0.118582
H25   H     H_    0.284614 0.320113 0.125957 0.220699
H26   H     H_    0.121223 0.392572 0.180374 0.242546
H27   H     H_    0.071582 0.337619 0.081711 0.235427
H28   H     H_    0.136304 0.451235 0.088494 0.246455
H29   H     H_    0.332898 0.642264 0.933508 0.245947
H30   H     H_    0.076002 0.540901 0.848949 0.239818
H31   H     H_    0.096821 0.629378 0.922303 0.230116
H32   H     H_    0.121344 0.529590 0.955329 0.244866
H33   H     H_    0.089768 0.280188 0.825403 0.123322
H34   H     H_    0.159991 0.564834 0.237821 0.233468
H35   H     H_    0.013915 0.143708 0.890464 0.122212
H36   H     H_    0.169552 0.093105 0.984316 0.122518
H37   H     H_    0.401780 0.179228 0.013180 0.127269
H38   H     H_    0.479328 0.316122 0.948934 0.137022
H39   H     H_    0.372379 0.710169 0.086349 0.129163
H40   H     H_    0.457968 0.835057 0.006025 0.131101
H41   H     H_    0.693162 0.870300 0.968496 0.118797
H42   H     H_    0.843559 0.780502 0.011837 0.125016
H43   H     H_    0.759298 0.655056 0.091632 0.118140
H44   H     H_    0.289683 0.326455 0.651137 0.235576
H45   H     H_    0.038661 0.595351 0.299132 0.250572
H46   H     H_    0.415986 0.225562 0.666218 0.217721
H47   H     H_    0.308783 0.198796 0.747273 0.243306
H48   H     H_    0.474713 0.268340 0.768521 0.233435
H49   H     H_    0.723631 0.636757 0.302443 0.215535
H50   H     H_    0.597854 0.735817 0.344107 0.263994
H51   H     H_    0.568955 0.756983 0.238205 0.246041
H52   H     H_    0.734240 0.787698 0.286830 0.219403
H53   H     H_    0.635136 0.304998 0.658650 0.210007
H54   H     H_    0.853779 0.306063 0.628062 0.209663
H55   H     H_    0.836308 0.411237 0.613404 0.236070
H56   H     H_    0.001952 0.490715 0.246357 0.254783
H57   H     H_    0.822922 0.338454 0.526228 0.240043
H58   H     H_    0.317593 0.638332 0.408177 0.314786
H59   H     H_    0.352806 0.688198 0.284377 0.259330
H60   H     H_    0.390382 0.796999 0.324637 0.250872
H61   H     H_    0.219623 0.735323 0.309319 0.245626
H62   H     H_    0.702140 0.175870 0.647371 0.219259
H63   H     H_    0.844482 0.197012 0.521230 0.213791
H64   H     H_    0.777967 0.084079 0.504629 0.257372
H65   H     H_    0.877377 0.128604 0.597197 0.244234
H66   H     H_    0.226206 0.824977 0.426115 0.258586
H67   H     H_    0.755474 0.493838 0.338973 0.202919
H68   H     H_    0.130647 0.904761 0.506413 0.228228
H69   H     H_    0.287652 0.967152 0.549393 0.260625
H70   H     H_    0.221368 0.861946 0.582096 0.224029
H71   H     H_    0.631174 0.937459 0.713851 0.113215
H72   H     H_    0.824894 0.023856 0.798314 0.115125
H73   H     H_    0.048794 0.060276 0.743007 0.132066
H74   H     H_    0.076902 0.013257 0.601449 0.129662
H75   H     H_    0.883320 0.927804 0.515544 0.107310
H76   H     H_    0.133865 0.072084 0.456456 0.112596
H77   H     H_    0.972628 0.962808 0.368860 0.117419
H78   H     H_    0.673392 0.348598 0.347839 0.251117
H79   H     H_    0.047531 0.894433 0.248738 0.122738
H80   H     H_    0.284555 0.936928 0.215300 0.123615
H81   H     H_    0.446705 0.047859 0.301098 0.118495
H82   H     H_    0.830686 0.339274 0.391880 0.208233
N1    N     N_2   0.337277 0.459727 0.978302 -0.127680
N2    N     N_2   0.274515 0.601510 0.888925 -0.289305
N3    N     N_2   0.331593 0.322731 0.708731 -0.292254
N4    N     N_2   0.663322 0.656985 0.259748 -0.299181
N5    N     N_2   0.657530 0.316688 0.599341 -0.235444
N6    N     N_2   0.325557 0.701921 0.410035 -0.301766
N7    N     N_2   0.682646 0.144633 0.590575 -0.276645
N8    N     N_2   0.296356 0.866603 0.464355 -0.270816
N9    N     N_2   0.385909 0.529812 0.015525 -0.178400
N10   N     N_R   0.515370 0.719110 0.509820 -0.140965
N11   N     N_R   0.484630 0.280890 0.490180 -0.130472
N12   N     N_2   0.534441 0.986643 0.539964 -0.131681
N13   N     N_2   0.500258 0.019251 0.477221 -0.134737
N14   N     N_2   0.136188 0.507784 0.349834 -0.293992
N15   N     N_2   0.826401 0.461659 0.354148 -0.293480
N16   N     N_2   0.277737 0.378879 0.108937 -0.268512
O1    O     O_R   0.494500 0.421750 0.612630 -0.580003
O2    O     O_R   0.505500 0.578250 0.387370 -0.610672
O3    O     O_R   0.504370 0.562470 0.618930 -0.610112
O4    O     O_R   0.495630 0.437530 0.381070 -0.604739
O5    O     O_R   0.679100 0.455920 0.498020 -0.558277
O6    O     O_R   0.320900 0.544080 0.501980 -0.630060
O7    O     O_R   0.688960 0.596630 0.504320 -0.596784
O8    O     O_R   0.311040 0.403370 0.495680 -0.609184
Zn1   Zn    Zn3+2 0.493410 0.406040 0.495790 0.944643
Zn2   Zn    Zn3+2 0.506590 0.593960 0.504210 0.926143

loop_
_geom_bond_atom_site_label_1
_geom_bond_atom_site_label_2
_ccdc_geom_bond_type
C66   C68   A    
C83   H76   S    
C76   H71   S    
C70   H52   S    
C69   H46   S    
C54   H32   S    
C78   N7    S    
C41   C42   A    
C35   C36   A    
O3    Zn2   S    
C75   C76   A    
C7    O5    A    
C42   H15   S    
C35   H8    S    
C40   C46   A    
C28   C29   A    
C67   C88   A    
C37   C38   A    
C34   N4    S    
O6    Zn2   S    
C36   C37   A    
C19   C21   A    
C30   H5    S    
C72   H61   S    
C19   N16   S    
C30   C31   A    
C26   N15   S    
C38   H11   S    
C48   H19   S    
C56   N11   A    
C52   H24   S    
C82   C87   A    
C12   O2    A    
C46   H18   S    
C56   C78   A    
C41   H14   S    
C15   C17   A    
C43   H16   S    
O2    Zn2   S    
C84   H77   S    
C45   N10   A    
C17   C19   A    
C5    C27   S    
C83   C84   A    
C10   H1    S    
C71   N5    S    
C64   H40   S    
H58   N6    S    
C45   C67   A    
C8    O8    A    
C36   H9    S    
C7    O7    A    
C29   C30   A    
C25   H45   S    
C25   H34   S    
C15   C34   A    
N10   Zn2   S    
C25   N14   S    
H44   N3    S    
C73   N7    S    
C13   N14   S    
C77   C79   A    
O8    Zn1   S    
C3    C88   A    
C59   C60   A    
C69   H47   S    
C54   H31   S    
C73   H63   S    
C81   H75   S    
N1    N9    D    
C69   N3    S    
C79   H73   S    
C70   H51   S    
C16   C47   S    
C37   H10   S    
C44   C46   A    
C39   H13   S    
C49   H20   S    
C1    O1    A    
C74   H70   S    
C6    N11   A    
C51   C52   A    
C85   H79   S    
C54   N2    S    
C86   H80   S    
C84   C85   A    
C4    C6    A    
H67   N15   S    
C45   N6    S    
C86   C87   A    
C75   C81   A    
C56   N5    S    
C60   H37   S    
C58   C59   A    
C85   C86   A    
C10   C13   D    
C50   H21   S    
C24   C34   A    
C63   C64   A    
C60   C61   A    
C17   C40   S    
C14   C23   A    
C68   H43   S    
C2    C4    A    
C43   C44   A    
C5    N10   A    
C62   C63   A    
C2    C78   A    
C70   N4    S    
C88   N12   S    
C47   C48   A    
C74   N8    S    
C12   C15   S    
O7    Zn2   S    
C32   H7    S    
C50   C51   A    
C58   H35   S    
C74   H68   S    
C55   C57   A    
C33   C39   A    
C76   C77   A    
C9    C11   D    
C80   H74   S    
C61   H38   S    
O4    Zn1   S    
H62   N7    S    
C8    C10   S    
C48   C49   A    
C71   H57   S    
C20   C22   A    
C82   C83   A    
C51   H22   S    
C71   H54   S    
C73   H64   S    
C14   C16   A    
C25   H56   S    
C26   H2    S    
C42   C43   A    
C73   H65   S    
C31   H6    S    
C3    C75   S    
C53   H26   S    
C44   H17   S    
C71   H55   S    
C59   H36   S    
C7    C9    S    
C26   H78   S    
C24   C62   S    
C74   H69   S    
O1    Zn1   S    
C27   C32   A    
C11   N15   S    
C31   C32   A    
C53   N16   S    
C80   C81   A    
C3    C5    A    
C67   N8    S    
C65   H41   S    
C53   H28   S    
C70   H50   S    
C22   C55   S    
C23   N3    S    
C18   N2    S    
C69   H48   S    
C72   H59   S    
C12   O4    A    
C6    C33   S    
C62   C68   A    
C64   C65   A    
C54   H30   S    
H49   N4    S    
C72   H60   S    
C11   C13   S    
H29   N2    S    
C57   C58   A    
C38   C39   A    
C8    O6    A    
H25   N16   S    
C55   C61   A    
H23   N14   S    
C33   C35   A    
C9    H12   S    
C28   H3    S    
C18   C20   A    
C2    N13   S    
C65   C66   A    
N11   Zn1   S    
C72   N6    S    
O5    Zn1   S    
C77   H72   S    
C57   H33   S    
C79   C80   A    
H66   N8    S    
C53   H27   S    
C21   N9    S    
C20   N1    S    
C4    C82   S    
C26   H82   S    
C16   C18   A    
C49   C50   A    
C21   C24   A    
C47   C52   A    
C27   C28   A    
H53   N5    S    
C22   C23   A    
C40   C41   A    
C1    C14   S    
C29   H4    S    
C63   H39   S    
N12   N13   D    
C1    O3    A    
C66   H42   S    
C87   H81   S    
