data_mof_unit_24037.cif
_audit_creation_date              2013-03-05T15:45:39-0500
_audit_creation_method            fapswitch 2.2
_symmetry_space_group_name_H-M    P1
_symmetry_Int_Tables_number       1
_space_group_crystal_system       triclinic
_cell_length_a                    15.104631
_cell_length_b                    11.044695
_cell_length_c                    9.980225
_cell_angle_alpha                 110.886071
_cell_angle_beta                  99.064446
_cell_angle_gamma                 92.264142
_cell_volume                      1527.85122996

loop_
_atom_site_label
_atom_site_type_symbol
_atom_site_description
_atom_site_fract_x
_atom_site_fract_y
_atom_site_fract_z
_atom_type_partial_charge
O1    O     O_R   0.508410 0.332340 0.577400 -0.568242
O2    O     O_R   0.491590 0.667660 0.422600 -0.479620
O3    O     O_R   0.481780 0.295500 0.332650 -0.601788
O4    O     O_R   0.518220 0.704500 0.667350 -0.588840
C1    C     C_R   0.498317 0.254784 0.441639 0.812833
C2    C     C_R   0.510697 0.744775 0.558552 0.888580
O5    O     O_R   0.383570 0.518390 0.622380 -0.483661
O6    O     O_R   0.616430 0.481610 0.377620 -0.544731
O7    O     O_R   0.356940 0.481550 0.377630 -0.609647
O8    O     O_R   0.643060 0.518450 0.622370 -0.605279
C3    C     C_R   0.329731 0.501949 0.500746 0.864586
C4    C     C_R   0.671087 0.499929 0.500317 0.852718
Cu1   Cu    Cu3+1 0.515770 0.521810 0.644910 1.057272
Cu2   Cu    Cu3+1 0.484230 0.478190 0.355090 1.059299
C5    C     C_R   0.830250 0.591706 0.614888 -0.078824
C6    C     C_R   0.176903 0.384766 0.425675 -0.077542
C7    C     C_R   0.768467 0.497980 0.501166 -0.203651
C8    C     C_R   0.233617 0.500686 0.501722 -0.200665
C9    C     C_R   0.799512 0.400545 0.388518 0.293170
C10   C     C_R   0.198919 0.615158 0.580522 0.284113
C11   C     C_R   0.893687 0.392794 0.393322 -0.043799
C12   C     C_R   0.107335 0.610233 0.594571 -0.048256
C13   C     C_R   0.954120 0.499422 0.496113 0.023810
C14   C     C_R   0.047738 0.500311 0.497605 0.023207
C15   C     C_R   0.921102 0.604721 0.599405 0.072148
C16   C     C_R   0.082390 0.390653 0.403710 0.084048
C17   C     C_R   0.929053 0.285228 0.295417 -0.079122
C18   C     C_R   0.073685 0.715043 0.697172 -0.067933
C19   C     C_R   0.022238 0.289663 0.293320 -0.050445
C20   C     C_R   0.980185 0.718029 0.688751 -0.051549
C21   C     C_2   0.500077 0.115320 0.414366 -0.199689
C22   C     C_2   0.545164 0.876664 0.583838 -0.185186
C23   C     C_2   0.533089 0.077155 0.527242 -0.048703
C24   C     C_2   0.493331 0.954671 0.533632 -0.097662
N1    N     N_2   0.460520 0.445420 0.137370 -0.295558
N2    N     N_2   0.539480 0.554580 0.862630 -0.293121
C25   C     C_2   0.514632 0.501273 0.078988 0.036362
C26   C     C_2   0.500622 0.477871 0.917414 0.030498
C27   C     C_2   0.801804 0.666794 0.755112 0.453495
H1    H     H_    0.740990 0.715382 0.756330 0.055035
O9    O     O_2   0.846452 0.673151 0.871122 -0.532939
C28   C     C_2   0.217580 0.258456 0.387190 0.457360
H2    H     H_    0.283360 0.250614 0.356040 0.035058
O10   O     O_2   0.179491 0.163208 0.397113 -0.522940
N3    N     N_R   0.734581 0.310361 0.270502 0.102315
O11   O     O_R   0.727016 0.313628 0.140189 -0.352713
O12   O     O_R   0.680394 0.228820 0.294379 -0.348408
N4    N     N_R   0.253575 0.738055 0.630885 0.106293
O13   O     O_R   0.223500 0.832757 0.594030 -0.287280
O14   O     O_R   0.327987 0.760530 0.725432 -0.325876
C29   C     C_2   0.871227 0.162361 0.203672 0.449341
H3    H     H_    0.832222 0.112551 0.254654 0.134400
O15   O     O_2   0.864716 0.118435 0.071152 -0.501824
C30   C     C_2   0.136241 0.813217 0.823334 0.450919
H4    H     H_    0.190531 0.780704 0.883030 0.127099
O16   O     O_2   0.130661 0.929974 0.856974 -0.491636
C31   C     C_2   0.054822 0.194350 0.167306 0.533745
H5    H     H_    0.030390 0.091785 0.126704 0.097384
O17   O     O_2   0.108236 0.230863 0.106087 -0.503614
C32   C     C_2   0.944835 0.843903 0.763442 0.521038
H6    H     H_    0.971673 0.902018 0.876896 0.113801
O18   O     O_2   0.885376 0.883860 0.697134 -0.487648
C33   C     C_2   0.393003 0.927751 0.491899 0.502385
H7    H     H_    0.352377 0.009067 0.509549 0.091319
O19   O     O_2   0.355452 0.817338 0.429814 -0.450130
C34   C     C_2   0.602535 0.161530 0.654530 0.503892
H8    H     H_    0.604205 0.155201 0.760930 0.041942
O20   O     O_2   0.661113 0.232550 0.639374 -0.468240
C35   C     C_2   0.644644 0.901187 0.627355 0.374585
H9    H     H_    0.677001 0.892214 0.727749 0.075221
O21   O     O_2   0.690930 0.925733 0.548518 -0.411457
C36   C     C_2   0.455345 0.021609 0.267946 0.449141
H10   H     H_    0.413821 0.056013 0.192552 0.081332
O22   O     O_2   0.466435 0.906134 0.228541 -0.421904
C37   C     C_2   0.452402 0.349513 0.821627 0.489535
H11   H     H_    0.474067 0.262421 0.837563 -0.030207
O23   O     O_2   0.382972 0.340530 0.736175 -0.500550
C38   C     C_2   0.603470 0.568275 0.162952 0.439576
H12   H     H_    0.664148 0.528587 0.128321 0.087988
O24   O     O_2   0.609958 0.673811 0.262170 -0.474496
C39   C     C_2   0.565488 0.687520 0.951945 0.668820
H13   H     H_    0.634890 0.719595 0.007002 0.018852
O25   O     O_2   0.510672 0.766995 0.962132 -0.443792
C40   C     C_2   0.367144 0.412344 0.073785 0.643829
H14   H     H_    0.330324 0.332405 0.087256 0.057889
O26   O     O_2   0.326313 0.478261 0.014043 -0.487065

loop_
_geom_bond_atom_site_label_1
_geom_bond_atom_site_label_2
_geom_bond_distance
_ccdc_geom_bond_type
C34   O20   1.221869 D    
C33   O19   1.220082 D    
C3    C8    1.452870 S    
C17   C19   1.410156 A    
C2    C22   1.446783 S    
C37   H11   1.084063 S    
C39   H13   1.084752 S    
C27   O9    1.221685 D    
N3    O11   1.301062 A    
O5    C3    1.299251 A    
O1    C1    1.299944 A    
C9    C11   1.422723 A    
C40   O26   1.222714 D    
C38   O24   1.219100 D    
C5    C15   1.412372 A    
C32   O18   1.221294 D    
O4    Cu1   1.947343 S    
C35   O21   1.221395 D    
C20   C32   1.489525 S    
C4    C7    1.470635 S    
C13   C14   1.411404 A    
C21   C23   1.368789 D    
N4    O14   1.300799 A    
C34   H8    1.085243 S    
C11   C17   1.427730 A    
C12   C18   1.418518 A    
Cu1   Cu2   2.716527 S    
O2    C2    1.297267 A    
C28   O10   1.221431 D    
C39   O25   1.219300 D    
C17   C29   1.487019 S    
C23   C34   1.497113 S    
C26   C37   1.478811 S    
N3    O12   1.301532 A    
C6    C16   1.417454 A    
C30   O16   1.221297 D    
C29   H3    1.084934 S    
C40   H14   1.084571 S    
Cu1   N2    2.040719 S    
C36   O22   1.220375 D    
C27   H1    1.081526 S    
C18   C30   1.491513 S    
C38   H12   1.084028 S    
C32   H6    1.083983 S    
C29   O15   1.221472 D    
C22   C24   1.357878 D    
O7    Cu2   1.970939 S    
C25   C26   1.517526 S    
O7    C3    1.303257 A    
N2    C39   1.419732 S    
O6    C4    1.309056 A    
C23   C24   1.484637 S    
C37   O23   1.219260 D    
C5    C27   1.490299 S    
C10   N4    1.439046 S    
O3    Cu2   1.947344 S    
O8    C4    1.302508 A    
O4    C2    1.303580 A    
N4    O13   1.301875 A    
C10   C12   1.413108 A    
C11   C13   1.425179 A    
C12   C14   1.422055 A    
O1    Cu1   1.948883 S    
C28   H2    1.084563 S    
C6    C28   1.493730 S    
Cu2   N1    2.040719 S    
C15   C20   1.422329 A    
C5    C7    1.408126 A    
C30   H4    1.085455 S    
C21   C36   1.489431 S    
O6    Cu2   1.971252 S    
N1    C25   1.324603 D    
C14   C16   1.419274 A    
C19   C31   1.491335 S    
C36   H10   1.085327 S    
O3    C1    1.311420 A    
O8    Cu1   1.970939 S    
N1    C40   1.427372 S    
C9    N3    1.436530 S    
C22   C35   1.482615 S    
C25   C38   1.474970 S    
C18   C20   1.403913 A    
C31   H5    1.084522 S    
N2    C26   1.324138 D    
C24   C33   1.495195 S    
C7    C9    1.408983 A    
C8    C10   1.401755 A    
C13   C15   1.420200 A    
C35   H9    1.083024 S    
O2    Cu2   1.948883 S    
C31   O17   1.221520 D    
C33   H7    1.085818 S    
O5    Cu1   1.971252 S    
C16   C19   1.418355 A    
C6    C8    1.401667 A    
C1    C21   1.467651 S    
