data_mof_unit_44875.cif
_audit_creation_date              2012-12-11T20:50:47-0500
_audit_creation_method            fapswitch 2.2
_symmetry_space_group_name_H-M    P1
_symmetry_Int_Tables_number       1
_space_group_crystal_system       triclinic
_cell_length_a                    30.510366
_cell_length_b                    34.178926
_cell_length_c                    8.542433
_cell_angle_alpha                 90.17456
_cell_angle_beta                  90.693298
_cell_angle_gamma                 89.858976
_cell_volume                      8907.42805494

loop_
_atom_site_label
_atom_site_type_symbol
_atom_type_description
_atom_site_fract_x
_atom_site_fract_y
_atom_site_fract_z
_atom_type_partial_charge
Ba1   Ba    Ba6+2 0.999930 0.472870 0.844940 1.649184
Ba2   Ba    Ba6+2 0.999930 0.527130 0.344940 1.645706
Ba3   Ba    Ba6+2 0.499930 0.972870 0.844940 1.643156
Ba4   Ba    Ba6+2 0.499930 0.027130 0.344940 1.630995
C1    C     C_3   0.038943 0.293692 0.670255 -0.314009
C2    C     C_3   0.032552 0.707549 0.203783 -0.305988
C3    C     C_3   0.538574 0.793722 0.669825 -0.313833
C4    C     C_3   0.538347 0.205636 0.201935 -0.298466
C5    C     C_R   0.245128 0.699694 0.043104 -0.045078
C6    C     C_R   0.246208 0.302401 0.536702 -0.035607
C7    C     C_R   0.745694 0.199250 0.043868 -0.045363
C8    C     C_R   0.745962 0.802093 0.537092 -0.035592
C9    C     C_R   0.213684 0.671490 0.996387 0.631455
C10   C     C_R   0.214356 0.330710 0.491733 0.589900
C11   C     C_R   0.714243 0.171088 0.996657 0.632303
C12   C     C_R   0.714205 0.830481 0.492067 0.589908
C13   C     C_R   0.156541 0.719577 0.009841 0.582128
C14   C     C_R   0.158338 0.281747 0.493715 0.577325
C15   C     C_R   0.657298 0.219406 0.006889 0.579931
C16   C     C_R   0.658019 0.781672 0.494212 0.577566
C17   C     C_R   0.187304 0.748498 0.056718 -0.030459
C18   C     C_R   0.189046 0.253228 0.544524 -0.029112
C19   C     C_R   0.688016 0.248225 0.055120 -0.029850
C20   C     C_R   0.688629 0.753080 0.545070 -0.028965
C21   C     C_R   0.231875 0.738437 0.074316 -0.056430
C22   C     C_R   0.233334 0.263529 0.565741 -0.054230
C23   C     C_R   0.732498 0.238039 0.074442 -0.056491
C24   C     C_R   0.732954 0.763262 0.566217 -0.054058
C25   C     C_R   0.289543 0.689764 0.059568 -0.109904
C26   C     C_R   0.290631 0.312228 0.553472 -0.104530
C27   C     C_R   0.790055 0.189234 0.061532 -0.110065
C28   C     C_R   0.790420 0.811800 0.553823 -0.104393
C29   C     C_R   0.821282 0.216823 0.110180 0.160875
C30   C     C_R   0.821881 0.783791 0.598324 0.155021
C31   C     C_R   0.320771 0.717383 0.107820 0.160802
C32   C     C_R   0.322186 0.284301 0.597930 0.154888
C33   C     C_R   0.808483 0.256033 0.142584 -0.004203
C34   C     C_R   0.809177 0.744582 0.629702 -0.006650
C35   C     C_R   0.307926 0.756553 0.140743 -0.004306
C36   C     C_R   0.309618 0.245052 0.629233 -0.006401
C37   C     C_R   0.763849 0.266660 0.123591 -0.122147
C38   C     C_R   0.764324 0.734493 0.614869 -0.122623
C39   C     C_R   0.263253 0.767124 0.122566 -0.122240
C40   C     C_R   0.264801 0.234841 0.614366 -0.122798
C41   C     C_R   0.174304 0.787162 0.087461 -0.104954
C42   C     C_R   0.176158 0.214627 0.574972 -0.105808
C43   C     C_R   0.675048 0.286914 0.085533 -0.104763
C44   C     C_R   0.675605 0.714522 0.575626 -0.105460
C45   C     C_3   0.998761 0.313120 0.148801 0.277360
C46   C     C_3   0.990431 0.669710 0.680429 0.338713
C47   C     C_3   0.498476 0.813338 0.148837 0.276714
C48   C     C_3   0.491010 0.170053 0.678829 0.342828
C49   C     C_R   0.705292 0.315356 0.135724 0.152905
C50   C     C_R   0.705645 0.686187 0.628188 0.154005
C51   C     C_R   0.204614 0.815712 0.136132 0.153296
C52   C     C_R   0.206295 0.186368 0.627509 0.153610
C53   C     C_R   0.750331 0.305577 0.155761 -0.010575
C54   C     C_R   0.750652 0.695802 0.648588 -0.020513
C55   C     C_R   0.249730 0.806043 0.154709 -0.010499
C56   C     C_R   0.251266 0.196106 0.647993 -0.020306
C57   C     C_R   0.782272 0.333366 0.206647 0.594146
C58   C     C_R   0.782374 0.668015 0.701272 0.642592
C59   C     C_R   0.281736 0.833927 0.204269 0.594864
C60   C     C_R   0.283084 0.168400 0.700665 0.641428
C61   C     C_R   0.838968 0.284886 0.192870 0.598675
C62   C     C_R   0.839912 0.715128 0.674041 0.601052
C63   C     C_R   0.338400 0.785402 0.190988 0.599494
C64   C     C_R   0.340455 0.215678 0.673509 0.600663
C65   C     C_2   0.113720 0.652334 0.803462 -0.106346
C66   C     C_2   0.111674 0.346746 0.300067 -0.101419
C67   C     C_2   0.614217 0.152054 0.802461 -0.105600
C68   C     C_2   0.611632 0.846728 0.300126 -0.101465
C69   C     C_3   0.089752 0.618313 0.755094 -0.024895
C70   C     C_3   0.071407 0.368074 0.283606 -0.078615
C71   C     C_3   0.590043 0.118102 0.754586 -0.024388
C72   C     C_3   0.571394 0.868086 0.283551 -0.077849
C73   C     C_1   0.097036 0.589409 0.012559 0.061008
C74   C     C_1   0.094536 0.410245 0.508002 0.099226
C75   C     C_1   0.597247 0.089352 0.012319 0.060013
C76   C     C_1   0.594491 0.910230 0.508068 0.100164
C77   C     C_2   0.130016 0.616546 0.051670 0.086105
C78   C     C_2   0.126131 0.382485 0.550210 0.072066
C79   C     C_2   0.630349 0.116408 0.051117 0.082851
C80   C     C_2   0.626054 0.882446 0.550349 0.072212
C81   C     C_2   0.137481 0.651126 0.946131 0.252186
C82   C     C_2   0.137460 0.350132 0.437307 0.206563
C83   C     C_2   0.638011 0.150872 0.945076 0.250466
C84   C     C_2   0.637374 0.850085 0.437472 0.206536
C85   C     C_R   0.882592 0.348367 0.392154 -0.088658
C86   C     C_R   0.883118 0.652961 0.885920 -0.141024
C87   C     C_R   0.381801 0.848858 0.391190 -0.086014
C88   C     C_R   0.384144 0.153785 0.884782 -0.137387
C89   C     C_3   0.975436 0.275171 0.102172 -0.046052
C90   C     C_3   0.985061 0.710350 0.753872 -0.069941
C91   C     C_3   0.474919 0.775504 0.102267 -0.046715
C92   C     C_3   0.485590 0.210910 0.750251 -0.069105
C93   C     C_R   0.918831 0.375164 0.430527 -0.013661
C94   C     C_R   0.917357 0.624306 0.929385 -0.037217
C95   C     C_R   0.418017 0.875653 0.430577 -0.014062
C96   C     C_R   0.418706 0.125414 0.927865 -0.010632
C97   C     C_R   0.902823 0.412148 0.192252 0.066495
C98   C     C_R   0.901419 0.587450 0.691419 0.012630
C99   C     C_R   0.403008 0.912030 0.190184 0.084501
C100  C     C_R   0.402040 0.087896 0.690925 0.025202
C101  C     C_R   0.869110 0.384631 0.155229 0.064881
C102  C     C_R   0.866317 0.614197 0.658034 0.072864
C103  C     C_R   0.368948 0.884949 0.153166 0.067563
C104  C     C_R   0.366978 0.114686 0.657790 0.080449
C105  C     C_R   0.859404 0.352650 0.257617 0.206671
C106  C     C_R   0.859142 0.647955 0.753314 0.257162
C107  C     C_R   0.358878 0.853105 0.255833 0.199456
C108  C     C_R   0.359920 0.148539 0.752792 0.254745
C109  C     C_2   0.070506 0.598411 0.884934 -0.286204
C110  C     C_2   0.066883 0.402533 0.380766 -0.310117
C111  C     C_2   0.570753 0.098331 0.884620 -0.286522
C112  C     C_2   0.566855 0.902537 0.380766 -0.310045
C113  C     C_3   0.141209 0.474982 0.136936 0.500402
C114  C     C_3   0.144101 0.522270 0.637215 0.534521
C115  C     C_3   0.641142 0.974936 0.137068 0.500669
C116  C     C_3   0.644302 0.022129 0.637343 0.534552
C117  C     C_3   0.177785 0.457364 0.031150 -0.083485
C118  C     C_3   0.186509 0.537130 0.557315 -0.108766
C119  C     C_3   0.677707 0.957273 0.031332 -0.083740
C120  C     C_3   0.686883 0.036855 0.558189 -0.108372
C121  C     C_3   0.851881 0.507680 0.950957 0.452811
C122  C     C_3   0.865281 0.481045 0.472672 0.381702
C123  C     C_3   0.364836 0.019342 0.978836 0.387546
C124  C     C_3   0.364967 0.980589 0.478732 0.382862
C125  C     C_3   0.812766 0.483903 0.891068 -0.301351
C126  C     C_3   0.820345 0.475910 0.394492 -0.281544
C127  C     C_3   0.320033 0.024888 0.900586 -0.274581
C128  C     C_3   0.320381 0.975351 0.398568 -0.280176
C129  C     C_3   0.016478 0.332335 0.632621 0.342455
C130  C     C_3   0.012839 0.668633 0.153723 0.309789
C131  C     C_3   0.516205 0.832433 0.632651 0.339559
C132  C     C_3   0.516752 0.167868 0.147732 0.306263
C133  C     C_R   0.928390 0.406716 0.319314 -0.286197
C134  C     C_R   0.926657 0.592575 0.819213 -0.297028
C135  C     C_R   0.427953 0.906950 0.319035 -0.302424
C136  C     C_R   0.427880 0.093553 0.817163 -0.276002
H1    H     H_    0.166667 0.457242 0.907226 0.136965
H2    H     H_    0.181933 0.536342 0.428310 0.095694
H3    H     H_    0.666590 0.957144 0.907403 0.137239
H4    H     H_    0.682490 0.036060 0.429113 0.095498
H5    H     H_    0.800099 0.496068 0.778986 0.099645
H6    H     H_    0.820831 0.450728 0.312108 0.100746
H7    H     H_    0.320283 0.050961 0.823545 0.103659
H8    H     H_    0.320852 0.949385 0.320188 0.109384
H9    H     H_    0.074828 0.298341 0.677664 0.121129
H10   H     H_    0.068728 0.704783 0.212160 0.129334
H11   H     H_    0.574447 0.798360 0.678456 0.121341
H12   H     H_    0.574315 0.201278 0.211606 0.124617
H13   H     H_    0.028292 0.282297 0.784876 0.135650
H14   H     H_    0.020090 0.716203 0.320261 0.137818
H15   H     H_    0.527645 0.782130 0.783782 0.134978
H16   H     H_    0.525975 0.214253 0.318582 0.140368
H17   H     H_    0.875243 0.324739 0.471754 0.098927
H18   H     H_    0.877325 0.677922 0.961295 0.103799
H19   H     H_    0.374225 0.825287 0.470773 0.099771
H20   H     H_    0.378386 0.178820 0.959796 0.100696
H21   H     H_    0.953822 0.427534 0.349047 0.072096
H22   H     H_    0.952259 0.571828 0.848772 0.087096
H23   H     H_    0.453281 0.927812 0.349450 0.074193
H24   H     H_    0.453699 0.072957 0.845924 0.077466
H25   H     H_    0.035966 0.590964 0.884527 0.058306
H26   H     H_    0.036837 0.419327 0.368667 0.073063
H27   H     H_    0.536176 0.091030 0.884423 0.057052
H28   H     H_    0.536792 0.919313 0.368718 0.074188
H29   H     H_    0.024525 0.304923 0.235931 -0.013832
H30   H     H_    0.995293 0.648693 0.778079 -0.111042
H31   H     H_    0.524097 0.805065 0.236391 -0.013339
H32   H     H_    0.495845 0.149336 0.777445 -0.117267
H33   H     H_    0.999788 0.253788 0.056968 0.076293
H34   H     H_    0.014584 0.717238 0.826250 0.106461
H35   H     H_    0.499149 0.753969 0.057368 0.077130
H36   H     H_    0.515084 0.218064 0.822383 0.107689
N1    N     N_R   0.169686 0.681239 0.985133 -0.418936
N2    N     N_R   0.170651 0.320478 0.474728 -0.426515
N3    N     N_R   0.670300 0.180958 0.983847 -0.418824
N4    N     N_R   0.670466 0.820363 0.475088 -0.426545
N5    N     N_R   0.826229 0.323360 0.216280 -0.441696
N6    N     N_R   0.826459 0.677460 0.708602 -0.431145
N7    N     N_R   0.325678 0.823887 0.214116 -0.441839
N8    N     N_R   0.327137 0.177971 0.708117 -0.431004
O1    O     O_2   0.914200 0.445720 0.903420 -0.468756
O2    O     O_2   0.914200 0.554280 0.403420 -0.448883
O3    O     O_2   0.414200 0.945720 0.903420 -0.452410
O4    O     O_2   0.414200 0.054280 0.403420 -0.478472
O5    O     O_3   0.142153 0.481149 0.618248 -0.646640
O6    O     O_3   0.140601 0.516120 0.114322 -0.658035
O7    O     O_3   0.642227 0.981021 0.618341 -0.646466
O8    O     O_3   0.640569 0.016068 0.114389 -0.657549
O9    O     O_3   0.017321 0.330381 0.016115 -0.583337
O10   O     O_3   0.025486 0.670323 0.575171 -0.602916
O11   O     O_3   0.517305 0.830382 0.016203 -0.584567
O12   O     O_3   0.526156 0.170338 0.574031 -0.601833
O13   O     O_3   0.049930 0.518940 0.045960 -0.473234
O14   O     O_3   0.049930 0.481060 0.545960 -0.489606
O15   O     O_3   0.549930 0.018940 0.045960 -0.473524
O16   O     O_3   0.549930 0.981060 0.545960 -0.489374
O17   O     O_2   0.225576 0.638277 0.964221 -0.594387
O18   O     O_2   0.225671 0.364317 0.465815 -0.603786
O19   O     O_2   0.726090 0.137812 0.965363 -0.594264
O20   O     O_2   0.725632 0.864054 0.466075 -0.603725
O21   O     O_2   0.118051 0.728548 0.991482 -0.619409
O22   O     O_2   0.120543 0.271979 0.466293 -0.622661
O23   O     O_2   0.618973 0.228578 0.985766 -0.620533
O24   O     O_2   0.620189 0.772006 0.466857 -0.622644
O25   O     O_2   0.770953 0.366260 0.245299 -0.570559
O26   O     O_2   0.770813 0.635455 0.742038 -0.548016
O27   O     O_2   0.270480 0.866923 0.241702 -0.569469
O28   O     O_2   0.271635 0.135796 0.741289 -0.553354
O29   O     O_2   0.877025 0.275706 0.217824 -0.577963
O30   O     O_2   0.878883 0.722886 0.681128 -0.581828
O31   O     O_2   0.376434 0.776204 0.216291 -0.577805
O32   O     O_2   0.379400 0.223542 0.680451 -0.582399
O33   O     O_3   0.950020 0.480960 0.143730 -0.471360
O34   O     O_3   0.950020 0.519040 0.643730 -0.487749
O35   O     O_3   0.450020 0.980960 0.143730 -0.495959
O36   O     O_3   0.450020 0.019040 0.643730 -0.486719
O37   O     O_3   0.985090 0.412220 0.642040 -0.495765
O38   O     O_3   0.985090 0.587780 0.142040 -0.487555
O39   O     O_3   0.485090 0.912220 0.642040 -0.497338
O40   O     O_3   0.485090 0.087780 0.142040 -0.496745
O41   O     O_2   0.913202 0.380139 0.755900 -0.456702
O42   O     O_2   0.910994 0.617490 0.250213 -0.470088
O43   O     O_2   0.413271 0.879975 0.756600 -0.454274
O44   O     O_2   0.413284 0.120677 0.252171 -0.470086
O45   O     O_3   0.866385 0.492000 0.093911 -0.641748
O46   O     O_3   0.862841 0.512287 0.578515 -0.665067
O47   O     O_3   0.362427 0.987279 0.080070 -0.647925
O48   O     O_3   0.362497 0.012822 0.579644 -0.659639
O49   O     O_3   0.971794 0.329699 0.667440 -0.602881
O50   O     O_3   0.967228 0.670190 0.171692 -0.596406
O51   O     O_3   0.471351 0.829609 0.664385 -0.603868
O52   O     O_3   0.471277 0.171076 0.166340 -0.595473
O53   O     O_2   0.085560 0.445380 0.786390 -0.434643
O54   O     O_2   0.085560 0.554620 0.286390 -0.467649
O55   O     O_2   0.585560 0.945380 0.786390 -0.434374
O56   O     O_2   0.585560 0.054620 0.286390 -0.466805
O57   O     O_3   0.014550 0.412170 0.047860 -0.447727
O58   O     O_3   0.014550 0.587830 0.547860 -0.463655
O59   O     O_3   0.514550 0.912170 0.047860 -0.447256
O60   O     O_3   0.514550 0.087830 0.547860 -0.461986
O61   O     O_2   0.084004 0.373940 0.951258 -0.492245
O62   O     O_2   0.080342 0.626764 0.428612 -0.512438
O63   O     O_2   0.583993 0.873928 0.951194 -0.492304
O64   O     O_2   0.580637 0.126342 0.428414 -0.513382
P1    P     P_3+3 0.909970 0.458430 0.077330 0.999132
P2    P     P_3+3 0.909970 0.541570 0.577330 0.966704
P3    P     P_3+3 0.409970 0.958430 0.077330 0.997665
P4    P     P_3+3 0.409970 0.041570 0.577330 0.959391
P5    P     P_3+3 0.089830 0.458070 0.612460 1.002616
P6    P     P_3+3 0.089830 0.541930 0.112460 0.979482
P7    P     P_3+3 0.589830 0.958070 0.612460 1.002960
P8    P     P_3+3 0.589830 0.041930 0.112460 0.979707
P9    P     P_3+3 0.047842 0.371079 0.076535 0.945967
P10   P     P_3+3 0.052740 0.625316 0.579115 0.944127
P11   P     P_3+3 0.547837 0.871079 0.076497 0.945486
P12   P     P_3+3 0.552994 0.125143 0.578784 0.946294
P13   P     P_3+3 0.945132 0.624541 0.121896 0.967488
P14   P     P_3+3 0.946734 0.374455 0.623424 0.962360
P15   P     P_3+3 0.446986 0.126047 0.120658 0.957215
P16   P     P_3+3 0.446450 0.874590 0.622770 0.961836
H37   H     H_    0.032533 0.355422 0.704781 0.106674
H38   H     H_    0.027224 0.645599 0.229136 0.116063
H39   H     H_    0.531873 0.855321 0.706880 0.108715
H40   H     H_    0.530196 0.143801 0.220020 0.115130
H41   H     H_    0.207325 0.476282 0.038912 0.100054
H42   H     H_    0.214663 0.517704 0.587925 0.094176
H43   H     H_    0.707267 0.976166 0.039083 0.099993
H44   H     H_    0.714925 0.017354 0.589357 0.094217
N9    N     N_3   0.191083 0.417367 0.072319 -0.503678
H45   H     H_    0.200137 0.415548 0.190365 0.225627
H46   H     H_    0.165580 0.397774 0.049888 0.201744
N10   N     N_3   0.196731 0.577453 0.602990 -0.510640
H47   H     H_    0.211323 0.577223 0.714371 0.222756
H48   H     H_    0.220559 0.587916 0.526853 0.189814
N11   N     N_3   0.690964 0.917270 0.072576 -0.503630
H49   H     H_    0.699994 0.915448 0.190642 0.225435
H50   H     H_    0.665449 0.897691 0.050094 0.201860
N12   N     N_3   0.697184 0.077157 0.603950 -0.510657
H51   H     H_    0.711623 0.076905 0.715580 0.222772
H52   H     H_    0.721155 0.087542 0.528215 0.189767
H53   H     H_    0.878389 0.508392 0.863653 0.039205
H54   H     H_    0.889735 0.485751 0.380171 0.076974
H55   H     H_    0.389392 0.015406 0.885423 0.050783
H56   H     H_    0.389915 0.984092 0.386555 0.051551
N13   N     N_3   0.837084 0.547691 0.979653 -0.475579
H57   H     H_    0.863084 0.563332 0.029830 0.168430
H58   H     H_    0.829523 0.560816 0.872307 0.155911
N14   N     N_3   0.876790 0.445703 0.557495 -0.527712
H59   H     H_    0.906652 0.450990 0.614250 0.217882
H60   H     H_    0.853524 0.440279 0.643065 0.187209
N15   N     N_3   0.375570 0.054101 0.069527 -0.518755
H61   H     H_    0.407146 0.049809 0.114408 0.214136
H62   H     H_    0.354469 0.056077 0.164915 0.189560
N16   N     N_3   0.375069 0.945965 0.570394 -0.517560
H63   H     H_    0.406464 0.950179 0.616854 0.214095
H64   H     H_    0.353583 0.944399 0.664733 0.201188
H65   H     H_    0.822375 0.453128 0.872270 0.093553
H66   H     H_    0.811338 0.502817 0.328906 0.130319
H67   H     H_    0.311640 0.998679 0.829296 0.110158
H68   H     H_    0.312190 0.001718 0.328346 0.107679
H69   H     H_    0.786029 0.484575 0.978216 0.123272
H70   H     H_    0.794902 0.470565 0.483826 0.108564
H71   H     H_    0.294357 0.029010 0.990330 0.113418
H72   H     H_    0.294433 0.971229 0.487128 0.114423
H73   H     H_    0.020740 0.338533 0.506466 -0.062765
H74   H     H_    0.021540 0.662835 0.030051 -0.046502
H75   H     H_    0.521051 0.839006 0.507151 -0.059519
H76   H     H_    0.524979 0.162687 0.023323 -0.043601
H77   H     H_    0.960769 0.262158 0.208225 0.133714
H78   H     H_    0.956410 0.710214 0.832762 0.120214
H79   H     H_    0.460091 0.762615 0.208269 0.134123
H80   H     H_    0.456938 0.210994 0.829130 0.120278
N17   N     N_3   0.689731 0.354304 0.164373 -0.433902
H81   H     H_    0.675130 0.364747 0.061253 0.174314
H82   H     H_    0.665559 0.352947 0.249914 0.179276
N18   N     N_3   0.689950 0.647448 0.658031 -0.429874
H83   H     H_    0.675569 0.636648 0.554959 0.178000
H84   H     H_    0.665584 0.649303 0.742792 0.176948
N19   N     N_3   0.189016 0.854634 0.165086 -0.432872
H85   H     H_    0.174062 0.864987 0.062453 0.174990
H86   H     H_    0.165119 0.853257 0.251603 0.178950
N20   N     N_3   0.190735 0.147580 0.657246 -0.431955
H87   H     H_    0.176403 0.136754 0.554133 0.176763
H88   H     H_    0.166355 0.149353 0.741981 0.176122
H89   H     H_    0.140172 0.795555 0.074562 0.119475
H90   H     H_    0.142172 0.206109 0.559707 0.117389
H91   H     H_    0.640979 0.295398 0.071373 0.119490
H92   H     H_    0.641588 0.706098 0.560419 0.117474
N21   N     N_3   0.866131 0.204567 0.124781 -0.430505
H93   H     H_    0.867751 0.181508 0.204830 0.173228
H94   H     H_    0.876235 0.193958 0.016054 0.178488
N22   N     N_3   0.866762 0.795786 0.612350 -0.427764
H95   H     H_    0.868617 0.818520 0.694338 0.178678
H96   H     H_    0.876532 0.806796 0.504193 0.179303
N23   N     N_3   0.365674 0.705215 0.121299 -0.430344
H97   H     H_    0.367498 0.682116 0.201115 0.173497
H98   H     H_    0.375614 0.694689 0.012247 0.178501
N24   N     N_3   0.367024 0.296421 0.612014 -0.427449
H99   H     H_    0.368793 0.319149 0.694050 0.178640
H100  H     H_    0.376759 0.307474 0.503887 0.179582
H101  H     H_    0.300451 0.660164 0.035583 0.118844
H102  H     H_    0.301331 0.341905 0.531547 0.121741
H103  H     H_    0.800926 0.159597 0.038074 0.118761
H104  H     H_    0.801222 0.841444 0.531830 0.121676
N25   N     N_3   0.160997 0.609291 0.176151 -0.469747
H105  H     H_    0.177385 0.583079 0.153082 0.207303
H106  H     H_    0.144498 0.606437 0.281361 0.214873
N26   N     N_3   0.147987 0.385272 0.699381 -0.451512
H107  H     H_    0.152019 0.357123 0.744852 0.180557
H108  H     H_    0.179048 0.397092 0.681607 0.214827
N27   N     N_3   0.661257 0.109144 0.175815 -0.469674
H109  H     H_    0.677570 0.082879 0.153049 0.208208
H110  H     H_    0.644709 0.106380 0.280953 0.214582
N28   N     N_3   0.647948 0.885257 0.699440 -0.451291
H111  H     H_    0.651945 0.857119 0.745048 0.180754
H112  H     H_    0.679025 0.897028 0.681502 0.214825
H113  H     H_    0.117864 0.676695 0.723748 0.102489
H114  H     H_    0.118943 0.323657 0.216681 0.099944
H115  H     H_    0.618466 0.176327 0.722403 0.103453
H116  H     H_    0.618891 0.823627 0.216785 0.100035
N29   N     N_3   0.845907 0.388642 0.009520 -0.482328
H117  H     H_    0.846933 0.361895 0.949972 0.192772
H118  H     H_    0.813269 0.395546 0.031907 0.197882
N30   N     N_3   0.836014 0.606616 0.532172 -0.465758
H119  H     H_    0.820844 0.579756 0.552282 0.199917
H120  H     H_    0.852835 0.604817 0.427409 0.223909
N31   N     N_3   0.345327 0.889772 0.008453 -0.463246
H121  H     H_    0.344728 0.862995 0.948997 0.188766
H122  H     H_    0.313217 0.898218 0.032286 0.207480
N32   N     N_3   0.337041 0.107450 0.530443 -0.470239
H123  H     H_    0.321766 0.080549 0.548444 0.196555
H124  H     H_    0.354233 0.105980 0.426303 0.216993
H125  H     H_    0.031170 0.271701 0.578119 0.124560
H126  H     H_    0.023738 0.730624 0.117729 0.122842
H127  H     H_    0.531016 0.771901 0.576820 0.125747
H128  H     H_    0.531047 0.229480 0.117510 0.127461
H129  H     H_    0.974915 0.333457 0.203897 -0.013940
H130  H     H_    0.959919 0.661581 0.615951 0.055282
H131  H     H_    0.474716 0.833851 0.203410 -0.013542
H132  H     H_    0.460553 0.161736 0.614408 0.053954
N33   N     N_3   0.940896 0.281503 0.984490 -0.435705
H133  H     H_    0.954869 0.281157 0.873761 0.227528
H134  H     H_    0.926190 0.308892 0.000528 0.221772
N34   N     N_3   0.978904 0.740836 0.635751 -0.448450
H135  H     H_    0.008680 0.745344 0.579337 0.200305
H136  H     H_    0.956118 0.731440 0.551369 0.234712
N35   N     N_3   0.440511 0.781996 0.984244 -0.435233
H137  H     H_    0.454602 0.781777 0.873720 0.227921
H138  H     H_    0.425836 0.809386 0.000591 0.221790
N36   N     N_3   0.479389 0.241000 0.630532 -0.448225
H139  H     H_    0.509066 0.245149 0.573035 0.200531
H140  H     H_    0.456382 0.231403 0.547287 0.235023
N37   N     N_3   0.152038 0.467406 0.299443 -0.526136
H141  H     H_    0.184236 0.476296 0.322544 0.172385
H142  H     H_    0.131531 0.486431 0.358424 0.192583
N38   N     N_3   0.146393 0.531522 0.802215 -0.512905
H143  H     H_    0.176711 0.522448 0.847310 0.168426
H144  H     H_    0.122313 0.514063 0.850627 0.182253
N39   N     N_3   0.651957 0.967371 0.299591 -0.526272
H145  H     H_    0.684194 0.976155 0.322611 0.172277
H146  H     H_    0.631542 0.986483 0.358535 0.193120
N40   N     N_3   0.646384 0.031401 0.802350 -0.512610
H147  H     H_    0.676642 0.022327 0.847954 0.168451
H148  H     H_    0.622214 0.013991 0.850495 0.182609
N41   N     N_3   0.099433 0.456738 0.098931 -0.393433
H149  H     H_    0.076900 0.463493 0.186178 0.162116
H150  H     H_    0.104914 0.427234 0.113560 0.152556
N42   N     N_3   0.106180 0.541518 0.567923 -0.419742
H151  H     H_    0.080540 0.542501 0.647892 0.159185
H152  H     H_    0.115073 0.570165 0.544737 0.188712
N43   N     N_3   0.599352 0.956727 0.099074 -0.393047
H153  H     H_    0.576831 0.963496 0.186345 0.162713
H154  H     H_    0.604819 0.927224 0.113680 0.152587
N44   N     N_3   0.606557 0.041463 0.567304 -0.420325
H155  H     H_    0.580793 0.042512 0.646749 0.159644
H156  H     H_    0.615590 0.070081 0.544250 0.189010

loop_
_geom_bond_atom_site_label_1
_geom_bond_atom_site_label_2
_ccdc_geom_bond_type
C113  N37   S    
O51   P16   S    
C51   C55   A    
C126  H6    S    
Ba1   O14   S    
C48   O12   S    
C38   C54   A    
C108  N8    S    
N21   H93   S    
N12   H51   S    
C94   C134  S    
C41   H89   S    
N39   H146  S    
C27   H103  S    
N37   H142  S    
C119  N11   S    
C70   C110  A    
C82   N2    S    
C1    H9    S    
Ba1   O37   S    
O4    P4    D    
C91   H35   S    
C125  H69   S    
N28   H111  S    
Ba4   O15   S    
C8    C12   A    
O8    P8    S    
C66   C70   A    
N20   H87   S    
O48   P4    S    
Ba2   O54   S    
C125  H5    S    
C131  H75   S    
C43   C49   A    
C101  N29   S    
C132  H76   S    
C62   N6    Am   
C43   H91   S    
C124  O48   S    
C97   C101  A    
O34   P2    S    
C50   N18   S    
C73   C109  A    
Ba2   P6    S    
N30   H119  S    
O43   P16   D    
O40   P15   S    
C121  H53   S    
C59   N7    Am   
C36   C64   A    
N19   H85   S    
C123  H55   S    
C124  H56   S    
O37   P14   S    
C112  H28   S    
C97   C133  D    
N24   H99   S    
C126  H70   S    
C13   C17   A    
C100  C136  D    
C28   C30   A    
C15   C19   A    
C61   O29   D    
C67   H115  S    
C74   C78   A    
N27   H109  S    
C7    C23   A    
C26   H102  S    
Ba4   O35   S    
C125  H65   S    
N26   H107  S    
C134  H22   S    
C85   H17   S    
C130  H74   S    
O54   P6    D    
Ba1   O1    S    
O36   P4    S    
O55   P7    D    
C118  N10   S    
N40   H148  S    
C71   C111  A    
N16   H63   S    
C15   N3    Am   
O38   P13   S    
C123  N15   S    
C13   N1    Am   
C64   N8    Am   
C30   N22   S    
O11   P11   S    
C80   C84   S    
N22   H95   S    
Ba3   O3    S    
C11   O19   D    
C129  H37   S    
C46   H130  S    
C120  N12   S    
C25   C31   A    
C55   C59   A    
C26   C32   A    
C88   H20   S    
C99   P3    S    
Ba4   O4    S    
N14   H60   S    
C47   O11   S    
N29   H117  S    
C113  N41   S    
C89   H33   S    
N11   H50   S    
O3    P3    D    
C123  C127  S    
N36   H139  S    
C91   H79   S    
C121  C125  S    
O52   P15   S    
C85   C93   S    
C122  C126  S    
C60   O28   D    
O5    P5    S    
C45   C89   S    
N41   H149  S    
C12   O20   D    
C121  N13   S    
C47   C91   S    
N33   H134  S    
C45   H29   S    
N25   H105  S    
C100  P4    S    
C75   C111  A    
O59   P11   S    
O60   P12   S    
C42   H90   S    
O47   P3    S    
C115  C119  S    
C48   H32   S    
C91   N35   S    
C22   C40   A    
N15   H62   S    
C1    C129  S    
C127  H67   S    
N42   H151  S    
C4    H12   S    
Ba3   P3    S    
C121  O45   S    
C114  O5    S    
Ba1   P1    S    
C114  C118  S    
C44   H92   S    
N32   H123  S    
C5    C9    A    
N34   H135  S    
C33   C61   A    
N43   H154  S    
C127  H7    S    
Ba1   O34   S    
C45   H129  S    
O44   P15   D    
C39   C55   A    
C95   C135  S    
O33   P1    S    
C93   C133  S    
N13   H57   S    
C17   C41   A    
O50   P13   S    
C130  O50   S    
O56   P8    D    
C19   C43   A    
C20   C44   A    
C76   C112  A    
C115  O8    S    
C6    C10   A    
C116  O7    S    
C46   C90   S    
Ba1   O53   S    
O1    P1    D    
N19   H86   S    
N18   H84   S    
O9    P9    S    
N11   H49   S    
C107  N7    S    
Ba3   O16   S    
C58   O26   D    
C102  N30   S    
N28   H112  S    
Ba2   O58   S    
O42   P13   D    
C10   N2    Am   
C63   N7    Am   
C122  N14   S    
N34   H136  S    
N27   H110  S    
O13   P6    S    
C122  H54   S    
C18   C22   A    
Ba4   P8    S    
Ba3   Ba4   S    
C1    H125  S    
C65   C81   A    
C105  N5    S    
N35   H138  S    
C127  H71   S    
C120  H44   S    
Ba3   O39   S    
C14   C18   A    
C74   P5    S    
C103  C107  A    
C97   P1    S    
C20   C24   A    
C59   O27   D    
N38   H143  S    
O35   P3    S    
C99   C103  A    
C136  H24   S    
N12   H52   S    
C132  H40   S    
C135  H23   S    
C47   H131  S    
N37   H141  S    
C132  O52   S    
N9    H46   S    
C33   C37   A    
O45   P1    S    
C78   N26   S    
C60   N8    Am   
C104  N32   S    
C36   C40   A    
C52   C56   A    
N10   H47   S    
C41   C51   A    
C42   C52   A    
C65   H113  S    
N20   H88   S    
C32   N24   S    
C111  H27   S    
Ba4   O60   S    
C90   N34   S    
C12   N4    Am   
C54   C58   A    
C79   C83   S    
C117  H41   S    
C4    C132  S    
Ba2   O13   S    
O58   P10   S    
C76   C80   A    
N30   H120  S    
C5    C21   A    
C103  N31   S    
C8    C24   A    
O53   P5    D    
C52   N20   S    
C109  H25   S    
N24   H100  S    
C2    H126  S    
C119  H43   S    
N31   H121  S    
Ba2   O38   S    
C69   C109  A    
N17   H82   S    
O39   P16   S    
C17   C21   A    
O64   P12   D    
N26   H108  S    
C51   N19   S    
C75   P8    S    
C65   C69   A    
O61   P9    D    
C92   H80   S    
C87   H19   S    
C98   P2    S    
C126  H66   S    
C21   C39   A    
C74   C110  A    
N16   H64   S    
C128  H72   S    
C129  H73   S    
Ba1   P5    S    
C84   N4    S    
N21   H94   S    
C72   P11   S    
Ba1   O13   S    
C117  H1    S    
C115  N43   S    
N15   H61   S    
C49   C53   A    
C69   P10   S    
C88   C108  D    
C78   C82   S    
O7    P7    S    
C104  C108  A    
C62   O30   D    
C31   C35   A    
C58   N6    Am   
C80   N28   S    
N23   H97   S    
C96   P15   S    
C73   C77   A    
C25   H101  S    
Ba4   O56   S    
C46   H30   S    
C129  O49   S    
Ba4   P4    S    
C2    H14   S    
N36   H140  S    
C93   P14   S    
C67   C83   A    
N22   H96   S    
C18   C42   A    
C95   P16   S    
C131  O51   S    
C100  C104  A    
C29   C33   A    
N33   H133  S    
C92   H36   S    
C49   N17   S    
N44   H156  S    
C114  N42   S    
C57   N5    Am   
C116  N44   S    
N42   H152  S    
C37   C53   A    
C75   C79   A    
C46   O10   S    
C101  C105  A    
C40   C56   A    
C9    N1    Am   
C13   O21   D    
C64   O32   D    
C117  N9    S    
O2    P2    D    
C118  H42   S    
C2    H10   S    
C90   H78   S    
C3    H15   S    
C106  N6    S    
C81   N1    S    
C128  H68   S    
O6    P6    S    
N40   H147  S    
Ba3   O55   S    
O49   P14   S    
C130  H38   S    
C76   P7    S    
C63   O31   D    
N39   H145  S    
C68   C72   A    
N35   H137  S    
C16   N4    Am   
C61   N5    Am   
C44   C50   A    
C15   O23   D    
O57   P9    S    
N14   H59   S    
C122  O46   S    
Ba2   O14   S    
C34   C38   A    
N29   H118  S    
C1    H13   S    
O15   P8    S    
C85   C105  D    
Ba1   Ba2   S    
C98   C134  D    
C87   C107  D    
C53   C57   A    
O12   P12   S    
C6    C26   A    
C113  C117  S    
C96   C136  S    
C72   C112  A    
C16   C20   A    
C3    H127  S    
N31   H122  S    
Ba2   O33   S    
Ba3   O15   S    
C27   C29   A    
C98   C102  A    
C19   C23   A    
N41   H150  S    
C10   O18   D    
C5    C25   A    
C6    C22   A    
C7    C27   A    
N25   H106  S    
C8    C28   A    
C131  H39   S    
C29   N21   S    
C28   H104  S    
O41   P14   D    
C124  C128  S    
C68   C84   A    
C118  H2    S    
C56   C60   A    
C110  H26   S    
Ba3   P7    S    
C35   C39   A    
C128  H8    S    
C34   C62   A    
C32   C36   A    
N38   H144  S    
Ba3   O36   S    
C57   O25   D    
Ba4   O40   S    
C89   H77   S    
O10   P10   S    
C86   H18   S    
Ba2   O2    S    
C3    C131  S    
O62   P10   D    
C99   C135  D    
Ba2   P2    S    
C23   C37   A    
N43   H153  S    
Ba4   O16   S    
C133  H21   S    
C123  O47   S    
N9    H45   S    
C48   H132  S    
Ba3   O59   S    
C77   N25   S    
C14   N2    Am   
Ba1   O57   S    
C90   H34   S    
O14   P5    S    
N23   H98   S    
N10   H48   S    
C7    C11   A    
C116  N40   S    
C92   N36   S    
C3    H11   S    
C16   O24   D    
C115  N39   S    
C66   C82   A    
C88   C96   S    
N44   H155  S    
C50   C54   A    
C70   P9    S    
C30   C34   A    
C35   C63   A    
C120  H4    S    
C73   P6    S    
C68   H116  S    
O63   P11   D    
C124  N16   S    
C114  N38   S    
C14   O22   D    
C87   C95   S    
N18   H83   S    
C47   H31   S    
C11   N3    Am   
C2    C130  S    
C67   C71   A    
C94   P13   S    
C45   O9    S    
C89   N33   S    
C24   C38   A    
N13   H58   S    
N32   H124  S    
C9    O17   D    
C48   C92   S    
N17   H81   S    
C4    H16   S    
C77   C81   S    
C113  O6    S    
O16   P7    S    
C83   N3    S    
C71   P12   S    
C102  C106  A    
C66   H114  S    
C119  H3    S    
C79   N27   S    
C31   N23   S    
C4    H128  S    
O46   P2    S    
C86   C94   S    
C116  C120  S    
C86   C106  D    
