data_mof_unit_57171.cif
_audit_creation_date              2012-12-10T22:11:14-0500
_audit_creation_method            fapswitch 2.2
_symmetry_space_group_name_H-M    P1
_symmetry_Int_Tables_number       1
_space_group_crystal_system       triclinic
_cell_length_a                    12.085257
_cell_length_b                    12.297661
_cell_length_c                    23.260831
_cell_angle_alpha                 90.352891
_cell_angle_beta                  90.338814
_cell_angle_gamma                 92.031292
_cell_volume                      3454.73096143

loop_
_atom_site_label
_atom_site_type_symbol
_atom_type_description
_atom_site_fract_x
_atom_site_fract_y
_atom_site_fract_z
_atom_type_partial_charge
Br1   Br    Br    0.175072 0.199674 0.428138 -0.419955
Br2   Br    Br    0.208049 0.368639 0.836314 -0.369923
Br3   Br    Br    0.668997 0.227448 0.343732 -0.387946
Br4   Br    Br    0.331003 0.772552 0.656268 -0.387946
Br5   Br    Br    0.824928 0.800326 0.571862 -0.419955
Br6   Br    Br    0.248753 0.142361 0.221348 -0.518801
Br7   Br    Br    0.751247 0.857639 0.778652 -0.518801
Br8   Br    Br    0.739499 0.870188 0.216030 -0.461639
Br9   Br    Br    0.260501 0.129812 0.783970 -0.461639
Br10  Br    Br    0.124134 0.756912 0.271772 -0.528139
Br11  Br    Br    0.875866 0.243088 0.728228 -0.528139
Br12  Br    Br    0.791950 0.631361 0.163686 -0.369923
C1    C     C_R   0.655772 0.998625 0.579893 0.906749
C2    C     C_R   0.093293 0.876643 0.822677 -0.200675
C3    C     C_R   0.901151 0.204829 0.137103 0.131628
C4    C     C_R   0.098849 0.795171 0.862897 0.131628
C5    C     C_R   0.162517 0.904517 0.296994 0.272143
C6    C     C_R   0.837482 0.095483 0.703006 0.272143
C7    C     C_R   0.255305 0.915128 0.333380 0.089387
C8    C     C_R   0.744695 0.084872 0.666620 0.089386
C9    C     C_R   0.837792 0.097955 0.300391 -0.195788
C10   C     C_R   0.162208 0.902044 0.699609 -0.195788
C11   C     C_R   0.754795 0.098441 0.340899 0.295448
C12   C     C_R   0.344228 0.001374 0.420107 0.906749
C13   C     C_R   0.245205 0.901559 0.659101 0.295448
C14   C     C_3   0.995347 0.003144 0.248318 -0.006900
C15   C     C_3   0.004653 0.996856 0.751682 -0.006900
C16   C     C_R   0.653289 0.002979 0.420082 0.884484
C17   C     C_R   0.346711 0.997021 0.579918 0.884484
C18   C     C_R   0.094118 0.995785 0.289685 -0.005593
C19   C     C_R   0.905882 0.004215 0.710315 -0.005593
C20   C     C_R   0.261383 0.000961 0.374344 -0.146491
C21   C     C_R   0.738617 0.999039 0.625656 -0.146491
C22   C     C_R   0.898400 0.003918 0.290173 0.082939
C23   C     C_R   0.900143 0.751065 0.157100 0.245086
C24   C     C_R   0.101600 0.996082 0.709827 0.082939
C25   C     C_R   0.736510 0.006089 0.375579 -0.110655
C26   C     C_R   0.263490 0.993911 0.624421 -0.110655
C27   C     C_R   0.001968 0.106283 0.210508 -0.059422
C28   C     C_R   0.998032 0.893717 0.789492 -0.059422
C29   C     C_R   0.993869 0.276939 0.130204 -0.095300
C30   C     C_R   0.006131 0.723061 0.869796 -0.095299
C31   C     C_R   0.985250 0.910746 0.203838 -0.005277
C32   C     C_R   0.014750 0.089254 0.796162 -0.005277
C33   C     C_R   0.990890 0.746866 0.119271 -0.168874
C34   C     C_R   0.099857 0.248935 0.842900 0.245086
C35   C     C_R   0.009109 0.253134 0.880729 -0.168874
C36   C     C_R   0.993204 0.661089 0.075845 0.920720
C37   C     C_R   0.006796 0.338911 0.924155 0.920720
C38   C     C_R   0.997544 0.354973 0.082671 0.890876
C39   C     C_R   0.002455 0.645027 0.917329 0.890876
C40   C     C_R   0.107824 0.083930 0.328510 -0.171864
C41   C     C_R   0.892176 0.916070 0.671489 -0.171864
C42   C     C_R   0.184889 0.084211 0.372173 0.265584
C43   C     C_R   0.815111 0.915789 0.627827 0.265584
C44   C     C_R   0.880174 0.913290 0.326017 -0.081936
C45   C     C_R   0.075489 0.903412 0.166308 -0.126258
C46   C     C_R   0.119826 0.086709 0.673983 -0.081936
C47   C     C_R   0.800181 0.914344 0.368004 -0.168048
C48   C     C_R   0.199819 0.085655 0.631996 -0.168048
C49   C     C_R   0.097171 0.176254 0.201360 0.261549
C50   C     C_R   0.902829 0.823746 0.798640 0.261549
C51   C     C_R   0.086686 0.269193 0.167292 0.072291
C52   C     C_R   0.913314 0.730806 0.832708 0.072291
C53   C     C_R   0.890240 0.840634 0.193647 0.230883
C54   C     C_R   0.109760 0.159366 0.806353 0.230883
C55   C     C_3   0.174059 0.360444 0.172131 -0.684278
C56   C     C_R   0.924511 0.096588 0.833692 -0.126258
C57   C     C_3   0.825941 0.639556 0.827869 -0.684278
C58   C     C_3   0.171431 0.835087 0.080305 -0.788110
C59   C     C_3   0.828569 0.164913 0.919695 -0.788110
C60   C     C_3   0.794353 0.210801 0.103078 -0.761174
C61   C     C_3   0.205647 0.789199 0.896922 -0.761174
C62   C     C_3   0.347389 0.835324 0.327400 -0.661606
C63   C     C_3   0.652610 0.164676 0.672600 -0.661605
C64   C     C_R   0.077124 0.827124 0.122553 0.138005
C65   C     C_R   0.922876 0.172875 0.877447 0.138005
C66   C     C_R   0.906707 0.123357 0.177323 -0.200675
H1    H     H_    0.927839 0.841200 0.321182 0.195498
H2    H     H_    0.211301 0.156908 0.605222 0.200524
H3    H     H_    0.054105 0.152410 0.326039 0.188222
H4    H     H_    0.945895 0.847590 0.673960 0.188222
H5    H     H_    0.209064 0.365538 0.216351 0.268480
H6    H     H_    0.241931 0.346985 0.141208 0.261835
H7    H     H_    0.137709 0.440833 0.164553 0.230845
H8    H     H_    0.790936 0.634462 0.783648 0.268480
H9    H     H_    0.862291 0.559167 0.835447 0.230845
H10   H     H_    0.758069 0.653015 0.858792 0.261835
H11   H     H_    0.221696 0.911946 0.085647 0.238075
H12   H     H_    0.072161 0.158800 0.678817 0.195498
H13   H     H_    0.227950 0.766920 0.086497 0.270928
H14   H     H_    0.137591 0.834391 0.035943 0.219066
H15   H     H_    0.778304 0.088053 0.914353 0.238075
H16   H     H_    0.862410 0.165609 0.964057 0.219066
H17   H     H_    0.772050 0.233079 0.913503 0.270928
H18   H     H_    0.733165 0.144937 0.114387 0.239054
H19   H     H_    0.754497 0.288987 0.112133 0.272404
H20   H     H_    0.810766 0.202072 0.056570 0.229422
H21   H     H_    0.266835 0.855063 0.885613 0.239053
H22   H     H_    0.189234 0.797928 0.943430 0.229422
H23   H     H_    0.145909 0.959135 0.171080 0.200994
H24   H     H_    0.245503 0.711013 0.887867 0.272404
H25   H     H_    0.350494 0.801483 0.283107 0.264388
H26   H     H_    0.429513 0.876682 0.334700 0.226438
H27   H     H_    0.335053 0.767411 0.358188 0.261618
H28   H     H_    0.649505 0.198517 0.716893 0.264388
H29   H     H_    0.664947 0.232589 0.641812 0.261618
H30   H     H_    0.570487 0.123318 0.665300 0.226438
H31   H     H_    0.854091 0.040864 0.828920 0.200994
H32   H     H_    0.835169 0.069304 0.182245 0.207423
H33   H     H_    0.164831 0.930696 0.817755 0.207423
H34   H     H_    0.855064 0.173357 0.278196 0.182872
H35   H     H_    0.144936 0.826643 0.721804 0.182872
H36   H     H_    0.788699 0.843092 0.394778 0.200524
O1    O     O_R   0.621380 0.090460 0.561410 -0.631963
O2    O     O_R   0.912410 0.372520 0.941210 -0.629952
O3    O     O_R   0.905660 0.383870 0.059980 -0.615240
O4    O     O_R   0.094340 0.616130 0.940020 -0.615240
O5    O     O_R   0.092570 0.390420 0.063230 -0.622201
O6    O     O_R   0.907430 0.609580 0.936770 -0.622201
O7    O     O_R   0.900680 0.620930 0.055550 -0.578413
O8    O     O_R   0.099320 0.379070 0.944450 -0.578413
O9    O     O_R   0.378620 0.909540 0.438590 -0.631963
O10   O     O_R   0.617150 0.909540 0.438590 -0.621589
O11   O     O_R   0.382850 0.090460 0.561410 -0.621589
O12   O     O_R   0.619720 0.093230 0.440890 -0.576060
O13   O     O_R   0.380280 0.906770 0.559110 -0.576061
O14   O     O_R   0.618800 0.906770 0.559110 -0.560446
O15   O     O_R   0.381200 0.093230 0.440890 -0.560446
O16   O     O_R   0.087590 0.627480 0.058790 -0.629952
Zn1   Zn    Zn3+2 0.501730 0.123520 0.501540 1.096241
Zn2   Zn    Zn3+2 0.498270 0.876480 0.498460 1.096241
Zn3   Zn    Zn3+2 0.125690 0.504390 0.002180 1.018412
Zn4   Zn    Zn3+2 0.874310 0.495610 0.997820 1.018412

loop_
_geom_bond_atom_site_label_1
_geom_bond_atom_site_label_2
_ccdc_geom_bond_type
C21   C43   A    
C61   H22   S    
Br11  C6    S    
C22   C44   A    
C17   O11   A    
O9    Zn2   S    
C38   O3    A    
Br3   C11   S    
C58   H13   S    
Br4   C13   S    
C35   C37   S    
C59   H16   S    
C60   H20   S    
Br2   C34   S    
C55   H5    S    
C3    C60   S    
O5    Zn3   S    
C44   H1    S    
C33   C64   A    
C16   C25   S    
Br6   C49   S    
C34   C54   A    
C24   C46   A    
C14   C27   S    
C3    C66   A    
O2    Zn4   S    
C7    C20   A    
Br10  C5    S    
C46   C48   A    
O16   Zn3   S    
C39   O4    A    
C28   C50   A    
O10   Zn2   S    
C49   C51   A    
O13   Zn2   S    
C50   C52   A    
Br9   C54   S    
C1    O14   A    
C32   C54   A    
C12   O15   A    
C14   C22   S    
C10   H35   S    
C16   O12   A    
C10   C13   A    
C17   C26   S    
O7    Zn4   S    
O6    Zn4   S    
C57   H9    S    
C30   C39   S    
Br8   C53   S    
C57   H10   S    
C5    C18   A    
C36   O16   A    
O3    Zn4   S    
O14   Zn2   S    
C20   C42   A    
C40   C42   A    
C14   C31   S    
C60   H19   S    
C41   C43   A    
C2    H33   S    
C27   C49   A    
C51   C55   S    
C55   H7    S    
C15   C19   S    
C4    C61   S    
C27   C66   A    
C63   H29   S    
C3    C29   A    
C36   O7    A    
C23   C53   A    
O1    Zn1   S    
C9    C22   A    
C11   C25   A    
O8    Zn3   S    
C12   O9    A    
C38   O5    A    
C8    C63   S    
C41   H4    S    
Br1   C42   S    
C12   C20   S    
Br7   C50   S    
C1    C21   S    
C13   C26   A    
O11   Zn1   S    
C15   C28   S    
C31   C53   A    
C39   O6    A    
C66   H32   S    
C1    O1    A    
C52   C57   S    
C19   C41   A    
Br12  C23   S    
C46   H12   S    
C25   C47   A    
O4    Zn3   S    
C26   C48   A    
C8    C21   A    
C61   H24   S    
C14   C18   S    
C17   O13   A    
C58   C64   S    
C2    C4    A    
C32   C56   A    
C58   H11   S    
C35   C65   A    
C23   C33   A    
C4    C30   A    
C29   C38   S    
C59   C65   S    
C9    H34   S    
C10   C24   A    
C45   C64   A    
C62   H26   S    
C33   C36   S    
C63   H30   S    
C56   C65   A    
C61   H21   S    
C18   C40   A    
C34   C35   A    
C48   H2    S    
Br5   C43   S    
C7    C62   S    
C58   H14   S    
C30   C52   A    
C16   O10   A    
C59   H15   S    
C15   C24   S    
C45   H23   S    
C44   C47   A    
C9    C11   A    
C62   H27   S    
O12   Zn1   S    
C47   H36   S    
C37   O8    A    
C5    C7    A    
C6    C8    A    
C56   H31   S    
C40   H3    S    
C31   C45   A    
C2    C28   A    
C60   H18   S    
C55   H6    S    
C37   O2    A    
C59   H17   S    
C63   H28   S    
C29   C51   A    
C6    C19   A    
C15   C32   S    
C57   H8    S    
C62   H25   S    
O15   Zn1   S    
