data_mof_unit_58814.cif
_audit_creation_date              2013-03-05T15:58:55-0500
_audit_creation_method            fapswitch 2.2
_symmetry_space_group_name_H-M    P1
_symmetry_Int_Tables_number       1
_space_group_crystal_system       triclinic
_cell_length_a                    10.62812
_cell_length_b                    12.742043
_cell_length_c                    13.132024
_cell_angle_alpha                 82.079666
_cell_angle_beta                  93.321069
_cell_angle_gamma                 102.234879
_cell_volume                      1720.66045069

loop_
_atom_site_label
_atom_site_type_symbol
_atom_site_description
_atom_site_fract_x
_atom_site_fract_y
_atom_site_fract_z
_atom_type_partial_charge
O1    O     O_R   0.468120 0.366740 0.627160 -0.628048
O2    O     O_R   0.510770 0.544830 0.662520 -0.580085
C1    C     C_R   0.479746 0.439289 0.690549 0.869744
O3    O     O_R   0.663880 0.410950 0.482330 -0.628311
O4    O     O_R   0.706530 0.589040 0.517700 -0.588653
C2    C     C_R   0.741519 0.499479 0.503574 0.828159
Zn1   Zn    Zn3+2 0.471520 0.381090 0.476390 0.939255
Zn2   Zn    Zn3+2 0.528480 0.618910 0.523610 1.020410
O5    O     O_R   0.489230 0.455170 0.337480 -0.630346
O6    O     O_R   0.531880 0.633260 0.372840 -0.569607
O7    O     O_R   0.293470 0.410960 0.482300 -0.629075
O8    O     O_R   0.336120 0.589050 0.517670 -0.576169
C3    C     C_R   0.515568 0.560450 0.308799 0.901091
C4    C     C_R   0.258208 0.498255 0.502527 0.851899
C5    C     C_3   0.904912 0.391559 0.567065 -0.382408
H1    H     H_    0.852559 0.320387 0.530382 0.194404
H2    H     H_    0.870309 0.381774 0.646910 0.167443
C6    C     C_3   0.050115 0.392759 0.570036 -0.417330
H3    H     H_    0.088134 0.389939 0.650956 0.164570
H4    H     H_    0.065717 0.319170 0.539915 0.195468
H5    H     H_    0.862678 0.441283 0.353723 0.185724
H6    H     H_    0.073227 0.427730 0.359681 0.175527
C7    C     C_3   0.921531 0.507652 0.393561 -0.411690
C8    C     C_3   0.956973 0.594088 0.558063 -0.346134
C9    C     C_3   0.878354 0.498577 0.505609 0.140202
H7    H     H_    0.937110 0.672957 0.520341 0.217211
H8    H     H_    0.931396 0.582805 0.640250 0.228634
C10   C     C_3   0.121002 0.496894 0.504644 0.159588
C11   C     C_3   0.064027 0.501220 0.393344 -0.367887
C12   C     C_3   0.099742 0.596567 0.552867 -0.388577
H9    H     H_    0.144442 0.597003 0.631697 0.163656
H10   H     H_    0.144870 0.673438 0.506216 0.242595
H11   H     H_    0.907323 0.585820 0.349884 0.175764
H12   H     H_    0.117022 0.572665 0.343581 0.218140
C13   C     C_R   0.439920 0.709584 0.054298 -0.165502
H13   H     H_    0.488869 0.759241 0.202831 0.197789
H14   H     H_    0.341724 0.709623 0.862718 0.154207
H15   H     H_    0.414073 0.785789 0.023367 0.172037
C14   C     C_R   0.511162 0.594910 0.198388 -0.079914
C15   C     C_R   0.486411 0.297934 0.838102 -0.275732
C16   C     C_R   0.491281 0.265252 0.943931 0.375727
C17   C     C_R   0.479537 0.339215 0.010638 -0.294260
C18   C     C_R   0.457751 0.443726 0.972134 0.038178
C19   C     C_R   0.430175 0.466996 0.866517 0.115297
C20   C     C_R   0.465044 0.527017 0.034375 0.119422
C21   C     C_R   0.427023 0.625199 0.993811 0.167756
C22   C     C_R   0.377002 0.637514 0.893582 -0.188412
C23   C     C_R   0.377190 0.558605 0.830695 -0.146268
C24   C     C_R   0.513726 0.516824 0.134981 -0.257323
C25   C     C_R   0.482741 0.694648 0.156488 -0.129206
C26   C     C_R   0.460172 0.399627 0.799310 -0.160935
H16   H     H_    0.551365 0.446884 0.167315 0.160265
H17   H     H_    0.506662 0.245174 0.785914 0.194862
H18   H     H_    0.484655 0.312481 0.091992 0.172329
H19   H     H_    0.337480 0.570946 0.753332 0.143017
C27   C     C_R   0.385381 0.115179 0.308995 -0.224730
H20   H     H_    0.342724 0.272077 0.304049 0.139455
H21   H     H_    0.388276 0.929088 0.255258 0.201455
H22   H     H_    0.344168 0.104652 0.232687 0.175891
N1    N     N_R   0.433240 0.222190 0.444680 -0.110814
C28   C     C_R   0.635493 0.796149 0.644107 0.453119
C29   C     C_R   0.658333 0.897434 0.677363 -0.254048
C30   C     C_R   0.612566 0.981082 0.620055 -0.226627
C31   C     C_R   0.542598 0.965096 0.527473 -0.025242
C32   C     C_R   0.519216 0.860043 0.494297 0.080962
C33   C     C_R   0.492017 0.049739 0.468191 0.001590
C34   C     C_R   0.440130 0.035714 0.368289 0.118125
C35   C     C_R   0.432922 0.939084 0.330913 -0.244480
C36   C     C_R   0.451868 0.849061 0.397017 0.358719
C37   C     C_R   0.488431 0.147976 0.504110 -0.025049
C38   C     C_R   0.381484 0.208283 0.349745 0.005329
N2    N     N_R   0.566070 0.776970 0.554790 -0.178660
H23   H     H_    0.529125 0.168633 0.577524 0.121818
H24   H     H_    0.637291 0.058421 0.648605 0.164839
H25   H     H_    0.714571 0.911885 0.747435 0.195673
N3    N     N_R   0.514561 0.159559 0.983389 0.210877
O9    O     O_R   0.519373 0.089307 0.921280 -0.409310
O10   O     O_R   0.531248 0.132464 0.081698 -0.424006
N4    N     N_R   0.693410 0.715384 0.702644 0.225035
O11   O     O_R   0.657845 0.681596 0.796676 -0.398077
O12   O     O_R   0.808738 0.710423 0.679348 -0.441159
Cl1   Cl    Cl    0.336380 0.740088 0.362557 -0.699179

loop_
_geom_bond_atom_site_label_1
_geom_bond_atom_site_label_2
_geom_bond_distance
_ccdc_geom_bond_type
C5    C6    1.538347 S    
H6    C11   1.113431 S    
C23   H19   1.081383 S    
C16   C17   1.400422 A    
C8    H8    1.110889 S    
C20   C21   1.420496 A    
Zn1   O7    2.015500 S    
O4    C2    1.311949 A    
C7    C11   1.534121 S    
C10   C11   1.547697 S    
C8    H7    1.113769 S    
C12   H9    1.113942 S    
O7    C4    1.310688 A    
C5    C9    1.556893 S    
C2    C9    1.455448 S    
C5    H1    1.113356 S    
Zn1   O5    1.934933 S    
C6    H3    1.113393 S    
O5    C3    1.316664 A    
C36   Cl1   1.739497 S    
C35   C36   1.383156 A    
C7    H11   1.113600 S    
N1    C37   1.351314 A    
H14   C22   1.083909 S    
C27   C38   1.376161 A    
C33   C34   1.412871 A    
C37   H23   1.076642 S    
O3    Zn1   1.997633 S    
Zn2   N2    2.061741 S    
C34   C35   1.372950 A    
C13   H15   1.083854 S    
C6    C10   1.550129 S    
N3    O9    1.301759 A    
O3    C2    1.302591 A    
N4    O12   1.296769 A    
C1    C26   1.459299 S    
N1    C38   1.352157 A    
C11   H12   1.111045 S    
H20   C38   1.081388 S    
C30   C31   1.404256 A    
O1    C1    1.309387 A    
C31   C33   1.422706 A    
C18   C19   1.404947 A    
C32   N2    1.394756 A    
C29   C30   1.376685 A    
C22   C23   1.386669 A    
C20   C24   1.389978 A    
Zn2   O8    1.997633 S    
C24   H16   1.077799 S    
C13   C25   1.392754 A    
C8    C9    1.545028 S    
C18   C20   1.413252 A    
C28   N2    1.371912 A    
H21   C35   1.087682 S    
C15   C16   1.395996 A    
C14   C24   1.387987 A    
O8    C4    1.304593 A    
H5    C7    1.113523 S    
C29   H25   1.083619 S    
C17   C18   1.419237 A    
C15   C26   1.403950 A    
Zn1   N1    2.074120 S    
H13   C25   1.078311 S    
C19   C26   1.405288 A    
C5    H2    1.113298 S    
C21   C22   1.391769 A    
O1    Zn1   1.964822 S    
O2    Zn2   1.934933 S    
N3    O10   1.301504 A    
O6    C3    1.314537 A    
O4    Zn2   2.015501 S    
C30   H24   1.077678 S    
C27   C34   1.396445 A    
C27   H22   1.084105 S    
C31   C32   1.431988 A    
C10   C12   1.557215 S    
O2    C1    1.320000 A    
C17   H18   1.077574 S    
C16   N3    1.441354 S    
C12   H10   1.110999 S    
C33   C37   1.405646 A    
C28   N4    1.422854 S    
C32   C36   1.436920 A    
C6    H4    1.113066 S    
C7    C9    1.548495 S    
C28   C29   1.387627 A    
C8    C12   1.516298 S    
C3    C14   1.456930 S    
N4    O11   1.300622 A    
C14   C25   1.399934 A    
Zn2   O6    1.964820 S    
C15   H17   1.083203 S    
C4    C10   1.456495 S    
C13   C21   1.402200 A    
C19   C23   1.413346 A    
