data_mof_unit_64911.cif
_audit_creation_date              2012-12-10T17:50:11-0500
_audit_creation_method            fapswitch 2.2
_symmetry_space_group_name_H-M    P1
_symmetry_Int_Tables_number       1
_space_group_crystal_system       triclinic
_cell_length_a                    27.785329
_cell_length_b                    36.174005
_cell_length_c                    27.794795
_cell_angle_alpha                 89.985921
_cell_angle_beta                  90.000055
_cell_angle_gamma                 89.999988
_cell_volume                      27936.7318954

loop_
_atom_site_label
_atom_site_type_symbol
_atom_type_description
_atom_site_fract_x
_atom_site_fract_y
_atom_site_fract_z
_atom_type_partial_charge
C1    C     C_R   0.500012 0.650319 0.250018 0.826668
C2    C     C_R   0.999940 0.650326 0.249941 0.822908
C3    C     C_1   0.499976 0.249989 0.431115 -0.138118
C4    C     C_1   0.499986 0.250002 0.931115 -0.138599
C5    C     C_1   0.499976 0.250011 0.068885 -0.138118
C6    C     C_1   0.499986 0.749998 0.068885 -0.138601
C7    C     C_1   0.499976 0.749989 0.931115 -0.138123
C8    C     C_1   0.999986 0.750002 0.931115 -0.138513
C9    C     C_1   0.999975 0.750011 0.068885 -0.138034
C10   C     C_1   0.999986 0.249998 0.068885 -0.138520
C11   C     C_1   0.999976 0.249989 0.931115 -0.138036
C12   C     C_1   0.999986 0.250002 0.431115 -0.138643
C13   C     C_R   0.000012 0.349681 0.249982 0.826666
C14   C     C_1   0.999976 0.250011 0.568885 -0.138162
C15   C     C_1   0.999986 0.749998 0.568885 -0.138646
C16   C     C_1   0.999976 0.749989 0.431115 -0.138155
C17   C     C_1   0.499981 0.750007 0.474551 0.009054
C18   C     C_1   0.499976 0.750012 0.525449 0.009154
C19   C     C_1   0.499981 0.249993 0.525448 0.009055
C20   C     C_1   0.499976 0.249988 0.474551 0.009156
C21   C     C_1   0.499981 0.250007 0.974551 0.009055
C22   C     C_1   0.499976 0.250012 0.025449 0.009158
C23   C     C_1   0.499981 0.749993 0.025448 0.009054
C24   C     C_R   0.999940 0.349674 0.750059 0.822880
C25   C     C_1   0.499976 0.749988 0.974551 0.009154
C26   C     C_1   0.999981 0.750007 0.974551 0.009149
C27   C     C_1   0.999976 0.750012 0.025449 0.009250
C28   C     C_1   0.999981 0.249993 0.025448 0.009145
C29   C     C_1   0.999976 0.249988 0.974551 0.009245
C30   C     C_1   0.999981 0.250007 0.474551 0.009014
C31   C     C_1   0.999976 0.250012 0.525449 0.009116
C32   C     C_1   0.999981 0.749993 0.525448 0.009012
C33   C     C_1   0.999976 0.749988 0.474551 0.009121
C34   C     C_R   0.499989 0.750003 0.120620 0.822843
C35   C     C_R   0.000013 0.150319 0.250017 0.826755
C36   C     C_R   0.499985 0.749999 0.879380 0.822353
C37   C     C_R   0.499989 0.249997 0.879380 0.822835
C38   C     C_R   0.499985 0.250001 0.120620 0.822362
C39   C     C_R   0.499989 0.250003 0.620620 0.822837
C40   C     C_R   0.499985 0.249999 0.379379 0.822359
C41   C     C_R   0.499989 0.749997 0.379380 0.822844
C42   C     C_R   0.499985 0.750001 0.620620 0.822350
C43   C     C_R   0.999989 0.750003 0.620620 0.822813
C44   C     C_R   0.999985 0.749999 0.379380 0.822357
C45   C     C_R   0.999989 0.249997 0.379380 0.822827
C46   C     C_R   0.999941 0.150326 0.749942 0.822971
C47   C     C_R   0.999985 0.250001 0.620620 0.822342
C48   C     C_R   0.999989 0.250003 0.120620 0.822897
C49   C     C_R   0.999985 0.249999 0.879380 0.822392
C50   C     C_R   0.999989 0.749997 0.879380 0.822892
C51   C     C_R   0.999985 0.750001 0.120620 0.822403
C52   C     C_R   0.370620 0.750000 0.250000 0.821683
C53   C     C_R   0.370618 0.750000 0.750000 0.821264
C54   C     C_R   0.370620 0.250000 0.750000 0.821692
C55   C     C_R   0.370618 0.250000 0.250000 0.821255
C56   C     C_R   0.870620 0.750000 0.750000 0.821668
C57   C     C_R   0.000013 0.849681 0.749982 0.826745
C58   C     C_R   0.870618 0.750000 0.250000 0.821224
C59   C     C_R   0.870620 0.250000 0.250000 0.821656
C60   C     C_R   0.870618 0.250000 0.750000 0.821236
C61   C     C_R   0.629375 0.750000 0.250000 0.820845
C62   C     C_R   0.629371 0.750000 0.750000 0.820188
C63   C     C_R   0.629375 0.250000 0.750000 0.820829
C64   C     C_R   0.629371 0.250000 0.250000 0.820200
C65   C     C_R   0.129375 0.750000 0.750000 0.820868
C66   C     C_R   0.129371 0.750000 0.250000 0.820240
C67   C     C_R   0.129375 0.250000 0.250000 0.820889
C68   C     C_R   0.999941 0.849674 0.250058 0.822994
C69   C     C_R   0.129371 0.250000 0.750000 0.820221
C70   C     C_1   0.681108 0.750000 0.250000 -0.146835
C71   C     C_1   0.681104 0.750000 0.750000 -0.147725
C72   C     C_1   0.681108 0.250000 0.750000 -0.146822
C73   C     C_1   0.681103 0.250000 0.250000 -0.147768
C74   C     C_1   0.181108 0.750000 0.750000 -0.146820
C75   C     C_1   0.181103 0.750000 0.250001 -0.147832
C76   C     C_1   0.181108 0.250000 0.250000 -0.146833
C77   C     C_1   0.181104 0.250000 0.749999 -0.147768
C78   C     C_1   0.724547 0.750000 0.250000 0.003214
C79   C     C_3   0.475866 0.978363 0.298046 -0.321322
C80   C     C_1   0.724543 0.750000 0.750000 0.003004
C81   C     C_1   0.724547 0.250000 0.750000 0.003226
C82   C     C_1   0.724543 0.250000 0.250000 0.002974
C83   C     C_1   0.224547 0.749999 0.749999 0.003241
C84   C     C_1   0.224543 0.750000 0.250001 0.002951
C85   C     C_1   0.224547 0.250000 0.250000 0.003231
C86   C     C_1   0.224543 0.250000 0.749999 0.002988
C87   C     C_1   0.775443 0.750000 0.250000 0.006440
C88   C     C_1   0.775440 0.750000 0.750000 0.006630
C89   C     C_1   0.775443 0.250000 0.750000 0.006460
C90   C     C_3   0.472598 0.978250 0.703720 -0.328008
C91   C     C_1   0.775440 0.250000 0.250000 0.006612
C92   C     C_1   0.275443 0.750000 0.749999 0.006484
C93   C     C_1   0.275440 0.750000 0.250001 0.006632
C94   C     C_1   0.275443 0.250000 0.250000 0.006470
C95   C     C_1   0.275440 0.250000 0.749999 0.006647
C96   C     C_1   0.818883 0.750000 0.250000 -0.138075
C97   C     C_1   0.818882 0.750000 0.750000 -0.138677
C98   C     C_1   0.818883 0.250000 0.750000 -0.138048
C99   C     C_1   0.818882 0.250000 0.250000 -0.138698
C100  C     C_1   0.318883 0.750000 0.750000 -0.138022
C101  C     C_3   0.475757 0.021638 0.702010 -0.321319
C102  C     C_1   0.318882 0.750000 0.250000 -0.138677
C103  C     C_1   0.318883 0.250000 0.250000 -0.138041
C104  C     C_1   0.318882 0.250000 0.749999 -0.138659
C105  C     C_3   0.553721 0.978579 0.250574 0.329072
C106  C     C_3   0.553067 0.977974 0.746561 0.356237
C107  C     C_3   0.553720 0.021421 0.749305 0.329070
C108  C     C_3   0.553075 0.022025 0.253325 0.356258
C109  C     C_3   0.553719 0.478579 0.750822 0.329070
C110  C     C_3   0.553071 0.477974 0.246593 0.356239
C111  C     C_3   0.553722 0.521421 0.249333 0.329083
C112  C     C_R   0.499940 0.650326 0.749941 0.822893
C113  C     C_3   0.472699 0.021750 0.296340 -0.328013
C114  C     C_3   0.553059 0.522026 0.753566 0.356215
C115  C     C_3   0.053732 0.978578 0.750163 0.329078
C116  C     C_3   0.053117 0.977975 0.247217 0.356288
C117  C     C_3   0.053734 0.021421 0.249966 0.329104
C118  C     C_3   0.053107 0.022025 0.752926 0.356271
C119  C     C_3   0.053722 0.478579 0.250650 0.329083
C120  C     C_3   0.053052 0.477974 0.746354 0.356208
C121  C     C_3   0.053717 0.521420 0.749101 0.329057
C122  C     C_3   0.053072 0.522026 0.253396 0.356244
C123  C     C_2   0.429061 0.958800 0.311054 1.006213
C124  C     C_3   0.475641 0.478363 0.797929 -0.321333
C125  C     C_2   0.422022 0.962464 0.698544 1.000427
C126  C     C_2   0.428919 0.041199 0.689113 1.006210
C127  C     C_2   0.422133 0.037534 0.301623 1.000443
C128  C     C_2   0.428775 0.458800 0.810715 1.006236
C129  C     C_2   0.422057 0.462461 0.198492 1.000477
C130  C     C_2   0.428953 0.541197 0.189075 1.006244
C131  C     C_2   0.421896 0.537535 0.801261 1.000463
C132  C     C_2   0.929552 0.958797 0.811621 1.006330
C133  C     C_2   0.922686 0.962462 0.197558 1.000625
C134  C     C_2   0.929698 0.041197 0.188213 1.006340
C135  C     C_3   0.472628 0.478250 0.203703 -0.328035
C136  C     C_2   0.922534 0.037528 0.802214 1.000600
C137  C     C_2   0.928974 0.458801 0.310950 1.006237
C138  C     C_2   0.921813 0.462468 0.698866 1.000436
C139  C     C_2   0.928688 0.541201 0.689386 1.006221
C140  C     C_2   0.922066 0.537536 0.301519 1.000479
C141  C     C_3   0.610214 0.937632 0.215853 0.115857
C142  C     C_3   0.660236 0.952482 0.228521 -0.382097
C143  C     C_3   0.697142 0.921325 0.231457 -0.911099
C144  C     C_3   0.626559 0.950905 0.770125 0.126791
C145  C     C_3   0.625453 0.910445 0.753888 -0.375469
C146  C     C_3   0.475784 0.521637 0.201996 -0.321329
C147  C     C_3   0.675832 0.896352 0.742072 -0.924023
C148  C     C_3   0.610296 0.062369 0.783889 0.115858
C149  C     C_3   0.660288 0.047516 0.771110 -0.382078
C150  C     C_3   0.697191 0.078670 0.768087 -0.911135
C151  C     C_3   0.626517 0.049095 0.229609 0.126729
C152  C     C_3   0.625446 0.089554 0.245854 -0.375425
C153  C     C_3   0.675849 0.103645 0.257569 -0.923977
C154  C     C_3   0.610379 0.437633 0.716374 0.115857
C155  C     C_3   0.660339 0.452487 0.729276 -0.382102
C156  C     C_3   0.697236 0.421333 0.732386 -0.910863
C157  C     C_3   0.472485 0.521750 0.796210 -0.328027
C158  C     C_3   0.626547 0.450906 0.270207 0.126803
C159  C     C_3   0.625452 0.410444 0.253977 -0.375464
C160  C     C_3   0.675838 0.396350 0.242195 -0.923966
C161  C     C_3   0.610281 0.562370 0.283941 0.115848
C162  C     C_3   0.660278 0.547516 0.271185 -0.382141
C163  C     C_3   0.697182 0.578670 0.268176 -0.910838
C164  C     C_3   0.626607 0.549095 0.730180 0.126864
C165  C     C_3   0.625464 0.589556 0.746410 -0.375510
C166  C     C_3   0.675814 0.603649 0.758346 -0.924037
C167  C     C_3   0.109952 0.937635 0.714995 0.115774
C168  C     C_3   0.976250 0.978364 0.798241 -0.321413
C169  C     C_3   0.160071 0.952485 0.727276 -0.382292
C170  C     C_3   0.197000 0.921329 0.729920 -0.910308
C171  C     C_3   0.126306 0.950905 0.271705 0.126493
C172  C     C_3   0.125402 0.910446 0.255451 -0.375288
C173  C     C_3   0.175927 0.896348 0.244282 -0.923558
C174  C     C_3   0.109874 0.062371 0.285247 0.115758
C175  C     C_3   0.160019 0.047518 0.273082 -0.382357
C176  C     C_3   0.196954 0.078673 0.270503 -0.910238
C177  C     C_3   0.126367 0.049096 0.728659 0.126526
C178  C     C_3   0.125420 0.089552 0.744923 -0.375305
C179  C     C_3   0.973192 0.978249 0.203369 -0.328107
C180  C     C_3   0.175911 0.103641 0.756261 -0.923658
C181  C     C_3   0.110269 0.437632 0.216019 0.115850
C182  C     C_3   0.160270 0.452485 0.228761 -0.382138
C183  C     C_3   0.197176 0.421331 0.231753 -0.910819
C184  C     C_3   0.126639 0.450904 0.769619 0.126891
C185  C     C_3   0.125470 0.410445 0.753385 -0.375530
C186  C     C_3   0.175801 0.396354 0.741363 -0.924095
C187  C     C_3   0.110425 0.562365 0.783475 0.115869
C188  C     C_3   0.160367 0.547512 0.770502 -0.382055
C189  C     C_3   0.197259 0.578666 0.767345 -0.910988
C190  C     C_3   0.976370 0.021637 0.201698 -0.321407
C191  C     C_3   0.126544 0.549095 0.229772 0.126790
C192  C     C_3   0.125451 0.589555 0.246007 -0.375454
C193  C     C_3   0.175840 0.603649 0.257784 -0.923965
C194  C     C_3   0.973062 0.021750 0.796554 -0.328094
C195  C     C_3   0.975799 0.478363 0.298011 -0.321333
C196  C     C_R   0.500012 0.349681 0.749982 0.826652
C197  C     C_3   0.972412 0.478250 0.703835 -0.328017
C198  C     C_3   0.975571 0.521637 0.702108 -0.321327
C199  C     C_3   0.972638 0.521750 0.296302 -0.328034
C200  C     C_1   0.999874 0.610735 0.250007 -0.139487
C201  C     C_1   0.000308 0.610715 0.749744 -0.142051
C202  C     C_1   0.999872 0.389265 0.749996 -0.139439
C203  C     C_1   0.000309 0.389284 0.250257 -0.142080
C204  C     C_1   0.999879 0.110735 0.750011 -0.139534
C205  C     C_1   0.000314 0.110716 0.249741 -0.142129
C206  C     C_1   0.999880 0.889265 0.249987 -0.139575
C207  C     C_R   0.499941 0.349674 0.250059 0.822913
C208  C     C_1   0.000313 0.889284 0.750259 -0.142113
C209  C     C_1   0.499873 0.610735 0.750005 -0.139456
C210  C     C_1   0.500309 0.610715 0.249743 -0.142078
C211  C     C_1   0.499874 0.389265 0.249993 -0.139487
C212  C     C_1   0.500309 0.389284 0.750256 -0.142057
C213  C     C_1   0.499874 0.110735 0.250008 -0.139496
C214  C     C_1   0.500309 0.110715 0.749744 -0.142078
C215  C     C_1   0.499873 0.889265 0.749993 -0.139480
C216  C     C_1   0.500308 0.889284 0.250256 -0.142096
C217  C     C_3   0.500805 0.963402 0.251284 0.089124
C218  C     C_R   0.500012 0.150319 0.750018 0.826674
C219  C     C_3   0.500150 0.963364 0.749004 0.091966
C220  C     C_3   0.500803 0.036598 0.748716 0.089118
C221  C     C_3   0.500153 0.036635 0.250997 0.091974
C222  C     C_3   0.500801 0.463402 0.751284 0.089108
C223  C     C_3   0.500152 0.463364 0.249003 0.091980
C224  C     C_3   0.500805 0.536597 0.248715 0.089126
C225  C     C_3   0.500148 0.536636 0.750994 0.091962
C226  C     C_3   0.000823 0.963402 0.751285 0.089165
C227  C     C_3   0.000173 0.963364 0.248996 0.092044
C228  C     C_3   0.000828 0.036598 0.248714 0.089184
C229  C     C_R   0.499941 0.150326 0.249941 0.822925
C230  C     C_3   0.000169 0.036635 0.751002 0.092018
C231  C     C_3   0.000806 0.463402 0.251284 0.089127
C232  C     C_3   0.000145 0.463365 0.749008 0.091950
C233  C     C_3   0.000798 0.536597 0.748716 0.089101
C234  C     C_3   0.000152 0.536635 0.250996 0.091981
C235  C     C_3   0.976981 0.521245 0.204289 -0.357619
C236  C     C_3   0.974771 0.521447 0.794163 -0.337706
C237  C     C_3   0.977200 0.478755 0.795826 -0.357601
C238  C     C_3   0.974565 0.478553 0.205960 -0.337745
C239  C     C_3   0.976578 0.021245 0.704505 -0.357708
C240  C     C_R   0.500012 0.849681 0.249982 0.826688
C241  C     C_3   0.974060 0.021447 0.293729 -0.337799
C242  C     C_3   0.976455 0.978755 0.295428 -0.357688
C243  C     C_3   0.974164 0.978553 0.706205 -0.337743
C244  C     C_3   0.477129 0.521245 0.704211 -0.357600
C245  C     C_3   0.474579 0.521447 0.294047 -0.337755
C246  C     C_3   0.476990 0.478754 0.295715 -0.357608
C247  C     C_3   0.474708 0.478553 0.705874 -0.337728
C248  C     C_3   0.476918 0.021246 0.204321 -0.357626
C249  C     C_3   0.474602 0.021447 0.794063 -0.337727
C250  C     C_3   0.477018 0.978754 0.795731 -0.357602
C251  C     C_R   0.499941 0.849674 0.750059 0.822916
C252  C     C_3   0.474500 0.978553 0.205997 -0.337726
C253  C     C_1   0.999931 0.577439 0.250302 -0.024101
C254  C     C_1   0.000660 0.577408 0.749373 -0.052974
C255  C     C_1   0.999927 0.422561 0.749702 -0.024060
C256  C     C_1   0.000663 0.422592 0.250628 -0.053008
C257  C     C_1   0.999941 0.077439 0.750308 -0.024137
C258  C     C_1   0.000676 0.077408 0.249371 -0.053071
C259  C     C_1   0.999943 0.922561 0.249689 -0.024177
C260  C     C_1   0.000673 0.922592 0.750629 -0.053055
C261  C     C_1   0.499928 0.577439 0.750299 -0.024081
C262  C     C_R   0.000012 0.650319 0.750018 0.826641
C263  C     C_1   0.500663 0.577408 0.249372 -0.053005
C264  C     C_1   0.499931 0.422561 0.249698 -0.024105
C265  C     C_1   0.500661 0.422592 0.750627 -0.052986
C266  C     C_1   0.499931 0.077439 0.250303 -0.024089
C267  C     C_1   0.500662 0.077408 0.749373 -0.052992
C268  C     C_1   0.499930 0.922561 0.749699 -0.024082
C269  C     C_1   0.500662 0.922592 0.250627 -0.053009
C270  C     C_1   0.499986 0.750002 0.431115 -0.138600
C271  C     C_1   0.499976 0.750011 0.568885 -0.138119
C272  C     C_1   0.499986 0.249998 0.568885 -0.138596
H1    H     H_    0.067480 0.530434 0.289356 -0.013780
H2    H     H_    0.572604 0.531230 0.216175 -0.009051
H3    H     H_    0.732914 0.067063 0.758462 0.269717
H4    H     H_    0.700295 0.092979 0.803308 0.271014
H5    H     H_    0.650845 0.046676 0.198053 0.173684
H6    H     H_    0.642067 0.031196 0.258276 0.103197
H7    H     H_    0.609752 0.106903 0.216803 0.251615
H8    H     H_    0.602540 0.092327 0.278406 0.210390
H9    H     H_    0.691957 0.087035 0.287083 0.262983
H10   H     H_    0.673790 0.132953 0.269278 0.269301
H11   H     H_    0.699302 0.101971 0.225276 0.270226
H12   H     H_    0.613124 0.421562 0.682434 0.176635
H13   H     H_    0.567473 0.469563 0.210631 -0.013772
H14   H     H_    0.597767 0.417918 0.744443 0.120265
H15   H     H_    0.672093 0.472664 0.701497 0.239850
H16   H     H_    0.658797 0.466752 0.764604 0.200720
H17   H     H_    0.686474 0.401025 0.760379 0.261023
H18   H     H_    0.732934 0.432942 0.742098 0.269666
H19   H     H_    0.700426 0.407026 0.697171 0.271091
H20   H     H_    0.650922 0.453330 0.301726 0.173734
H21   H     H_    0.642055 0.468800 0.241511 0.103193
H22   H     H_    0.609799 0.393101 0.283055 0.251613
H23   H     H_    0.602500 0.407666 0.221458 0.210388
H24   H     H_    0.572504 0.468768 0.784034 -0.009033
H25   H     H_    0.691904 0.412954 0.212652 0.262996
H26   H     H_    0.673761 0.367040 0.230498 0.269288
H27   H     H_    0.699337 0.398030 0.274454 0.270249
H28   H     H_    0.612928 0.578443 0.317888 0.176624
H29   H     H_    0.597749 0.582084 0.255835 0.120312
H30   H     H_    0.671952 0.527341 0.299000 0.239827
H31   H     H_    0.658838 0.533248 0.235854 0.200732
H32   H     H_    0.686500 0.598975 0.240149 0.261047
H33   H     H_    0.732909 0.567061 0.258569 0.269686
H34   H     H_    0.700272 0.592980 0.303398 0.271061
H35   H     H_    0.567530 0.030431 0.289268 -0.013787
H36   H     H_    0.651080 0.546671 0.698736 0.173749
H37   H     H_    0.642027 0.531200 0.758922 0.103172
H38   H     H_    0.609899 0.606900 0.717286 0.251585
H39   H     H_    0.602413 0.592333 0.778860 0.210383
H40   H     H_    0.691790 0.587044 0.787935 0.263009
H41   H     H_    0.673702 0.632959 0.770039 0.269246
H42   H     H_    0.699411 0.601970 0.726158 0.270262
H43   H     H_    0.112271 0.921571 0.681018 0.176564
H44   H     H_    0.097690 0.917916 0.743213 0.120479
H45   H     H_    0.171479 0.972666 0.699356 0.239824
H46   H     H_    0.572585 0.031232 0.716139 -0.009052
H47   H     H_    0.158971 0.966746 0.762623 0.200782
H48   H     H_    0.186586 0.901019 0.758043 0.261078
H49   H     H_    0.232819 0.932935 0.739188 0.269692
H50   H     H_    0.199749 0.907025 0.694666 0.271019
H51   H     H_    0.150301 0.953324 0.303514 0.173719
H52   H     H_    0.142158 0.968803 0.243201 0.103293
H53   H     H_    0.109392 0.893100 0.284332 0.251722
H54   H     H_    0.102848 0.907675 0.222653 0.210424
H55   H     H_    0.192359 0.912959 0.214948 0.262989
H56   H     H_    0.173987 0.867042 0.232545 0.269452
H57   H     H_    0.567446 0.969566 0.710589 -0.013770
H58   H     H_    0.199027 0.898016 0.276828 0.270199
H59   H     H_    0.112119 0.078442 0.319224 0.176561
H60   H     H_    0.097676 0.082086 0.256996 0.120522
H61   H     H_    0.171367 0.027345 0.301035 0.239801
H62   H     H_    0.158996 0.033247 0.237738 0.200795
H63   H     H_    0.186602 0.098975 0.242348 0.261087
H64   H     H_    0.232793 0.067065 0.261318 0.269701
H65   H     H_    0.199627 0.092987 0.305756 0.271004
H66   H     H_    0.150455 0.046683 0.696918 0.173707
H67   H     H_    0.142136 0.031192 0.757202 0.103277
H68   H     H_    0.572663 0.968764 0.283695 -0.009057
H69   H     H_    0.109508 0.106906 0.715997 0.251682
H70   H     H_    0.102762 0.092319 0.777649 0.210430
H71   H     H_    0.192242 0.087024 0.785646 0.263001
H72   H     H_    0.173941 0.132946 0.767997 0.269409
H73   H     H_    0.199119 0.101973 0.723791 0.270208
H74   H     H_    0.112905 0.421562 0.182069 0.176623
H75   H     H_    0.097747 0.417916 0.244126 0.120315
H76   H     H_    0.171936 0.472663 0.200945 0.239833
H77   H     H_    0.158842 0.466750 0.264094 0.200728
H78   H     H_    0.186503 0.401023 0.259781 0.261044
H79   H     H_    0.500901 0.971693 0.328231 0.121659
H80   H     H_    0.232906 0.432939 0.241352 0.269686
H81   H     H_    0.200254 0.407024 0.196528 0.271066
H82   H     H_    0.151161 0.453325 0.801024 0.173742
H83   H     H_    0.142012 0.468802 0.740854 0.103159
H84   H     H_    0.109955 0.393097 0.782532 0.251566
H85   H     H_    0.102366 0.407670 0.720973 0.210381
H86   H     H_    0.191727 0.412963 0.711749 0.263010
H87   H     H_    0.173672 0.367046 0.729670 0.269223
H88   H     H_    0.199452 0.398032 0.773512 0.270265
H89   H     H_    0.113217 0.578433 0.817413 0.176638
H90   H     H_    0.492765 0.968018 0.671646 0.131266
H91   H     H_    0.097774 0.582081 0.755427 0.120242
H92   H     H_    0.172160 0.527332 0.798262 0.239847
H93   H     H_    0.158777 0.533250 0.735175 0.200713
H94   H     H_    0.186458 0.598976 0.739370 0.261027
H95   H     H_    0.232945 0.567059 0.757582 0.269673
H96   H     H_    0.200499 0.592971 0.802558 0.271090
H97   H     H_    0.150914 0.546672 0.198249 0.173736
H98   H     H_    0.142057 0.531199 0.258464 0.103189
H99   H     H_    0.109794 0.606901 0.216933 0.251616
H100  H     H_    0.102504 0.592332 0.278530 0.210384
H101  H     H_    0.500721 0.028311 0.671767 0.121687
H102  H     H_    0.191910 0.587043 0.287322 0.262993
H103  H     H_    0.173765 0.632958 0.269484 0.269289
H104  H     H_    0.199334 0.601970 0.225521 0.270254
H105  H     H_    0.072455 0.531234 0.715864 -0.009030
H106  H     H_    0.492934 0.031985 0.328371 0.131249
H107  H     H_    0.500533 0.471691 0.828231 0.121706
H108  H     H_    0.492818 0.468019 0.171641 0.131249
H109  H     H_    0.500764 0.528312 0.171766 0.121681
H110  H     H_    0.492573 0.531984 0.828333 0.131289
H111  H     H_    0.001523 0.971699 0.828229 0.121682
H112  H     H_    0.993761 0.968017 0.171551 0.131241
H113  H     H_    0.001712 0.028310 0.171771 0.121674
H114  H     H_    0.993536 0.031990 0.828429 0.131292
H115  H     H_    0.000790 0.471691 0.328232 0.121667
H116  H     H_    0.067286 0.469568 0.710323 -0.013743
H117  H     H_    0.992447 0.468014 0.671680 0.131306
H118  H     H_    0.000421 0.528306 0.671769 0.121706
H119  H     H_    0.992831 0.531983 0.328360 0.131245
H120  H     H_    0.491274 0.967137 0.172818 0.202011
H121  H     H_    0.498711 0.970130 0.827460 0.217321
H122  H     H_    0.491455 0.032860 0.827205 0.202032
H123  H     H_    0.498546 0.029867 0.172545 0.217322
H124  H     H_    0.491641 0.467138 0.672774 0.202045
H125  H     H_    0.498662 0.470128 0.327458 0.217315
H126  H     H_    0.491416 0.532859 0.327197 0.202039
H127  H     H_    0.072615 0.468767 0.283801 -0.009055
H128  H     H_    0.498901 0.529869 0.672535 0.217343
H129  H     H_    0.990673 0.967133 0.672895 0.201942
H130  H     H_    0.997748 0.970131 0.327428 0.217253
H131  H     H_    0.990495 0.032860 0.327079 0.201957
H132  H     H_    0.997967 0.029861 0.672565 0.217299
H133  H     H_    0.991389 0.467139 0.172805 0.202028
H134  H     H_    0.999023 0.470134 0.827468 0.217361
H135  H     H_    0.991749 0.532864 0.827240 0.202043
H136  H     H_    0.998649 0.529869 0.172542 0.217326
H137  H     H_    0.436393 0.969536 0.205190 0.237120
H138  H     H_    0.067835 0.030426 0.788759 -0.013742
H139  H     H_    0.440617 0.967080 0.801786 0.216091
H140  H     H_    0.436498 0.030468 0.794960 0.237100
H141  H     H_    0.440506 0.032924 0.198342 0.216077
H142  H     H_    0.436606 0.469532 0.704887 0.237093
H143  H     H_    0.440584 0.467081 0.301746 0.216083
H144  H     H_    0.436475 0.530470 0.294925 0.237075
H145  H     H_    0.440744 0.532921 0.698066 0.216067
H146  H     H_    0.936049 0.969541 0.705701 0.237125
H147  H     H_    0.939981 0.967080 0.301027 0.216055
H148  H     H_    0.935947 0.030467 0.294148 0.237073
H149  H     H_    0.073011 0.031231 0.217037 -0.009031
H150  H     H_    0.940125 0.032927 0.698799 0.216012
H151  H     H_    0.936460 0.469533 0.205097 0.237093
H152  H     H_    0.940825 0.467077 0.802030 0.216055
H153  H     H_    0.936670 0.530465 0.795204 0.237114
H154  H     H_    0.940576 0.532921 0.198263 0.216070
H155  H     H_    0.362770 0.941975 0.291112 0.344436
H156  H     H_    0.354952 0.956931 0.725434 0.341895
H157  H     H_    0.362671 0.058015 0.709210 0.344416
H158  H     H_    0.355005 0.043059 0.274876 0.341907
H159  H     H_    0.362576 0.441980 0.790460 0.344416
H160  H     H_    0.067947 0.969565 0.211429 -0.013765
H161  H     H_    0.354971 0.456922 0.225339 0.341969
H162  H     H_    0.362693 0.558010 0.209136 0.344438
H163  H     H_    0.354892 0.543067 0.774205 0.341967
H164  H     H_    0.863110 0.941961 0.792203 0.344532
H165  H     H_    0.855284 0.956926 0.223607 0.342094
H166  H     H_    0.863201 0.058012 0.207475 0.344551
H167  H     H_    0.855204 0.043040 0.775974 0.342077
H168  H     H_    0.862709 0.441983 0.290912 0.344441
H169  H     H_    0.854851 0.456946 0.726029 0.341937
H170  H     H_    0.862522 0.558030 0.709735 0.344401
H171  H     H_    0.072933 0.968761 0.783133 -0.009010
H172  H     H_    0.854974 0.543068 0.274683 0.341974
H173  H     H_    0.612797 0.921564 0.181898 0.176590
H174  H     H_    0.597733 0.917916 0.243978 0.120346
H175  H     H_    0.671862 0.972660 0.200689 0.239779
H176  H     H_    0.658861 0.966746 0.263857 0.200740
H177  H     H_    0.686508 0.901017 0.259499 0.261104
H178  H     H_    0.732888 0.932931 0.241002 0.269732
H179  H     H_    0.700166 0.907019 0.196226 0.270997
H180  H     H_    0.650954 0.953327 0.801629 0.173695
H181  H     H_    0.642049 0.968802 0.741422 0.103187
H182  H     H_    0.567350 0.530435 0.789573 -0.013747
H183  H     H_    0.609819 0.893099 0.782974 0.251596
H184  H     H_    0.602480 0.907670 0.721384 0.210388
H185  H     H_    0.691879 0.912960 0.712523 0.262991
H186  H     H_    0.673748 0.867044 0.730370 0.269274
H187  H     H_    0.699352 0.898029 0.774316 0.270233
H188  H     H_    0.612958 0.078440 0.817835 0.176604
H189  H     H_    0.597752 0.082082 0.755789 0.120308
H190  H     H_    0.671976 0.027339 0.798919 0.239785
H191  H     H_    0.658833 0.033249 0.735779 0.200733
H192  H     H_    0.686495 0.098976 0.740065 0.261089
O1    O     O_3   0.499990 0.750000 0.250000 -0.484110
O2    O     O_R   0.527870 0.668020 0.722120 -0.642156
O3    O     O_R   0.972140 0.331980 0.722150 -0.621997
O4    O     O_R   0.972140 0.168020 0.222150 -0.621976
O5    O     O_R   0.972140 0.168020 0.777850 -0.621942
O6    O     O_R   0.972140 0.831980 0.777850 -0.621981
O7    O     O_R   0.972140 0.831980 0.222150 -0.621935
O8    O     O_2   0.424547 0.945151 0.351070 -0.615062
O9    O     O_R   0.391593 0.955760 0.277760 -0.779291
O10   O     O_2   0.412157 0.943693 0.663299 -0.613997
O11   O     O_R   0.386859 0.969048 0.733452 -0.782296
O12   O     O_2   0.424312 0.054851 0.649110 -0.615038
O13   O     O_R   0.527870 0.331980 0.722120 -0.644770
O14   O     O_R   0.391528 0.044232 0.722494 -0.779305
O15   O     O_2   0.412341 0.056307 0.336886 -0.614002
O16   O     O_R   0.386895 0.030943 0.266792 -0.782294
O17   O     O_2   0.424073 0.445148 0.850706 -0.614968
O18   O     O_R   0.391463 0.455766 0.777245 -0.779318
O19   O     O_2   0.412217 0.443691 0.163239 -0.613933
O20   O     O_R   0.386871 0.469042 0.233377 -0.782310
O21   O     O_2   0.424369 0.554854 0.149072 -0.615005
O22   O     O_R   0.391542 0.544225 0.222434 -0.779299
O23   O     O_2   0.411943 0.556306 0.836481 -0.613921
O24   O     O_R   0.527870 0.331980 0.277880 -0.642196
O25   O     O_R   0.386819 0.530949 0.766267 -0.782329
O26   O     O_2   0.925355 0.945156 0.851676 -0.614857
O27   O     O_R   0.891827 0.955746 0.778621 -0.779266
O28   O     O_2   0.913264 0.943692 0.162192 -0.613771
O29   O     O_R   0.887087 0.969045 0.232023 -0.782318
O30   O     O_2   0.925595 0.054851 0.148155 -0.614884
O31   O     O_R   0.891890 0.044229 0.221120 -0.779249
O32   O     O_2   0.913006 0.056307 0.837544 -0.613770
O33   O     O_R   0.887034 0.030926 0.767654 -0.782343
O34   O     O_2   0.924403 0.445147 0.350956 -0.615023
O35   O     O_R   0.527870 0.168020 0.777880 -0.644797
O36   O     O_R   0.891552 0.455768 0.277603 -0.779296
O37   O     O_2   0.911802 0.443694 0.663665 -0.613944
O38   O     O_R   0.886792 0.469062 0.733914 -0.782334
O39   O     O_2   0.923929 0.554849 0.649398 -0.614978
O40   O     O_R   0.891427 0.544244 0.722910 -0.779329
O41   O     O_2   0.912229 0.556307 0.336772 -0.613946
O42   O     O_R   0.886874 0.530950 0.266640 -0.782313
O43   O     O_3   0.577583 0.967090 0.207714 -0.595191
O44   O     O_3   0.580188 0.962379 0.785045 -0.592619
O45   O     O_3   0.577682 0.032913 0.792108 -0.595184
O46   O     O_R   0.527870 0.168020 0.222120 -0.642215
O47   O     O_3   0.580114 0.037623 0.214786 -0.592624
O48   O     O_3   0.577784 0.467088 0.708077 -0.595157
O49   O     O_3   0.580167 0.462381 0.285096 -0.592613
O50   O     O_3   0.577662 0.532915 0.292147 -0.595172
O51   O     O_3   0.580273 0.537622 0.715148 -0.592607
O52   O     O_3   0.077257 0.967093 0.707116 -0.595201
O53   O     O_3   0.079752 0.962381 0.286040 -0.592650
O54   O     O_3   0.077160 0.032916 0.293063 -0.595214
O55   O     O_3   0.079854 0.037626 0.714185 -0.592643
O56   O     O_3   0.077648 0.467087 0.207827 -0.595170
O57   O     O_R   0.527870 0.831980 0.222120 -0.644823
O58   O     O_3   0.080328 0.462375 0.784726 -0.592604
O59   O     O_3   0.077842 0.532909 0.791814 -0.595152
O60   O     O_3   0.080161 0.537621 0.214890 -0.592614
O61   O     O_R   0.527870 0.831980 0.777880 -0.642190
O62   O     O_R   0.027870 0.668020 0.777880 -0.644761
O63   O     O_R   0.027870 0.668020 0.222120 -0.642200
O64   O     O_R   0.027870 0.331980 0.222120 -0.644808
O65   O     O_3   0.499990 0.750000 0.750000 -0.485009
O66   O     O_R   0.027870 0.331980 0.777880 -0.642139
O67   O     O_R   0.027870 0.168020 0.277880 -0.644931
O68   O     O_R   0.027870 0.168020 0.722120 -0.642318
O69   O     O_R   0.027870 0.831980 0.722120 -0.644907
O70   O     O_R   0.027870 0.831980 0.277880 -0.642358
O71   O     O_R   0.472130 0.728510 0.143730 -0.628007
O72   O     O_R   0.472130 0.728510 0.856270 -0.628236
O73   O     O_R   0.472130 0.271490 0.856270 -0.628012
O74   O     O_R   0.472130 0.271490 0.143730 -0.628225
O75   O     O_R   0.472130 0.228510 0.643730 -0.628026
O76   O     O_3   0.499990 0.250000 0.750000 -0.484120
O77   O     O_R   0.472130 0.228510 0.356270 -0.628236
O78   O     O_R   0.472130 0.771490 0.356270 -0.628021
O79   O     O_R   0.472130 0.771490 0.643730 -0.628245
O80   O     O_R   0.972130 0.728510 0.643730 -0.628013
O81   O     O_R   0.972130 0.728510 0.356270 -0.628224
O82   O     O_R   0.972130 0.271490 0.356270 -0.628004
O83   O     O_R   0.972130 0.271490 0.643730 -0.628242
O84   O     O_R   0.972130 0.228510 0.143730 -0.627966
O85   O     O_R   0.972130 0.228510 0.856270 -0.628178
O86   O     O_R   0.972130 0.771490 0.856270 -0.627973
O87   O     O_3   0.499990 0.250000 0.250000 -0.484999
O88   O     O_R   0.972130 0.771490 0.143730 -0.628167
O89   O     O_R   0.393720 0.728520 0.222140 -0.630915
O90   O     O_R   0.393720 0.728520 0.777860 -0.630427
O91   O     O_R   0.393720 0.271480 0.777860 -0.630902
O92   O     O_R   0.393720 0.271480 0.222140 -0.630441
O93   O     O_R   0.393720 0.228520 0.722140 -0.630938
O94   O     O_R   0.393720 0.228520 0.277860 -0.630467
O95   O     O_R   0.393720 0.771480 0.277860 -0.630947
O96   O     O_R   0.393720 0.771480 0.722140 -0.630461
O97   O     O_R   0.893720 0.728520 0.722140 -0.630899
O98   O     O_3   0.999990 0.750000 0.750000 -0.484113
O99   O     O_R   0.893720 0.728520 0.277860 -0.630439
O100  O     O_R   0.893720 0.271480 0.277860 -0.630920
O101  O     O_R   0.893720 0.271480 0.722140 -0.630418
O102  O     O_R   0.893720 0.228520 0.222140 -0.630982
O103  O     O_R   0.893720 0.228520 0.777860 -0.630502
O104  O     O_R   0.893720 0.771480 0.777860 -0.630975
O105  O     O_R   0.893720 0.771480 0.222140 -0.630512
O106  O     O_R   0.606280 0.728500 0.277860 -0.634968
O107  O     O_R   0.606280 0.728500 0.722140 -0.633682
O108  O     O_R   0.606280 0.271500 0.722140 -0.634965
O109  O     O_3   0.999990 0.750000 0.250000 -0.484986
O110  O     O_R   0.606280 0.271500 0.277860 -0.633694
O111  O     O_R   0.606280 0.228500 0.777860 -0.634987
O112  O     O_R   0.606280 0.228500 0.222140 -0.633717
O113  O     O_R   0.606280 0.771500 0.222140 -0.634987
O114  O     O_R   0.606280 0.771500 0.777860 -0.633715
O115  O     O_R   0.106280 0.728500 0.777860 -0.634949
O116  O     O_R   0.106280 0.728500 0.222140 -0.633661
O117  O     O_R   0.106280 0.271500 0.222140 -0.634953
O118  O     O_R   0.106280 0.271500 0.777860 -0.633645
O119  O     O_R   0.106280 0.228500 0.277860 -0.634996
O120  O     O_3   0.999990 0.250000 0.250000 -0.484100
O121  O     O_R   0.106280 0.228500 0.722140 -0.633763
O122  O     O_R   0.106280 0.771500 0.722140 -0.634997
O123  O     O_R   0.106280 0.771500 0.277860 -0.633766
O124  O     O_R   0.527850 0.771500 0.143710 -0.634671
O125  O     O_R   0.527850 0.771500 0.856290 -0.633691
O126  O     O_R   0.527850 0.228500 0.856290 -0.634661
O127  O     O_R   0.527850 0.228500 0.143710 -0.633696
O128  O     O_R   0.527850 0.271500 0.643710 -0.634642
O129  O     O_R   0.527850 0.271500 0.356290 -0.633684
O130  O     O_R   0.527850 0.728500 0.356290 -0.634653
O131  O     O_3   0.999990 0.250000 0.750000 -0.485001
O132  O     O_R   0.527850 0.728500 0.643710 -0.633676
O133  O     O_R   0.027850 0.771500 0.643710 -0.634706
O134  O     O_R   0.027850 0.771500 0.356290 -0.633725
O135  O     O_R   0.027850 0.228500 0.356290 -0.634716
O136  O     O_R   0.027850 0.228500 0.643710 -0.633716
O137  O     O_R   0.027850 0.271500 0.143710 -0.634664
O138  O     O_R   0.027850 0.271500 0.856290 -0.633685
O139  O     O_R   0.027850 0.728500 0.856290 -0.634647
O140  O     O_R   0.027850 0.728500 0.143710 -0.633696
O141  O     O_R   0.472140 0.668020 0.222150 -0.622016
O142  O     O_R   0.527870 0.668020 0.277880 -0.644800
O143  O     O_R   0.472140 0.668020 0.777850 -0.621993
O144  O     O_R   0.472140 0.331980 0.777850 -0.622021
O145  O     O_R   0.472140 0.331980 0.222150 -0.621986
O146  O     O_R   0.472140 0.168020 0.722150 -0.622019
O147  O     O_R   0.472140 0.168020 0.277850 -0.621985
O148  O     O_R   0.472140 0.831980 0.277850 -0.622015
O149  O     O_R   0.472140 0.831980 0.722150 -0.621989
O150  O     O_R   0.972140 0.668020 0.722150 -0.622025
O151  O     O_R   0.972140 0.668020 0.277850 -0.621986
O152  O     O_R   0.972140 0.331980 0.277850 -0.622015
Zn1   Zn    Zn3+2 0.539790 0.780710 0.210180 0.977756
Zn2   Zn    Zn3+2 0.039790 0.780710 0.289820 0.980216
Zn3   Zn    Zn3+2 0.039790 0.219290 0.289820 0.977676
Zn4   Zn    Zn3+2 0.039790 0.219290 0.710180 0.980239
Zn5   Zn    Zn3+2 0.039790 0.280710 0.210180 0.977827
Zn6   Zn    Zn3+2 0.039790 0.280710 0.789820 0.980453
Zn7   Zn    Zn3+2 0.039790 0.719290 0.789820 0.977860
Zn8   Zn    Zn3+2 0.039790 0.719290 0.210180 0.980407
Zn9   Zn    Zn3+2 0.460190 0.719300 0.210200 0.998807
Zn10  Zn    Zn3+2 0.460190 0.719300 0.789800 0.999397
Zn11  Zn    Zn3+2 0.460190 0.280700 0.789800 0.998817
Zn12  Zn    Zn3+2 0.539790 0.780710 0.789820 0.980352
Zn13  Zn    Zn3+2 0.460190 0.280700 0.210200 0.999394
Zn14  Zn    Zn3+2 0.460190 0.219300 0.710200 0.998788
Zn15  Zn    Zn3+2 0.460190 0.219300 0.289800 0.999371
Zn16  Zn    Zn3+2 0.460190 0.780700 0.289800 0.998780
Zn17  Zn    Zn3+2 0.460190 0.780700 0.710200 0.999373
Zn18  Zn    Zn3+2 0.960190 0.719300 0.710200 0.998791
Zn19  Zn    Zn3+2 0.960190 0.719300 0.289800 0.999373
Zn20  Zn    Zn3+2 0.960190 0.280700 0.289800 0.998779
Zn21  Zn    Zn3+2 0.960190 0.280700 0.710200 0.999375
Zn22  Zn    Zn3+2 0.960190 0.219300 0.210200 0.998822
Zn23  Zn    Zn3+2 0.539790 0.219290 0.789820 0.977770
Zn24  Zn    Zn3+2 0.960190 0.219300 0.789800 0.999425
Zn25  Zn    Zn3+2 0.960190 0.780700 0.789800 0.998830
Zn26  Zn    Zn3+2 0.960190 0.780700 0.210200 0.999423
Zn27  Zn    Zn3+2 0.539790 0.219290 0.210180 0.980337
Zn28  Zn    Zn3+2 0.539790 0.280710 0.710180 0.977809
Zn29  Zn    Zn3+2 0.539790 0.280710 0.289820 0.980366
Zn30  Zn    Zn3+2 0.539790 0.719290 0.289820 0.977789
Zn31  Zn    Zn3+2 0.539790 0.719290 0.710180 0.980398
Zn32  Zn    Zn3+2 0.039790 0.780710 0.710180 0.977683

loop_
_geom_bond_atom_site_label_1
_geom_bond_atom_site_label_2
_ccdc_geom_bond_type
C61   C70   S    
C137  C195  S    
O124  Zn1   S    
C208  C260  T    
O119  Zn3   S    
C262  O62   A    
C115  H171  S    
C194  C230  S    
C154  H12   S    
C19   C20   S    
O98   Zn18  S    
O74   Zn13  S    
C158  H20   S    
O131  Zn24  S    
C46   O5    A    
C142  H176  S    
O108  Zn28  S    
C15   C32   T    
C252  H137  S    
O106  Zn30  S    
C245  H144  S    
O77   Zn15  S    
C190  H113  S    
C246  H143  S    
O114  Zn12  S    
C214  C267  T    
O128  Zn28  S    
C117  O54   S    
O110  Zn29  S    
C159  H23   S    
C162  C163  S    
C60   C98   S    
O136  Zn4   S    
C197  C232  S    
C153  H11   S    
C106  C107  S    
C178  H70   S    
O143  Zn10  S    
C106  O44   S    
C191  H97   S    
C236  H153  S    
C244  H145  S    
C8    C26   T    
C242  H130  S    
C170  H50   S    
C182  C183  S    
C18   C271  T    
C186  H87   S    
C240  O57   A    
C53   O96   A    
C1    O142  A    
O122  Zn32  S    
C249  H122  S    
O65   Zn10  S    
C59   O102  A    
O146  Zn14  S    
C144  H180  S    
C217  C252  S    
C173  H55   S    
C161  H29   S    
C74   C83   T    
C88   C97   T    
C169  H45   S    
O85   Zn24  S    
C101  H101  S    
C106  C219  S    
O151  Zn19  S    
C138  O37   D    
C21   C22   S    
O120  Zn20  S    
C215  C251  S    
C176  H64   S    
C105  H68   S    
C44   O134  A    
C110  C223  S    
C223  C264  S    
C224  C263  S    
C223  C246  S    
C248  H141  S    
C132  O27   S    
C62   O114  A    
C219  C268  S    
O86   Zn25  S    
O80   Zn18  S    
C55   O92   A    
O79   Zn17  S    
C114  H182  S    
C144  C145  S    
C188  H93   S    
C218  O35   A    
C82   C91   S    
C13   C203  S    
C156  H19   S    
C171  H52   S    
C58   O105  A    
C163  H33   S    
C193  H102  S    
O6    Zn25  S    
C11   C49   S    
C134  O31   S    
C175  C176  S    
C164  H36   S    
C115  C118  S    
C149  H191  S    
C229  O46   A    
O35   Zn23  S    
C192  H99   S    
O141  Zn9   S    
C139  O40   S    
C201  C262  S    
C241  H148  S    
C231  C256  S    
C113  C221  S    
C154  C155  S    
O3    Zn21  S    
C63   O111  A    
C189  H94   S    
C174  H59   S    
C122  C234  S    
C124  C222  S    
C105  C217  S    
O4    Zn22  S    
C158  C159  S    
C8    C50   S    
C40   O77   A    
C180  H72   S    
C213  C229  S    
C107  O45   S    
O87   Zn29  S    
O75   Zn14  S    
C164  C165  S    
C56   O104  A    
C94   C103  T    
C40   O129  A    
C218  O146  A    
C144  H181  S    
O66   Zn6   S    
C150  H4    S    
C173  H58   S    
C177  H66   S    
C45   O82   A    
C135  C223  S    
C196  O13   A    
C244  C247  S    
C127  O15   D    
C238  H133  S    
C112  C209  S    
C123  O9    S    
C148  O45   S    
C80   C88   S    
O76   Zn14  S    
C47   O136  A    
C114  C225  S    
C196  O144  A    
C53   O90   A    
C54   O93   A    
O107  Zn31  S    
C59   O100  A    
C84   C93   S    
O145  Zn13  S    
C44   O81   A    
C169  H47   S    
O147  Zn15  S    
C196  C212  S    
C170  H48   S    
C50   O139  A    
C90   H90   S    
C145  H184  S    
O2    Zn31  S    
C239  C243  S    
O150  Zn18  S    
C76   C85   T    
C248  C252  S    
C34   O124  A    
C183  H80   S    
O68   Zn4   S    
C112  O2    A    
C78   C87   S    
C24   O66   A    
C79   H79   S    
C58   O99   A    
C134  O30   D    
C69   C77   S    
C119  O56   S    
C101  C220  S    
C225  C261  S    
C215  C268  T    
H163  O25   S    
C143  H179  S    
C129  O19   D    
C226  C243  S    
C69   O118  A    
C167  C169  S    
C225  C244  S    
C249  C250  S    
O78   Zn16  S    
C240  O148  A    
C167  H44   S    
C125  O11   S    
C151  O47   S    
C193  H104  S    
C36   O125  A    
O73   Zn11  S    
C168  C226  S    
C172  C173  S    
C228  C258  S    
C75   C84   T    
C79   C217  S    
C167  O52   S    
C247  H124  S    
C201  C254  T    
C165  H39   S    
O137  Zn5   S    
C119  H127  S    
C184  C185  S    
C241  C242  S    
O1    Zn9   S    
O83   Zn21  S    
C174  C175  S    
O91   Zn11  S    
C110  C111  S    
C189  H96   S    
O90   Zn10  S    
C147  H186  S    
C140  O41   D    
H164  O27   S    
C219  C250  S    
C251  O149  A    
O65   Zn31  S    
C64   C73   S    
C126  O14   S    
O144  Zn11  S    
O148  Zn16  S    
O125  Zn12  S    
O69   Zn32  S    
C184  H83   S    
O76   Zn23  S    
C111  C224  S    
C177  O55   S    
C139  O39   D    
C248  H123  S    
C207  C211  S    
O1    Zn16  S    
C230  C239  S    
C232  C255  S    
C56   C97   S    
C179  H112  S    
O113  Zn1   S    
C101  C126  S    
C195  C199  S    
C205  C258  T    
O62   Zn7   S    
C38   O74   A    
C122  O60   S    
C216  C240  S    
H158  O16   S    
C176  H65   S    
C86   C95   S    
C164  O51   S    
C226  C260  S    
C92   C100  T    
C182  H77   S    
C197  H117  S    
C166  H42   S    
C132  O26   D    
C54   O91   A    
C195  H115  S    
C65   C74   S    
C250  H121  S    
O76   Zn28  S    
C160  H25   S    
C136  C194  S    
C162  H30   S    
C152  H7    S    
C51   O140  A    
C146  C224  S    
C243  H129  S    
C188  H92   S    
C230  C257  S    
O127  Zn27  S    
C121  O59   S    
C17   C18   S    
C180  H73   S    
O131  Zn6   S    
C156  H18   S    
C63   C72   S    
H172  O42   S    
C2    O63   A    
H156  O11   S    
O101  Zn21  S    
O109  Zn26  S    
O123  Zn2   S    
C183  H78   S    
C163  H32   S    
C109  C114  S    
O95   Zn16  S    
C115  O52   S    
C247  H142  S    
C68   C206  S    
C232  C237  S    
C235  C238  S    
C68   O70   A    
C143  H177  S    
C216  C269  T    
C155  C156  S    
C120  C121  S    
C63   O108  A    
C210  C263  T    
C16   C44   S    
O120  Zn5   S    
C153  H10   S    
C137  O36   S    
O63   Zn8   S    
C187  H91   S    
O104  Zn25  S    
C158  H21   S    
C198  C233  S    
O129  Zn29  S    
O152  Zn20  S    
C249  H140  S    
C119  C231  S    
C250  H139  S    
C42   O79   A    
C229  O147  A    
C89   C98   T    
C183  H81   S    
C79   C113  S    
C144  O44   S    
C15   C43   S    
C172  H53   S    
O98   Zn32  S    
H161  O20   S    
C108  C221  S    
C2    O151  A    
C66   O123  A    
O7    Zn26  S    
C147  H187  S    
C126  O12   D    
C62   C71   S    
C154  H14   S    
C124  H107  S    
C179  C227  S    
C197  C198  S    
C233  C236  S    
C186  H88   S    
C116  H160  S    
O133  Zn32  S    
C138  C197  S    
C152  C153  S    
C105  O43   S    
C1    O141  A    
C60   O101  A    
O138  Zn6   S    
C130  O21   D    
C91   C99   T    
C155  H16   S    
C245  C246  S    
C220  C267  S    
O67   Zn3   S    
O93   Zn14  S    
C50   O86   A    
C66   O116  A    
C206  C259  T    
C117  C228  S    
C138  O38   S    
C174  O54   S    
C185  H85   S    
C7    C36   S    
C9    C51   S    
C187  O59   S    
C35   O4    A    
C227  C242  S    
H170  O40   S    
C161  C162  S    
C139  C198  S    
C181  C182  S    
C95   C104  T    
O72   Zn10  S    
O102  Zn22  S    
C57   C208  S    
C52   C102  S    
C26   C27   S    
H159  O18   S    
C148  H189  S    
C231  C238  S    
C54   C104  S    
C61   O106  A    
C160  H27   S    
H162  O22   S    
C30   C31   S    
C141  O43   S    
O126  Zn23  S    
H165  O29   S    
C37   O73   A    
O131  Zn4   S    
C171  H51   S    
C143  H178  S    
C111  H2    S    
C181  H74   S    
C131  C157  S    
O5    Zn24  S    
C175  H62   S    
C141  H174  S    
C149  H190  S    
C151  C152  S    
C55   O94   A    
C192  H100  S    
C158  O49   S    
C14   C31   T    
C72   C81   T    
C157  C225  S    
C124  C128  S    
C81   C89   S    
C174  H60   S    
C146  H109  S    
C220  C249  S    
O87   Zn27  S    
C120  C232  S    
C187  H89   S    
O131  Zn21  S    
H157  O14   S    
C176  H63   S    
C145  C147  S    
O64   Zn5   S    
C53   C100  S    
O99   Zn19  S    
C112  O143  A    
C239  H150  S    
C116  C227  S    
C150  H3    S    
C128  O18   S    
C122  H1    S    
C117  H149  S    
O140  Zn8   S    
O121  Zn4   S    
C178  H69   S    
C191  H98   S    
C235  H154  S    
O149  Zn17  S    
C65   O122  A    
C191  C192  S    
C32   C33   S    
O120  Zn22  S    
C106  H57   S    
C161  O50   S    
O130  Zn30  S    
C170  H49   S    
C186  H86   S    
O76   Zn11  S    
O71   Zn9   S    
C191  O60   S    
C159  C160  S    
O112  Zn27  S    
C47   O83   A    
C124  C157  S    
C251  O61   A    
C243  H146  S    
C245  H126  S    
C51   O88   A    
C3    C20   T    
C157  H110  S    
C57   O6    A    
C173  H56   S    
C209  C261  T    
C107  H46   S    
O115  Zn7   S    
C64   O112  A    
C3    C40   S    
C5    C38   S    
C121  C233  S    
C48   O137  A    
C10   C48   S    
C190  C228  S    
C234  C235  S    
C137  O34   D    
C73   C82   T    
C9    C27   T    
C203  C256  T    
C114  O51   S    
C10   C28   T    
C198  H118  S    
C68   O7    A    
O88   Zn26  S    
O82   Zn20  S    
C116  O53   S    
C12   C30   T    
C168  H111  S    
O84   Zn22  S    
C113  H106  S    
C182  H76   S    
O89   Zn9   S    
C62   O107  A    
C194  H114  S    
C93   C102  T    
C178  C180  S    
C49   O85   A    
C19   C272  T    
C221  C248  S    
C111  O50   S    
C121  H105  S    
C7    C25   T    
C167  H43   S    
C125  O10   D    
C163  H34   S    
C193  H103  S    
C187  C188  S    
O87   Zn13  S    
C149  C150  S    
C192  C193  S    
O100  Zn20  S    
C52   O95   A    
C185  C186  S    
C110  H13   S    
C133  O29   S    
O70   Zn2   S    
C211  C264  T    
C165  H38   S    
C24   O3    A    
O61   Zn12  S    
C120  O58   S    
C41   O130  A    
C107  C220  S    
C189  H95   S    
C6    C34   S    
C147  H185  S    
C140  O42   S    
C4    C37   S    
C110  O49   S    
C177  C178  S    
O24   Zn29  S    
C13   O64   A    
C252  H120  S    
C142  C143  S    
C136  O33   S    
C204  C257  T    
C67   O117  A    
C180  H71   S    
C142  H175  S    
C109  C222  S    
C17   C270  T    
H169  O38   S    
C133  O28   D    
C171  C172  S    
O132  Zn31  S    
C181  H75   S    
C165  C166  S    
C48   O84   A    
C55   C103  S    
C70   C78   T    
O13   Zn28  S    
C59   C99   S    
C169  C170  S    
C228  C241  S    
C159  H22   S    
C49   O138  A    
C177  H67   S    
C166  H40   S    
O135  Zn3   S    
C236  C237  S    
C83   C92   S    
C24   C202  S    
O139  Zn7   S    
C127  O16   S    
C2    C200  S    
C45   O135  A    
C140  C199  S    
C118  O55   S    
C136  O32   D    
C108  O47   S    
O116  Zn8   S    
O87   Zn15  S    
C38   O127  A    
C6    C23   T    
O57   Zn1   S    
C41   O78   A    
C129  C135  S    
C116  C117  S    
C148  H188  S    
C43   O80   A    
C222  C247  S    
C131  O23   D    
C42   C271  S    
C160  H26   S    
C58   C96   S    
C221  C266  S    
O118  Zn6   S    
O117  Zn5   S    
C35   C205  S    
C5    C22   T    
C202  C255  T    
C108  H35   S    
C235  H136  S    
C65   O115  A    
O94   Zn15  S    
C66   C75   S    
C69   O121  A    
C162  H31   S    
C237  H152  S    
C236  H135  S    
C152  H8    S    
C238  H151  S    
C109  O48   S    
C227  C259  S    
C135  H108  S    
C135  C146  S    
C150  H192  S    
C120  H116  S    
O134  Zn2   S    
C181  O56   S    
C60   O103  A    
C129  O20   S    
C71   C80   T    
H166  O31   S    
C118  H138  S    
C130  C146  S    
C262  O150  A    
H168  O36   S    
C105  C108  S    
C153  H9    S    
C43   O133  A    
C52   O89   A    
O105  Zn26  S    
C42   O132  A    
C148  C149  S    
C115  C226  S    
C199  C234  S    
O96   Zn17  S    
C222  C265  S    
C133  C179  S    
C154  O48   S    
C164  H37   S    
C233  C254  S    
C239  H132  S    
C79   C123  S    
C213  C266  T    
C207  O145  A    
C131  O25   S    
C188  C189  S    
C57   O69   A    
C34   O71   A    
C90   C101  S    
C172  H54   S    
O109  Zn2   S    
O98   Zn25  S    
C16   C33   T    
C184  O58   S    
C85   C94   S    
O120  Zn3   S    
C87   C96   T    
C241  H131  S    
C237  H134  S    
C242  H147  S    
C195  C231  S    
C41   C270  S    
O103  Zn24  S    
C13   O152  A    
C234  C253  S    
C90   C219  S    
H155  O9    S    
O46   Zn27  S    
C90   C125  S    
C214  C218  S    
C77   C86   T    
C56   O97   A    
O1    Zn1   S    
C207  O24   A    
C130  O22   S    
C155  H15   S    
C39   C272  S    
C28   C29   S    
C119  C122  S    
O65   Zn17  S    
C171  O53   S    
C36   O72   A    
C1    C210  S    
C185  H84   S    
C151  H6    S    
C132  C168  S    
C39   O75   A    
C12   C45   S    
C64   O110  A    
C212  C265  T    
C145  H183  S    
C14   C47   S    
C113  C127  S    
C109  H24   S    
C184  H82   S    
C46   C204  S    
C166  H41   S    
C37   O126  A    
C200  C253  T    
O109  Zn19  S    
C246  H125  S    
C39   O128  A    
C134  C190  S    
C151  H5    S    
C123  O8    D    
O1    Zn30  S    
C35   O67   A    
C141  C142  S    
C4    C21   T    
C161  H28   S    
C179  C190  S    
O92   Zn13  S    
C118  C230  S    
C217  C269  S    
O97   Zn18  S    
O98   Zn7   S    
O142  Zn30  S    
C128  O17   D    
C156  H17   S    
C67   O119  A    
C23   C25   S    
C199  H119  S    
O111  Zn23  S    
C175  H61   S    
C61   O113  A    
C224  C245  S    
C141  H173  S    
C11   C29   T    
O81   Zn19  S    
C168  C194  S    
C67   C76   S    
H167  O33   S    
C244  H128  S    
O109  Zn8   S    
C46   O68   A    
O65   Zn12  S    
