data_mof_unit_37715.cif
_audit_creation_date              2013-03-05T15:49:04-0500
_audit_creation_method            fapswitch 2.2
_symmetry_space_group_name_H-M    P1
_symmetry_Int_Tables_number       1
_space_group_crystal_system       triclinic
_cell_length_a                    10.656222
_cell_length_b                    13.055952
_cell_length_c                    11.817638
_cell_angle_alpha                 100.231272
_cell_angle_beta                  93.969738
_cell_angle_gamma                 92.17961
_cell_volume                      1612.00551573

loop_
_atom_site_label
_atom_site_type_symbol
_atom_site_description
_atom_site_fract_x
_atom_site_fract_y
_atom_site_fract_z
_atom_type_partial_charge
O1    O     O_R   0.506670 0.354460 0.582000 -0.567129
O2    O     O_R   0.493330 0.645540 0.418000 -0.567167
O3    O     O_R   0.490800 0.341410 0.386200 -0.579628
O4    O     O_R   0.509200 0.658590 0.613800 -0.579584
C1    C     C_R   0.501865 0.299706 0.478724 0.817537
C2    C     C_R   0.498116 0.700296 0.521269 0.817452
O5    O     O_R   0.324790 0.506500 0.597880 -0.560081
O6    O     O_R   0.675210 0.493500 0.402120 -0.559921
O7    O     O_R   0.308910 0.493440 0.402080 -0.581676
O8    O     O_R   0.691090 0.506560 0.597920 -0.581809
C3    C     C_R   0.259754 0.499260 0.499696 0.808642
C4    C     C_R   0.740243 0.500721 0.500303 0.808381
Cu1   Cu    Cu3+1 0.509400 0.507730 0.615930 0.979312
Cu2   Cu    Cu3+1 0.490600 0.492270 0.384070 0.979369
C5    C     C_3   0.039075 0.406319 0.519967 -0.339845
C6    C     C_3   0.960920 0.593603 0.480041 -0.339667
C7    C     C_3   0.948466 0.424934 0.419000 0.239355
C8    C     C_3   0.051520 0.574980 0.581015 0.239338
H1    H     H_    0.070661 0.328975 0.532803 0.159716
H2    H     H_    0.929336 0.670946 0.467204 0.159691
C9    C     C_3   0.876719 0.500917 0.501408 -0.166729
C10   C     C_3   0.123275 0.499008 0.498598 -0.166545
C11   C     C_3   0.967047 0.484202 0.603635 0.285244
C12   C     C_3   0.032938 0.515710 0.396366 0.285295
C13   C     C_R   0.500118 0.813621 0.532727 -0.157442
C14   C     C_R   0.499850 0.186385 0.467239 -0.157302
C15   C     C_R   0.417788 0.019620 0.360087 0.306636
C16   C     C_R   0.582193 0.980396 0.639860 0.306653
C17   C     C_R   0.433264 0.126585 0.371511 -0.282503
C18   C     C_R   0.566680 0.873434 0.628462 -0.282353
C19   C     C_R   0.560442 0.137908 0.551960 0.205806
C20   C     C_R   0.439570 0.862094 0.447966 0.205989
C21   C     C_R   0.536488 0.030180 0.548688 -0.028809
C22   C     C_R   0.463504 0.969828 0.451254 -0.028883
H3    H     H_    0.606873 0.836433 0.696079 0.218683
H4    H     H_    0.393043 0.163597 0.303915 0.218700
N1    N     N_R   0.523540 0.519360 0.790140 -0.220009
N2    N     N_R   0.476460 0.480640 0.209860 -0.220037
C23   C     C_R   0.411308 0.382505 0.019138 -0.283787
C24   C     C_R   0.588698 0.617494 0.980861 -0.283807
C25   C     C_R   0.409922 0.396446 0.140652 0.464284
C26   C     C_R   0.590076 0.603555 0.859347 0.464249
C27   C     C_R   0.541324 0.551202 0.158464 0.382959
C28   C     C_R   0.458681 0.448796 0.841536 0.383017
C29   C     C_R   0.532502 0.542853 0.035196 -0.054215
C30   C     C_R   0.467502 0.457147 0.964804 -0.054242
H5    H     H_    0.367363 0.313167 0.966230 0.165185
H6    H     H_    0.632651 0.686829 0.033768 0.165192
N3    N     N_2   0.887542 0.343993 0.330172 -0.399518
H7    H     H_    0.809472 0.308028 0.355900 0.246229
C31   C     C_3   0.970833 0.270649 0.272383 -0.612107
H8    H     H_    0.917124 0.218414 0.199236 0.244647
H9    H     H_    0.011488 0.222473 0.333001 0.203032
H10   H     H_    0.047907 0.312150 0.237676 0.261948
N4    N     N_2   0.112398 0.655886 0.669913 -0.399590
H11   H     H_    0.190570 0.691816 0.644325 0.246255
C32   C     C_3   0.029086 0.729245 0.727643 -0.612048
H12   H     H_    0.082741 0.781434 0.800862 0.244658
H13   H     H_    0.951924 0.687751 0.762239 0.261856
H14   H     H_    0.988559 0.777467 0.667017 0.203096
Br1   Br    Br    0.923706 0.461815 0.754685 -0.548462
Br2   Br    Br    0.076236 0.537988 0.245269 -0.548745
N5    N     N_2   0.344856 0.805798 0.367391 -0.382476
H15   H     H_    0.374314 0.746687 0.306784 0.298168
C33   C     C_3   0.226986 0.783297 0.413826 -0.566977
H16   H     H_    0.151614 0.765733 0.342551 0.266755
H17   H     H_    0.199955 0.851480 0.476389 0.214568
H18   H     H_    0.234927 0.714697 0.456718 0.195636
N6    N     N_2   0.655271 0.194194 0.632423 -0.382352
H19   H     H_    0.625833 0.253122 0.693275 0.298219
C34   C     C_3   0.772936 0.217002 0.585828 -0.567057
H20   H     H_    0.848811 0.233187 0.656813 0.266661
H21   H     H_    0.765155 0.286593 0.544509 0.196536
H22   H     H_    0.799181 0.149479 0.521798 0.213880
Br3   Br    Br    0.340368 0.951445 0.211948 -0.521838
Br4   Br    Br    0.659638 0.048599 0.787973 -0.521957
N7    N     N_2   0.380047 0.368891 0.770455 -0.406398
H23   H     H_    0.405289 0.294476 0.776486 0.236242
C35   C     C_3   0.245879 0.381917 0.774413 -0.568932
H24   H     H_    0.211815 0.365878 0.856325 0.220917
H25   H     H_    0.195064 0.326178 0.702808 0.216628
H26   H     H_    0.222393 0.462431 0.765978 0.277806
N8    N     N_2   0.619968 0.631101 0.229545 -0.406404
H27   H     H_    0.594736 0.705519 0.223513 0.236245
C36   C     C_3   0.754133 0.618063 0.225583 -0.568913
H28   H     H_    0.804956 0.673796 0.297188 0.216619
H29   H     H_    0.788197 0.634102 0.143671 0.220899
H30   H     H_    0.777609 0.537546 0.234012 0.277828
N9    N     N_2   0.659804 0.677485 0.808523 -0.411414
H31   H     H_    0.710989 0.645332 0.742458 0.296745
C37   C     C_3   0.727441 0.767037 0.880427 -0.729181
H32   H     H_    0.775804 0.814366 0.825531 0.244406
H33   H     H_    0.800810 0.741335 0.939283 0.242447
H34   H     H_    0.660906 0.817466 0.929863 0.269425
N10   N     N_2   0.340188 0.322515 0.191471 -0.411428
H35   H     H_    0.289034 0.354662 0.257561 0.296772
C38   C     C_3   0.272504 0.232990 0.119559 -0.729121
H36   H     H_    0.224123 0.185668 0.174449 0.244373
H37   H     H_    0.339010 0.182543 0.070108 0.269418
H38   H     H_    0.199146 0.258725 0.060717 0.242483

loop_
_geom_bond_atom_site_label_1
_geom_bond_atom_site_label_2
_geom_bond_distance
_ccdc_geom_bond_type
N7    H23   1.031115 S    
N4    H11   1.030027 S    
N5    C33   1.445592 S    
C6    C9    1.546135 S    
C1    C14   1.460708 S    
C15   C17   1.381355 A    
C27   N8    1.421568 S    
N10   H35   1.021371 S    
C38   H36   1.110301 S    
C23   C25   1.416239 A    
C36   H28   1.107555 S    
C5    H1    1.108684 S    
C17   H4    1.077413 S    
C18   H3    1.077409 S    
O1    C1    1.296856 A    
C28   N7    1.421566 S    
C32   H13   1.108201 S    
C2    C13   1.460798 S    
C37   H33   1.111408 S    
N1    C26   1.386006 A    
C5    C7    1.541563 S    
O4    Cu1   1.974326 S    
N6    C34   1.445511 S    
C34   H22   1.113121 S    
C5    C10   1.546164 S    
C33   H17   1.112306 S    
C12   Br2   1.942753 S    
C19   C21   1.413102 A    
N9    C37   1.451451 S    
Cu1   N1    2.031864 S    
O6    C4    1.296253 A    
C13   C20   1.409588 A    
C5    C11   1.551778 S    
C14   C19   1.409461 A    
C6    C12   1.551823 S    
Cu1   Cu2   2.704280 S    
O2    C2    1.296813 A    
C15   Br3   1.930879 S    
C38   H37   1.110718 S    
C28   C30   1.437583 A    
N7    C35   1.449187 S    
C15   C22   1.421580 A    
C24   C29   1.397037 A    
C7    C12   1.533372 S    
C36   H29   1.107945 S    
C8    C11   1.533340 S    
N2    C25   1.386016 A    
O4    C2    1.305644 A    
C7    N3    1.448988 S    
C37   H32   1.110298 S    
C34   H21   1.108396 S    
C32   H14   1.110983 S    
N3    C31   1.444780 S    
C29   C30   1.398020 A    
C4    C9    1.453368 S    
C7    C9    1.527958 S    
C31   H8    1.110084 S    
C31   H9    1.110989 S    
C20   C22   1.413125 A    
O5    C3    1.296242 A    
O7    Cu2   1.962721 S    
Cu2   N2    2.031865 S    
O7    C3    1.290924 A    
C19   N6    1.423935 S    
C24   C26   1.416244 A    
N8    H27   1.031113 S    
O5    Cu1   1.963184 S    
C6    H2    1.108686 S    
C33   H18   1.107871 S    
C21   C22   1.434799 A    
C27   C29   1.437587 A    
O3    Cu2   1.974327 S    
O8    C4    1.290896 A    
C8    N4    1.448994 S    
C23   C30   1.397031 A    
N8    C36   1.449188 S    
C16   C21   1.421530 A    
C33   H16   1.109438 S    
N4    C32   1.444772 S    
C10   C12   1.543487 S    
O1    Cu1   1.968473 S    
C16   Br4   1.930835 S    
C38   H38   1.111410 S    
C23   H5    1.075125 S    
C36   H30   1.109655 S    
C13   C18   1.387735 A    
C24   H6    1.075128 S    
O6    Cu2   1.963185 S    
C8    C10   1.527992 S    
C20   N5    1.423898 S    
N5    H15   1.029721 S    
O3    C1    1.305551 A    
O8    Cu1   1.962722 S    
C35   H26   1.109658 S    
N10   C38   1.451456 S    
C3    C10   1.453392 S    
C35   H25   1.107553 S    
C31   H10   1.108197 S    
C26   N9    1.434465 S    
N1    C28   1.379794 A    
C9    C11   1.543444 S    
N2    C27   1.379800 A    
C37   H34   1.110718 S    
C32   H12   1.110089 S    
C25   N10   1.434472 S    
C16   C18   1.381377 A    
N6    H19   1.029818 S    
O2    Cu2   1.968473 S    
C35   H24   1.107945 S    
C11   Br1   1.942783 S    
C34   H20   1.110052 S    
C14   C17   1.387722 A    
C6    C8    1.541597 S    
N3    H7    1.030077 S    
N9    H31   1.021378 S    
