data_mof_unit_24875.cif
_audit_creation_date              2012-12-11T15:48:33-0500
_audit_creation_method            fapswitch 2.2
_symmetry_space_group_name_H-M    P1
_symmetry_Int_Tables_number       1
_space_group_crystal_system       triclinic
_cell_length_a                    10.934564
_cell_length_b                    10.971855
_cell_length_c                    18.770093
_cell_angle_alpha                 90.778995
_cell_angle_beta                  90.368038
_cell_angle_gamma                 60.312565
_cell_volume                      1956.12984048

loop_
_atom_site_label
_atom_site_type_symbol
_atom_type_description
_atom_site_fract_x
_atom_site_fract_y
_atom_site_fract_z
_atom_type_partial_charge
C1    C     C_R   0.241368 0.645304 0.610868 0.556454
C2    C     C_3   0.646755 0.569769 0.799295 -0.253022
C3    C     C_3   0.700190 0.673954 0.811564 0.045326
C4    C     C_3   0.672126 0.648725 0.675283 0.056817
C5    C     C_3   0.827764 0.600412 0.692371 -0.244185
C6    C     C_3   0.624022 0.559953 0.719076 -0.208969
C7    C     C_R   0.681971 0.153651 0.822751 0.015575
C8    C     C_R   0.779190 0.176090 0.785570 -0.021753
C9    C     C_R   0.772985 0.185921 0.711407 -0.012793
C10   C     C_R   0.577801 0.142956 0.709846 -0.182267
C11   C     C_R   0.574030 0.149537 0.783046 -0.173381
C12   C     C_R   0.655293 0.623702 0.599945 0.536436
C13   C     C_3   0.935189 0.094847 0.786549 -0.241075
C14   C     C_3   0.929671 0.103818 0.705930 -0.225930
C15   C     C_R   0.674072 0.165918 0.672445 0.009269
C16   C     C_R   0.183725 0.665665 0.836051 -0.045200
C17   C     C_R   0.156467 0.575515 0.794296 0.000982
C18   C     C_R   0.164876 0.574481 0.720473 -0.061340
C19   C     C_R   0.219165 0.762126 0.727996 0.309428
C20   C     C_R   0.218133 0.757166 0.801840 -0.144789
C21   C     C_3   0.230418 0.419521 0.796853 -0.270063
C22   C     C_3   0.236642 0.418831 0.716291 -0.264178
C23   C     C_R   0.630281 0.225964 0.601926 0.546334
C24   C     C_R   0.198506 0.665752 0.685723 0.010550
C25   C     C_R   0.674394 0.680836 0.173947 0.018764
C26   C     C_R   0.794299 0.613504 0.217034 0.048072
C27   C     C_R   0.787322 0.611801 0.289758 0.015762
C28   C     C_R   0.534846 0.755037 0.281970 -0.162457
C29   C     C_R   0.543802 0.760502 0.207529 -0.183229
C30   C     C_3   0.918507 0.468964 0.213186 -0.259786
C31   C     C_3   0.917137 0.470641 0.293981 -0.277308
C32   C     C_R   0.656779 0.670549 0.323055 0.016507
C33   C     C_R   0.628067 0.196784 0.167292 0.021652
C34   C     C_R   0.220240 0.648987 0.402215 0.543659
C35   C     C_R   0.512865 0.207897 0.204852 0.019397
C36   C     C_R   0.495473 0.243532 0.275823 0.007442
C37   C     C_R   0.686543 0.291738 0.270794 -0.163325
C38   C     C_R   0.706870 0.252344 0.198511 -0.168570
C39   C     C_3   0.466672 0.101744 0.214582 -0.263699
C40   C     C_3   0.447874 0.140828 0.292828 -0.266742
C41   C     C_R   0.588954 0.274535 0.311561 0.016283
C42   C     C_R   0.118314 0.691930 0.188161 0.029846
C43   C     C_R   0.055535 0.810574 0.232838 0.042596
C44   C     C_R   0.071666 0.799294 0.305214 0.016391
C45   C     C_R   0.642177 0.624093 0.392888 0.540123
C46   C     C_R   0.193569 0.547195 0.291449 -0.169625
C47   C     C_R   0.180521 0.559136 0.217901 -0.176649
C48   C     C_3   0.064926 0.941811 0.231586 -0.265945
C49   C     C_3   0.079962 0.931280 0.311753 -0.277402
C50   C     C_R   0.151078 0.667266 0.334934 0.022012
C51   C     C_R   0.701919 0.100342 0.895442 0.540130
C52   C     C_R   0.723403 0.687908 0.888081 0.541845
C53   C     C_R   0.119879 0.705028 0.906428 0.541094
C54   C     C_R   0.672486 0.111548 0.102694 0.545422
C55   C     C_R   0.697862 0.691386 0.098652 0.544271
C56   C     C_R   0.578393 0.296032 0.388482 0.566953
C57   C     C_R   0.089552 0.712464 0.113618 0.546003
C58   C     C_3   0.592697 0.817763 0.778854 -0.228744
C59   C     C_3   0.582472 0.804552 0.697642 -0.242682
C60   C     C_3   0.842540 0.620927 0.772014 -0.218679
Cr1   Cr    Cr6+3 0.392960 0.397920 0.502240 0.998228
Cr2   Cr    Cr6+3 0.398340 0.708480 0.501250 1.032688
Cr3   Cr    Cr6+3 0.708670 0.393570 0.496460 1.003281
Cr4   Cr    Cr6+3 0.937650 0.938540 0.007610 1.005726
Cr5   Cr    Cr6+3 0.625330 0.937370 0.994520 1.003415
Cr6   Cr    Cr6+3 0.937940 0.625230 0.001190 1.007509
H1    H     H_    0.629184 0.893584 0.790191 0.142885
H2    H     H_    0.684376 0.448812 0.701917 0.140640
H3    H     H_    0.923866 0.518999 0.793902 0.143428
H4    H     H_    0.896333 0.487483 0.678392 0.138993
H5    H     H_    0.497013 0.130258 0.682624 0.138848
H6    H     H_    0.492259 0.136251 0.807789 0.143163
H7    H     H_    0.973636 0.987500 0.806542 0.168518
H8    H     H_    0.981865 0.154303 0.812165 0.134681
H9    H     H_    0.974063 0.167951 0.684829 0.155806
H10   H     H_    0.966805 0.001031 0.678473 0.176805
H11   H     H_    0.486915 0.858317 0.803410 0.147328
H12   H     H_    0.234478 0.832725 0.832113 0.152065
H13   H     H_    0.162970 0.378788 0.817749 0.135309
H14   H     H_    0.334192 0.377456 0.823425 0.143449
H15   H     H_    0.344275 0.375090 0.694959 0.178922
H16   H     H_    0.170395 0.380541 0.690058 0.136292
H17   H     H_    0.431576 0.807225 0.306230 0.137236
H18   H     H_    0.449475 0.822626 0.176564 0.120874
H19   H     H_    0.011844 0.465660 0.189301 0.157499
H20   H     H_    0.891617 0.392080 0.189536 0.126351
H21   H     H_    0.904329 0.385938 0.317069 0.148124
H22   H     H_    0.470617 0.847646 0.682472 0.220053
H23   H     H_    0.005446 0.478018 0.318366 0.142619
H24   H     H_    0.753253 0.324902 0.296031 0.132410
H25   H     H_    0.791351 0.252979 0.169248 0.112519
H26   H     H_    0.553883 0.993773 0.204115 0.166748
H27   H     H_    0.366106 0.130801 0.186634 0.132748
H28   H     H_    0.336116 0.192653 0.310214 0.127754
H29   H     H_    0.523183 0.054106 0.327372 0.164055
H30   H     H_    0.247605 0.443580 0.313730 0.141609
H31   H     H_    0.222878 0.465676 0.184563 0.120971
H32   H     H_    0.965513 0.033005 0.213873 0.152941
H33   H     H_    0.621565 0.867657 0.670010 0.105994
H34   H     H_    0.161233 0.927299 0.204159 0.135173
H35   H     H_    0.183503 0.915665 0.329763 0.154897
H36   H     H_    0.987508 0.016133 0.340281 0.149161
H37   H     H_    0.878409 0.699019 0.779624 0.130587
H38   H     H_    0.864739 0.661327 0.660949 0.117630
H39   H     H_    0.724766 0.464594 0.819708 0.129923
H40   H     H_    0.546090 0.605205 0.828387 0.117356
H41   H     H_    0.511121 0.595680 0.708741 0.149731
O1    O     O_R   0.507380 0.255700 0.581440 -0.529831
O2    O     O_R   0.524480 0.695810 0.424040 -0.512709
O3    O     O_R   0.736390 0.504290 0.414790 -0.534908
O4    O     O_R   0.691300 0.277290 0.422170 -0.508234
O5    O     O_3   0.499990 0.499990 0.499980 -0.276035
O6    O     O_R   0.089400 0.825690 0.930570 -0.533752
O7    O     O_R   0.818460 0.054440 0.929850 -0.501391
O8    O     O_R   0.606060 0.077150 0.915510 -0.536611
O9    O     O_R   0.646550 0.806680 0.917570 -0.511276
O10   O     O_R   0.837170 0.593410 0.915250 -0.526498
O11   O     O_R   0.065200 0.635530 0.931570 -0.494569
O12   O     O_R   0.280320 0.527350 0.578930 -0.518473
O13   O     O_R   0.068260 0.828890 0.091840 -0.523005
O14   O     O_R   0.798870 0.057410 0.079340 -0.507017
O15   O     O_R   0.584930 0.080350 0.076780 -0.520128
O16   O     O_R   0.626960 0.809650 0.067060 -0.505182
O17   O     O_R   0.816040 0.596610 0.076510 -0.520403
O18   O     O_R   0.045610 0.638500 0.081060 -0.509514
O19   O     O_3   0.833640 0.833710 0.001100 -0.248660
O20   O     O_R   0.260510 0.739590 0.584590 -0.442603
O21   O     O_R   0.532300 0.695080 0.573820 -0.491217
O22   O     O_R   0.744840 0.503500 0.576370 -0.528916
O23   O     O_R   0.699120 0.276560 0.571960 -0.494869
O24   O     O_R   0.498940 0.256500 0.419860 -0.520552
O25   O     O_R   0.272500 0.528080 0.429150 -0.527983
O26   O     O_R   0.252060 0.740380 0.423010 -0.527047
F1    F     F_    0.246026 0.858825 0.698815 -0.669165

loop_
_geom_bond_atom_site_label_1
_geom_bond_atom_site_label_2
_ccdc_geom_bond_type
C44   C49   S    
C8    C13   S    
Cr1   O12   S    
C59   H33   S    
C32   C45   S    
C19   C20   A    
C9    C14   S    
C7    C8    A    
C19   F1    S    
C7    C11   A    
C26   C27   A    
C5    H4    S    
C37   H24   S    
C18   C24   A    
C22   H16   S    
Cr2   O26   S    
C28   C29   A    
C10   C15   A    
C57   O18   A    
C30   C31   S    
C45   O2    A    
Cr4   O14   S    
C4    C59   S    
C1    O12   A    
Cr3   O23   S    
Cr3   O5    S    
Cr1   O1    S    
C59   H22   S    
C39   H27   S    
Cr1   O25   S    
C16   C53   S    
C35   C36   A    
C8    C9    A    
C31   H23   S    
Cr6   O10   S    
C6    H41   S    
C30   H20   S    
C60   H37   S    
C43   C48   S    
C56   O4    A    
C58   H11   S    
C3    C60   S    
C15   C23   S    
C54   O15   A    
C5    H38   S    
C34   O25   A    
C21   C22   S    
C28   H17   S    
C37   C41   A    
Cr5   O8    S    
C36   C41   A    
C2    C6    S    
C42   C57   S    
C53   O6    A    
C52   O9    A    
C25   C29   A    
C48   H34   S    
C55   O16   A    
C34   C50   S    
C51   O7    A    
Cr4   O7    S    
C12   O22   A    
C27   C31   S    
C22   H15   S    
C1    O20   A    
C28   C32   A    
C31   H21   S    
C29   H18   S    
C4    C6    S    
C49   H36   S    
C11   H6    S    
C16   C17   A    
C34   O26   A    
C25   C26   A    
C38   H25   S    
C2    H40   S    
C51   O8    A    
Cr6   O19   S    
C23   O23   A    
C14   H10   S    
C35   C39   S    
C43   C44   A    
C41   C56   S    
C37   C38   A    
C36   C40   S    
C16   C20   A    
C21   H13   S    
C17   C18   A    
Cr2   O5    S    
Cr5   O15   S    
C30   H19   S    
C57   O13   A    
C53   O11   A    
C48   C49   S    
C54   O14   A    
C13   H7    S    
C26   C30   S    
Cr4   O19   S    
Cr6   O11   S    
Cr5   O9    S    
Cr6   O17   S    
C4    C12   S    
C42   C43   A    
C40   H29   S    
C39   H26   S    
C39   C40   S    
C49   H35   S    
C45   O3    A    
C44   C50   A    
C33   C54   S    
C46   C47   A    
Cr4   O6    S    
C5    C60   S    
C27   C32   A    
C18   C22   S    
Cr5   O16   S    
C25   C55   S    
C40   H28   S    
C4    C5    S    
C47   H31   S    
C3    C52   S    
C12   O21   A    
C48   H32   S    
C46   C50   A    
C2    H39   S    
C33   C38   A    
Cr4   O13   S    
Cr6   O18   S    
C20   H12   S    
C14   H9    S    
Cr3   O3    S    
C19   C24   A    
C58   C59   S    
C7    C51   S    
Cr5   O19   S    
Cr2   O21   S    
Cr2   O20   S    
Cr2   O2    S    
C60   H3    S    
C23   O1    A    
C21   H14   S    
C6    H2    S    
C33   C35   A    
C2    C3    S    
C42   C47   A    
Cr3   O22   S    
Cr3   O4    S    
C17   C21   S    
C56   O24   A    
C10   C11   A    
Cr1   O24   S    
C10   H5    S    
C3    C58   S    
C58   H1    S    
C46   H30   S    
C13   H8    S    
C1    C24   S    
C55   O17   A    
C52   O10   A    
C13   C14   S    
Cr1   O5    S    
C9    C15   A    
