data_mof_unit_64691.cif
_audit_creation_date              2012-12-10T20:49:03-0500
_audit_creation_method            fapswitch 2.2
_symmetry_space_group_name_H-M    P1
_symmetry_Int_Tables_number       1
_space_group_crystal_system       triclinic
_cell_length_a                    19.201317
_cell_length_b                    19.160185
_cell_length_c                    19.481329
_cell_angle_alpha                 89.884723
_cell_angle_beta                  94.567901
_cell_angle_gamma                 85.061848
_cell_volume                      7117.62828974

loop_
_atom_site_label
_atom_site_type_symbol
_atom_type_description
_atom_site_fract_x
_atom_site_fract_y
_atom_site_fract_z
_atom_type_partial_charge
C1    C     C_R   0.492220 0.689052 0.507485 0.530667
C2    C     C_2   0.504983 0.541130 0.020733 -0.134693
C3    C     C_2   0.505587 0.483772 0.981640 -0.113878
C4    C     C_R   0.506796 0.310913 0.492358 0.544438
C5    C     C_R   0.509754 0.488961 0.763451 0.038774
C6    C     C_R   0.507677 0.234468 0.487710 0.019621
C7    C     C_R   0.444974 0.201340 0.487978 0.224873
C8    C     C_R   0.446695 0.128272 0.479632 -0.005114
C9    C     C_R   0.512182 0.087593 0.479492 0.149580
C10   C     C_R   0.574045 0.121736 0.478756 -0.023659
C11   C     C_R   0.571446 0.194621 0.481839 -0.203241
C12   C     C_R   0.504791 0.534489 0.095663 0.021993
C13   C     C_R   0.545319 0.873653 0.513057 -0.123354
C14   C     C_R   0.549405 0.800540 0.511388 0.223803
C15   C     C_R   0.480058 0.912824 0.513668 0.172869
C16   C     C_R   0.689779 0.491910 0.507158 0.508423
C17   C     C_R   0.487650 0.765821 0.511013 -0.020758
C18   C     C_R   0.422030 0.804991 0.513047 -0.078448
C19   C     C_R   0.418732 0.878381 0.516607 0.264256
C20   C     C_R   0.233295 0.512491 0.491941 0.031538
C21   C     C_R   0.200821 0.460416 0.524993 -0.145325
C22   C     C_R   0.128262 0.464760 0.525928 -0.087647
C23   C     C_R   0.452330 0.573335 0.128713 -0.126041
C24   C     C_R   0.086563 0.521654 0.493663 0.226325
C25   C     C_R   0.119112 0.573865 0.461286 -0.107269
C26   C     C_R   0.191930 0.569231 0.459911 -0.135659
C27   C     C_R   0.876668 0.539537 0.538991 0.303985
C28   C     C_R   0.310113 0.508112 0.492913 0.520619
C29   C     C_R   0.803399 0.541697 0.539798 -0.137438
C30   C     C_R   0.913114 0.480995 0.509874 0.237967
C31   C     C_R   0.766564 0.488186 0.509191 -0.014469
C32   C     C_R   0.803505 0.430779 0.480154 -0.161962
C33   C     C_R   0.876223 0.426788 0.481697 -0.155967
C34   C     C_R   0.447254 0.564472 0.199061 -0.126338
C35   C     C_R   0.508239 0.491571 0.688326 0.503178
C36   C     C_R   0.492322 0.508873 0.311569 0.509716
C37   C     C_R   0.495045 0.516895 0.237091 0.021564
C38   C     C_R   0.548780 0.479410 0.204286 -0.126196
C39   C     C_R   0.554446 0.488311 0.134146 0.001146
C40   C     C_3   0.635535 0.760007 0.444893 -0.108106
C41   C     C_1   0.641199 0.082190 0.475805 0.232949
C42   C     C_1   0.357778 0.770671 0.513595 0.260574
C43   C     C_1   0.381030 0.096931 0.466336 0.287105
C44   C     C_3   0.341737 0.932116 0.586010 -0.089038
C45   C     C_R   0.540958 0.538686 0.874538 -0.101807
C46   C     C_3   0.357671 0.238490 0.555204 -0.085455
C47   C     C_3   0.896846 0.655264 0.538412 -0.100486
C48   C     C_1   0.612919 0.451337 0.103523 0.191925
C49   C     C_R   0.542204 0.539699 0.803277 -0.121271
C50   C     C_R   0.477365 0.436326 0.795868 -0.119288
C51   C     C_R   0.476739 0.434954 0.867146 -0.112674
C52   C     C_R   0.507324 0.486751 0.906703 0.043112
H1    H     H_    0.587212 0.443878 0.233458 0.144647
H2    H     H_    0.105104 0.423847 0.552356 0.141870
H3    H     H_    0.904090 0.381653 0.459849 0.136780
H4    H     H_    0.231487 0.416181 0.550257 0.135310
H5    H     H_    0.452492 0.396236 0.766198 0.131976
H6    H     H_    0.502497 0.432868 0.005515 0.135930
H7    H     H_    0.414335 0.609343 0.099683 0.120026
H8    H     H_    0.567033 0.577908 0.904285 0.116660
H9    H     H_    0.405978 0.594636 0.223581 0.142173
H10   H     H_    0.499807 0.593167 0.997694 0.121713
H11   H     H_    0.643787 0.813068 0.425411 0.123593
H12   H     H_    0.451469 0.394022 0.891396 0.110542
H13   H     H_    0.597156 0.734725 0.409275 0.113424
H14   H     H_    0.686347 0.727637 0.445415 0.136645
H15   H     H_    0.381518 0.965130 0.610555 0.124051
H16   H     H_    0.340018 0.883323 0.616737 0.108899
H17   H     H_    0.289782 0.962204 0.586553 0.155801
H18   H     H_    0.311596 0.277247 0.557781 0.144095
H19   H     H_    0.398214 0.252235 0.595860 0.125739
H20   H     H_    0.340460 0.186028 0.566301 0.110154
H21   H     H_    0.901341 0.651066 0.481855 0.117783
H22   H     H_    0.934747 0.692249 0.558573 0.156696
H23   H     H_    0.593219 0.899783 0.513999 0.166395
H24   H     H_    0.843639 0.678035 0.549044 0.115198
H25   H     H_    0.619555 0.220388 0.481400 0.140304
H26   H     H_    0.775346 0.585076 0.564201 0.148311
H27   H     H_    0.567873 0.580532 0.779385 0.140132
H28   H     H_    0.087819 0.618096 0.436725 0.124932
H29   H     H_    0.215838 0.610388 0.434578 0.155346
H30   H     H_    0.776245 0.388399 0.457033 0.153219
N1    N     N_2   0.517904 0.013049 0.479144 -0.235541
N2    N     N_2   0.474475 0.986992 0.513575 -0.210591
N3    N     N_2   0.012321 0.528579 0.493419 -0.195722
N4    N     N_2   0.987000 0.473735 0.509827 -0.235069
N5    N     N_1   0.695014 0.050445 0.473449 -0.287857
N6    N     N_1   0.306418 0.743234 0.514049 -0.285291
N7    N     N_1   0.328439 0.072093 0.455591 -0.232481
N8    N     N_1   0.659746 0.421743 0.079027 -0.283366
O1    O     O_3   0.500000 0.500000 0.500000 -0.448294
O2    O     O_R   0.546320 0.532340 0.658770 -0.544565
O3    O     O_R   0.450550 0.549430 0.344370 -0.544468
O4    O     O_R   0.467400 0.453980 0.652500 -0.555249
O5    O     O_R   0.535730 0.464240 0.344360 -0.544518
O6    O     O_3   0.614250 0.762876 0.512506 -0.539062
O7    O     O_3   0.354479 0.916989 0.517090 -0.519080
O8    O     O_3   0.381475 0.241542 0.488604 -0.546144
O9    O     O_3   0.913696 0.590177 0.572429 -0.530941
O10   O     O_R   0.656240 0.454400 0.463600 -0.547622
O11   O     O_R   0.340160 0.549180 0.454800 -0.535913
O12   O     O_R   0.536860 0.652450 0.548350 -0.495897
O13   O     O_R   0.466740 0.343960 0.533260 -0.521104
O14   O     O_R   0.451210 0.659450 0.463610 -0.545996
O15   O     O_R   0.545190 0.344140 0.454780 -0.545309
O16   O     O_R   0.656710 0.532590 0.548340 -0.535244
O17   O     O_R   0.346890 0.463830 0.533270 -0.542513
Zn1   Zn    Zn3+2 0.558280 0.441710 0.441700 0.942962
Zn2   Zn    Zn3+2 0.558950 0.553420 0.562770 0.961593
Zn3   Zn    Zn3+2 0.446190 0.441460 0.553820 0.943935
Zn4   Zn    Zn3+2 0.436580 0.563410 0.441710 0.955586

loop_
_geom_bond_atom_site_label_1
_geom_bond_atom_site_label_2
_ccdc_geom_bond_type
C33   H3    S    
C45   H8    S    
C7    O8    S    
C27   C29   A    
C34   C37   A    
C8    C43   S    
C2    C12   S    
C19   O7    S    
C7    C8    A    
C22   H2    S    
N3    N4    D    
C16   C31   S    
C23   H7    S    
C12   C23   A    
C27   O9    S    
C43   N7    T    
C40   H11   S    
O13   Zn3   S    
O1    Zn3   S    
C36   C37   S    
C47   H24   S    
C18   C42   S    
C38   C39   A    
O2    Zn2   S    
C28   O17   A    
C25   H28   S    
C4    O13   A    
C47   O9    S    
C18   C19   A    
O1    Zn4   S    
C11   H25   S    
C28   O11   A    
C29   H26   S    
C13   H23   S    
C8    C9    A    
C30   N4    S    
C9    C10   A    
C46   H20   S    
C16   O16   A    
C35   O2    A    
C46   O8    S    
C48   N8    T    
C13   C14   A    
C10   C41   S    
C14   C17   A    
C5    C49   A    
C40   O6    S    
C36   O3    A    
C14   O6    S    
C50   C51   A    
C41   N5    T    
O15   Zn1   S    
O10   Zn1   S    
C51   C52   A    
C24   C25   A    
C47   H21   S    
C4    C6    S    
O5    Zn1   S    
C6    C11   A    
C16   O10   A    
C20   C28   S    
C45   C52   A    
C25   C26   A    
O4    Zn3   S    
C34   H9    S    
C49   H27   S    
C15   C19   A    
C37   C38   A    
C21   H4    S    
C44   O7    S    
N1    N2    D    
C45   C49   A    
C23   C34   A    
C17   C18   A    
C44   H17   S    
C1    O14   A    
C46   H19   S    
C15   N2    S    
C9    N1    S    
O3    Zn4   S    
C26   H29   S    
C40   H13   S    
C13   C15   A    
O17   Zn3   S    
C22   C24   A    
C5    C50   A    
C44   H16   S    
C42   N6    T    
C24   N3    S    
C35   O4    A    
C30   C33   A    
C50   H5    S    
O1    Zn1   S    
C31   C32   A    
C51   H12   S    
C47   H22   S    
C44   H15   S    
O14   Zn4   S    
C3    C52   S    
C6    C7    A    
O11   Zn4   S    
C32   H30   S    
C4    O15   A    
C1    C17   S    
C32   C33   A    
O1    Zn2   S    
C12   C39   A    
C2    C3    D    
C29   C31   A    
C36   O5    A    
C38   H1    S    
C20   C26   A    
C5    C35   S    
C46   H18   S    
C10   C11   A    
C3    H6    S    
C20   C21   A    
O12   Zn2   S    
C40   H14   S    
C21   C22   A    
C1    O12   A    
C2    H10   S    
C39   C48   S    
C27   C30   A    
O16   Zn2   S    
