data_mof_unit_51130.cif
_audit_creation_date              2012-12-10T17:11:28-0500
_audit_creation_method            fapswitch 2.2
_symmetry_space_group_name_H-M    P1
_symmetry_Int_Tables_number       1
_space_group_crystal_system       triclinic
_cell_length_a                    14.96715
_cell_length_b                    13.157567
_cell_length_c                    11.821646
_cell_angle_alpha                 97.410533
_cell_angle_beta                  92.300722
_cell_angle_gamma                 93.984973
_cell_volume                      2300.18586753

loop_
_atom_site_label
_atom_site_type_symbol
_atom_type_description
_atom_site_fract_x
_atom_site_fract_y
_atom_site_fract_z
_atom_type_partial_charge
C1    C     C_R   0.506484 0.301121 0.480715 0.814670
C2    C     C_R   0.497350 0.699879 0.519344 0.814547
C3    C     C_R   0.035738 0.329903 0.564948 -0.017087
C4    C     C_R   0.963204 0.668232 0.425454 -0.036210
C5    C     C_R   0.488902 0.812254 0.527829 -0.202061
C6    C     C_R   0.518610 0.189921 0.472158 -0.212622
C7    C     C_R   0.521414 0.027160 0.352623 -0.189689
C8    C     C_R   0.474842 0.975205 0.646007 -0.203078
C9    C     C_R   0.528929 0.133263 0.363883 -0.034808
C10   C     C_R   0.463804 0.868100 0.631127 -0.039077
C11   C     C_R   0.513516 0.137772 0.570329 -0.162434
C12   C     C_R   0.509984 0.866783 0.435229 -0.082172
C13   C     C_R   0.498386 0.029595 0.555480 0.068028
C14   C     C_R   0.507702 0.974199 0.447020 0.080056
C15   C     C_R   0.411394 0.399346 0.031721 -0.216324
C16   C     C_R   0.585648 0.599394 0.969271 -0.184665
C17   C     C_R   0.415678 0.416917 0.153069 0.603041
C18   C     C_R   0.584518 0.581152 0.849069 0.583310
C19   C     C_R   0.544799 0.532388 0.149949 0.089955
C20   C     C_R   0.455426 0.464572 0.847857 0.081106
C21   C     C_R   0.531662 0.533824 0.030255 -0.111195
C22   C     C_R   0.465097 0.464887 0.969064 -0.120322
C23   C     C_R   0.329264 0.499743 0.501282 0.804267
C24   C     C_R   0.670669 0.500896 0.498545 0.812990
C25   C     C_R   0.816575 0.582970 0.459794 -0.229222
C26   C     C_R   0.182509 0.416208 0.534113 -0.178156
C27   C     C_R   0.766779 0.499887 0.494466 -0.057666
C28   C     C_R   0.232910 0.500886 0.503996 -0.041288
C29   C     C_R   0.808242 0.415950 0.526214 -0.201268
C30   C     C_R   0.191524 0.584949 0.471733 -0.194212
C31   C     C_R   0.901022 0.414857 0.525832 0.085976
C32   C     C_R   0.098398 0.584939 0.468745 0.089657
C33   C     C_R   0.952706 0.499498 0.493867 0.050342
C34   C     C_R   0.046581 0.499780 0.499272 0.038949
C35   C     C_R   0.910330 0.584044 0.457866 0.036137
C36   C     C_R   0.088767 0.414797 0.534444 0.037513
C37   C     C_R   0.942398 0.330924 0.559313 -0.232518
C38   C     C_R   0.056773 0.668020 0.433108 -0.238338
Cu1   Cu    Cu3+1 0.506660 0.507730 0.615930 1.054869
Cu2   Cu    Cu3+1 0.493340 0.492270 0.384070 1.046252
H1    H     H_    0.781372 0.647818 0.439662 0.203210
H2    H     H_    0.217079 0.350621 0.552761 0.147646
H3    H     H_    0.768013 0.351893 0.551791 0.135083
H4    H     H_    0.232068 0.649554 0.447516 0.143832
H5    H     H_    0.901674 0.266659 0.584001 0.178857
H6    H     H_    0.097545 0.732129 0.408220 0.179953
H7    H     H_    0.528138 0.986083 0.268250 0.186655
H8    H     H_    0.459072 0.015052 0.727424 0.221546
N1    N     N_R   0.516670 0.519360 0.790130 -0.252882
N2    N     N_R   0.483330 0.480640 0.209870 -0.254657
O1    O     O_R   0.504720 0.354460 0.582000 -0.560402
O2    O     O_R   0.495280 0.645540 0.418000 -0.554875
O3    O     O_R   0.493480 0.341410 0.386200 -0.532343
O4    O     O_R   0.506520 0.658590 0.613800 -0.533651
O5    O     O_R   0.375880 0.506510 0.597910 -0.552789
O6    O     O_R   0.624120 0.493490 0.402090 -0.554648
O7    O     O_R   0.364640 0.493450 0.402110 -0.575733
O8    O     O_R   0.635360 0.506550 0.597890 -0.575423
C39   C     C_2   0.364487 0.301699 0.976403 0.889793
O9    O     O_2   0.402423 0.222232 0.974108 -0.473310
O10   O     O_R   0.276255 0.299229 0.932024 -0.751426
H9    H     H_    0.251499 0.227237 0.899714 0.342837
C40   C     C_2   0.628327 0.699485 0.024423 0.871427
O11   O     O_2   0.584055 0.774467 0.033938 -0.535089
O12   O     O_R   0.719373 0.709918 0.058603 -0.765257
H10   H     H_    0.742691 0.784110 0.081957 0.331588
C41   C     C_2   0.074433 0.240008 0.606258 0.842139
O13   O     O_2   0.044029 0.153099 0.568141 -0.553258
O14   O     O_R   0.142298 0.254423 0.692613 -0.749581
H11   H     H_    0.162172 0.187002 0.713981 0.335541
C42   C     C_2   0.924045 0.756664 0.380865 0.847570
O15   O     O_2   0.957181 0.843937 0.411793 -0.548965
O16   O     O_R   0.852201 0.740283 0.299747 -0.743604
H12   H     H_    0.832597 0.806714 0.275341 0.356525
C43   C     C_2   0.550163 0.818201 0.332201 0.921363
O17   O     O_2   0.503111 0.767018 0.255607 -0.553379
O18   O     O_R   0.640734 0.844351 0.317993 -0.736695
H13   H     H_    0.659637 0.821263 0.238502 0.361594
C44   C     C_2   0.542420 0.193141 0.685805 0.966029
O19   O     O_2   0.493343 0.191821 0.765452 -0.494960
O20   O     O_R   0.626408 0.247596 0.704532 -0.720759
H14   H     H_    0.663555 0.240485 0.634615 0.278230
C45   C     C_2   0.423347 0.818580 0.724934 0.897666
O21   O     O_2   0.365545 0.747520 0.703105 -0.578870
O22   O     O_R   0.448841 0.856090 0.838571 -0.701617
H15   H     H_    0.416345 0.816488 0.894691 0.361200
C46   C     C_2   0.556806 0.180919 0.262173 0.914148
O23   O     O_2   0.520953 0.149802 0.168113 -0.520887
O24   O     O_R   0.626511 0.258659 0.273426 -0.748538
H16   H     H_    0.639146 0.285159 0.198399 0.354879
C47   C     C_2   0.372764 0.417151 0.786327 0.957408
O25   O     O_2   0.302867 0.459257 0.799333 -0.538738
O26   O     O_R   0.373302 0.323182 0.717018 -0.727266
H17   H     H_    0.311839 0.295659 0.683811 0.338732
C48   C     C_2   0.634660 0.565087 0.202456 0.931594
O27   O     O_2   0.645531 0.637091 0.278589 -0.563136
O28   O     O_R   0.708120 0.513657 0.162278 -0.750838
H18   H     H_    0.766678 0.542667 0.204018 0.367368
O29   O     O_3   0.644201 0.637142 0.790123 -0.580648
C49   C     C_3   0.732024 0.604858 0.805671 0.055655
H19   H     H_    0.738131 0.527913 0.757035 0.173556
H20   H     H_    0.750891 0.597040 0.895531 0.183078
C50   C     C_3   0.799403 0.682895 0.764437 -0.314488
H21   H     H_    0.782142 0.690747 0.673923 0.226035
H22   H     H_    0.795426 0.759072 0.816195 0.244916
C51   C     C_3   0.895065 0.650610 0.774844 -0.847430
H23   H     H_    0.915466 0.648984 0.865935 0.271448
H24   H     H_    0.941654 0.706385 0.739322 0.269118
H25   H     H_    0.900170 0.573246 0.726675 0.258886
O30   O     O_3   0.361627 0.358758 0.217327 -0.579121
C52   C     C_3   0.267738 0.365472 0.197613 0.057674
H26   H     H_    0.235748 0.347347 0.276550 0.172765
H27   H     H_    0.240240 0.303406 0.130674 0.182541
C53   C     C_3   0.237690 0.471081 0.173040 -0.400103
H28   H     H_    0.267167 0.533070 0.239174 0.238879
H29   H     H_    0.259934 0.488366 0.088681 0.242591
C54   C     C_3   0.135707 0.471992 0.171012 -0.812401
H30   H     H_    0.104846 0.414735 0.100536 0.276750
H31   H     H_    0.115891 0.549410 0.157222 0.262549
H32   H     H_    0.109863 0.453476 0.253241 0.249665

loop_
_geom_bond_atom_site_label_1
_geom_bond_atom_site_label_2
_ccdc_geom_bond_type
Cu1   O1    S    
C46   O23   D    
C40   O12   S    
C8    C13   A    
C27   C29   A    
O16   H12   S    
C48   O27   D    
C24   C27   S    
C17   O30   S    
C6    C9    A    
C53   H28   S    
O22   H15   S    
C16   C21   A    
C19   C21   A    
C54   H31   S    
Cu1   O4    S    
C51   H23   S    
O28   H18   S    
C10   C45   S    
C23   O7    A    
C1    O3    A    
O30   C52   S    
C50   H21   S    
C15   C22   A    
Cu1   O5    S    
C52   H26   S    
Cu2   O6    S    
C31   C33   A    
C16   C40   S    
C32   C38   A    
C50   C51   S    
C47   O25   D    
O18   H13   S    
C4    C35   A    
C39   O9    D    
C21   C22   A    
C29   H3    S    
C30   H4    S    
O10   H9    S    
O20   H14   S    
C7    C14   A    
C20   C47   S    
C39   O10   S    
C41   O13   D    
C24   O8    A    
C44   O19   D    
C5    C12   A    
C52   H27   S    
C2    O4    A    
C54   H32   S    
C25   H1    S    
C6    C11   A    
C44   O20   S    
Cu2   O2    S    
Cu1   O8    S    
C49   C50   S    
C31   C37   A    
C41   O14   S    
C7    H7    S    
C43   O17   D    
C8    H8    S    
C20   N1    A    
C2    O2    A    
C47   O26   S    
C1    O1    A    
C45   O21   D    
C49   H20   S    
C33   C34   A    
C50   H22   S    
O26   H17   S    
C23   C28   S    
C43   O18   S    
C11   C44   S    
C25   C35   A    
C8    C10   A    
C45   O22   S    
C20   C22   A    
Cu2   O3    S    
C46   O24   S    
C2    C5    S    
C24   O6    A    
C18   O29   S    
C37   H5    S    
Cu1   Cu2   S    
C19   C48   S    
C26   H2    S    
C42   O16   S    
C26   C36   A    
C15   C17   A    
Cu2   O7    S    
Cu1   N1    S    
C15   C39   S    
C3    C41   S    
C4    C38   A    
C17   N2    A    
C53   H29   S    
C48   O28   S    
C23   O5    A    
C25   C27   A    
C26   C28   A    
O29   C49   S    
C28   C30   A    
C12   C14   A    
C5    C10   A    
C29   C31   A    
C54   H30   S    
C9    C46   S    
C30   C32   A    
C11   C13   A    
C19   N2    A    
C51   H24   S    
C3    C36   A    
Cu2   N2    S    
C49   H19   S    
C33   C35   A    
C52   C53   S    
C34   C36   A    
O14   H11   S    
C38   H6    S    
C53   C54   S    
C40   O11   D    
C7    C9    A    
C42   O15   D    
C3    C37   A    
C16   C18   A    
O12   H10   S    
C12   C43   S    
C1    C6    S    
O24   H16   S    
C13   C14   A    
C4    C42   S    
C18   N1    A    
C32   C34   A    
C51   H25   S    
