data_mof_unit_56326.cif
_audit_creation_date              2012-12-11T16:08:33-0500
_audit_creation_method            fapswitch 2.2
_symmetry_space_group_name_H-M    P1
_symmetry_Int_Tables_number       1
_space_group_crystal_system       triclinic
_cell_length_a                    12.9732
_cell_length_b                    13.273566
_cell_length_c                    27.717664
_cell_angle_alpha                 94.787222
_cell_angle_beta                  90.341811
_cell_angle_gamma                 119.340512
_cell_volume                      4140.18179083

loop_
_atom_site_label
_atom_site_type_symbol
_atom_type_description
_atom_site_fract_x
_atom_site_fract_y
_atom_site_fract_z
_atom_type_partial_charge
C1    C     C_R   0.628011 0.894721 0.427718 0.544601
C2    C     C_R   0.582793 0.235105 0.217360 0.322344
C3    C     C_R   0.570514 0.219610 0.266925 0.282622
C4    C     C_R   0.657138 0.304231 0.301755 0.026369
C5    C     C_R   0.681223 0.335260 0.202456 -0.048126
C6    C     C_1   0.692445 0.361812 0.152699 -0.048162
C7    C     C_1   0.646709 0.289004 0.352851 0.022030
C8    C     C_1   0.702565 0.391941 0.112371 0.004571
C9    C     C_R   0.176703 0.749326 0.350767 -0.109183
C10   C     C_R   0.161484 0.741532 0.300944 0.006875
C11   C     C_R   0.151503 0.733408 0.200328 0.021608
C12   C     C_R   0.600950 0.222018 0.440589 0.541550
C13   C     C_R   0.150315 0.642081 0.222549 -0.125074
C14   C     C_R   0.153139 0.645197 0.272660 -0.130525
C15   C     C_R   0.141295 0.726690 0.150317 -0.101940
C16   C     C_R   0.122951 0.807855 0.127856 0.004296
C17   C     C_R   0.199306 0.942882 0.357739 -0.140070
C18   C     C_R   0.174040 0.933209 0.307651 0.012380
C19   C     C_R   0.162756 0.834434 0.279033 0.036904
C20   C     C_R   0.169258 0.022765 0.284585 0.264535
C21   C     C_R   0.159452 0.014578 0.233946 -0.022062
C22   C     C_R   0.152242 0.918640 0.205733 -0.011383
C23   C     C_R   0.268444 0.876011 0.425791 0.545325
C24   C     C_R   0.155739 0.829129 0.228395 0.058566
C25   C     C_R   0.134343 0.906902 0.155295 -0.115927
C26   C     C_R   0.206093 0.853373 0.378678 -0.008011
C27   C     C_R   0.755677 0.927354 0.359107 -0.125077
C28   C     C_R   0.762047 0.914412 0.309320 0.022523
C29   C     C_R   0.766893 0.903053 0.208989 0.006138
C30   C     C_R   0.862125 0.992514 0.237599 -0.109297
C31   C     C_R   0.860033 0.997728 0.287550 -0.114549
C32   C     C_R   0.773005 0.897744 0.159431 -0.156251
C33   C     C_R   0.685198 0.804314 0.129597 -0.006752
C34   C     C_R   0.627471 0.898469 0.564876 0.554678
C35   C     C_R   0.561182 0.756271 0.353538 -0.093702
C36   C     C_R   0.567112 0.738961 0.303237 -0.000889
C37   C     C_R   0.665876 0.822192 0.280825 0.028922
C38   C     C_R   0.474504 0.644175 0.274873 0.134841
C39   C     C_R   0.475560 0.637837 0.223573 0.285674
C40   C     C_R   0.572230 0.725072 0.200651 0.038111
C41   C     C_R   0.668256 0.815861 0.230112 -0.018983
C42   C     C_R   0.579166 0.723758 0.149254 0.191655
C43   C     C_R   0.651624 0.854380 0.380668 -0.010494
C44   C     C_R   0.741867 0.297736 0.651161 -0.122658
C45   C     C_R   0.603848 0.228083 0.578144 0.557892
C46   C     C_R   0.756657 0.323504 0.701464 0.021902
C47   C     C_R   0.770232 0.352923 0.803303 0.014994
C48   C     C_R   0.856126 0.337784 0.778312 -0.122366
C49   C     C_R   0.848590 0.321788 0.727661 -0.121371
C50   C     C_R   0.776820 0.369852 0.853992 -0.130882
C51   C     C_R   0.690050 0.385419 0.878106 -0.003584
C52   C     C_R   0.570674 0.326638 0.650382 -0.112443
C53   C     C_R   0.581483 0.348178 0.700457 0.031883
C54   C     C_R   0.672928 0.343649 0.726304 0.080393
C55   C     C_R   0.496771 0.365359 0.725185 -0.110308
C56   C     C_R   0.271795 0.879375 0.563393 0.552629
C57   C     C_R   0.499678 0.373363 0.775494 -0.118681
C58   C     C_R   0.589042 0.367141 0.801431 0.016761
C59   C     C_R   0.677698 0.354880 0.777032 0.073239
C60   C     C_R   0.593217 0.377313 0.851555 -0.126009
C61   C     C_R   0.644412 0.292159 0.626115 0.004047
C62   C     C_1   0.223770 0.863487 0.610350 0.016966
C63   C     C_R   0.066142 0.775281 0.718772 -0.147049
C64   C     C_R   0.049060 0.765123 0.768251 -0.125293
C65   C     C_R   0.255185 0.908816 0.787028 -0.073934
C66   C     C_R   0.272916 0.919300 0.737508 0.178185
C67   C     C_1   0.630945 0.266218 0.394281 0.012706
C68   C     C_R   0.178042 0.851595 0.703134 0.044460
C69   C     C_R   0.143687 0.831196 0.802432 0.000690
C70   C     C_1   0.125249 0.816728 0.853100 -0.054398
C71   C     C_1   0.197343 0.856092 0.652035 -0.010444
C72   C     C_1   0.100979 0.798247 0.894510 -0.006407
C73   C     C_1   0.648644 0.858872 0.608627 -0.001635
C74   C     C_R   0.789885 0.853857 0.718641 -0.105560
C75   C     C_R   0.802120 0.838615 0.767294 -0.107981
C76   C     C_R   0.589178 0.718636 0.769124 -0.096778
C77   C     C_R   0.576917 0.734010 0.720481 -0.091252
C78   C     C_R   0.755359 0.402629 0.286663 0.227647
C79   C     C_R   0.677099 0.802915 0.695272 0.040751
C80   C     C_R   0.701674 0.772560 0.792894 0.037199
C81   C     C_1   0.714251 0.764235 0.843906 -0.057410
C82   C     C_1   0.662971 0.830734 0.647338 -0.044526
C83   C     C_1   0.727742 0.759303 0.886606 -0.012190
C84   C     C_R   0.064882 0.772504 0.079311 0.549122
C85   C     C_R   0.716928 0.441026 0.067137 0.548743
C86   C     C_R   0.720051 0.782833 0.081071 0.578511
C87   C     C_R   0.056523 0.766384 0.941277 0.542305
C88   C     C_R   0.710485 0.435437 0.928599 0.532938
C89   C     C_R   0.766451 0.417335 0.236986 -0.150525
C90   C     C_R   0.749218 0.753938 0.936999 0.558397
Cr1   Cr    Cr6+3 0.416430 0.829200 0.492370 1.048084
Cr2   Cr    Cr6+3 0.674630 0.087020 0.504170 1.036385
Cr3   Cr    Cr6+3 0.408920 0.083740 0.503490 1.040189
Cr4   Cr    Cr6+3 0.914010 0.832750 0.013970 1.032397
Cr5   Cr    Cr6+3 0.922310 0.578600 0.003000 1.035479
Cr6   Cr    Cr6+3 0.656280 0.574630 0.003870 1.084336
H1    H     H_    0.155467 0.082977 0.216646 0.145303
H2    H     H_    0.223794 0.022972 0.380000 0.141569
H3    H     H_    0.852350 0.963276 0.144428 0.144572
H4    H     H_    0.827181 0.001615 0.380273 0.134865
H5    H     H_    0.938445 0.058644 0.221281 0.121777
H6    H     H_    0.933516 0.068787 0.309134 0.142926
H7    H     H_    0.841065 0.494241 0.225210 0.121265
H8    H     H_    0.482227 0.699847 0.371298 0.183794
H9    H     H_    0.851668 0.376154 0.874388 0.130591
H10   H     H_    0.800327 0.273108 0.632264 0.129475
H11   H     H_    0.927992 0.336654 0.797925 0.115298
H12   H     H_    0.913695 0.306711 0.709017 0.112194
H13   H     H_    0.525290 0.388771 0.869685 0.141142
H14   H     H_    0.432317 0.384736 0.794124 0.107830
H15   H     H_    0.426171 0.368816 0.705612 0.109009
H16   H     H_    0.497023 0.325157 0.630967 0.133934
H17   H     H_    0.992610 0.722452 0.692734 0.117773
H18   H     H_    0.962300 0.704810 0.779846 0.123889
H19   H     H_    0.328501 0.960122 0.813338 0.146533
H20   H     H_    0.867959 0.908014 0.699719 0.114797
H21   H     H_    0.889602 0.880597 0.785261 0.119323
H22   H     H_    0.510909 0.667141 0.788473 0.112799
H23   H     H_    0.489170 0.694966 0.702961 0.119853
H24   H     H_    0.134989 0.650945 0.129346 0.157415
H25   H     H_    0.179155 0.678900 0.367023 0.158831
H26   H     H_    0.145070 0.567376 0.201159 0.136000
H27   H     H_    0.151611 0.573562 0.289339 0.166602
H28   H     H_    0.121429 0.970403 0.137917 0.127426
O1    O     O_R   0.296680 0.802170 0.437540 -0.513013
O2    O     O_R   0.662610 0.183990 0.557860 -0.501627
O3    O     O_R   0.500730 0.201280 0.562180 -0.510754
O4    O     O_R   0.312500 0.978850 0.548170 -0.488277
O5    O     O_3   0.499990 0.999990 0.500010 -0.248210
O6    O     O_R   0.820790 0.857990 0.068830 -0.526033
O7    O     O_R   0.016700 0.827330 0.062850 -0.502370
O8    O     O_R   0.041970 0.673520 0.060040 -0.509127
O9    O     O_R   0.817980 0.483660 0.048840 -0.496962
O10   O     O_R   0.637200 0.461990 0.052510 -0.476691
O11   O     O_R   0.664790 0.681920 0.057970 -0.444051
O12   O     O_R   0.525380 0.838530 0.443500 -0.501745
O13   O     O_R   0.815840 0.852920 0.961840 -0.495784
O14   O     O_R   0.012100 0.822630 0.963670 -0.511483
O15   O     O_R   0.037010 0.668460 0.953040 -0.500614
O16   O     O_R   0.813390 0.478970 0.949660 -0.503995
O17   O     O_R   0.632250 0.456930 0.945520 -0.526646
O18   O     O_R   0.660200 0.677230 0.958780 -0.483401
O19   O     O_3   0.830870 0.661990 0.006950 -0.283083
O20   O     O_R   0.702130 0.995190 0.446810 -0.516288
O21   O     O_R   0.661770 0.181390 0.458760 -0.493183
O22   O     O_R   0.499820 0.198480 0.455280 -0.505381
O23   O     O_R   0.311660 0.976250 0.449080 -0.505493
O24   O     O_R   0.297580 0.804960 0.544440 -0.505724
O25   O     O_R   0.526220 0.841130 0.542590 -0.490561
O26   O     O_R   0.703030 0.997990 0.553710 -0.509297
O27   O     O_3   0.838690 0.483556 0.321052 -0.682213
H29   H     H_    0.901004 0.547694 0.304530 0.325858
O28   O     O_3   0.173663 0.119208 0.309630 -0.672073
H30   H     H_    0.138911 0.098132 0.341373 0.311282
Br1   Br    Br    0.444499 0.625777 0.104502 -0.405081
O29   O     O_3   0.387147 0.543481 0.195659 -0.621718
H31   H     H_    0.312881 0.511052 0.212939 0.358211
Br2   Br    Br    0.351756 0.517122 0.306101 -0.531195
O30   O     O_3   0.495345 0.150733 0.185126 -0.628136
H32   H     H_    0.516459 0.167532 0.151378 0.323404
Br3   Br    Br    0.428539 0.025051 0.718324 -0.536998
O31   O     O_3   0.472003 0.120288 0.279286 -0.632721
H33   H     H_    0.469933 0.118796 0.314853 0.318181

loop_
_geom_bond_atom_site_label_1
_geom_bond_atom_site_label_2
_ccdc_geom_bond_type
C66   C68   A    
Cr5   O19   S    
C88   O17   A    
C35   C36   A    
C75   H21   S    
Cr5   O9    S    
C72   C87   S    
C34   O26   A    
C53   C54   A    
C46   C49   A    
Cr5   O16   S    
Cr4   O6    S    
C5    C6    S    
C33   C42   A    
O29   H31   S    
C8    C85   S    
C29   C32   A    
C2    C3    A    
C52   C61   A    
C38   C39   A    
C48   H11   S    
C52   H16   S    
C58   C60   A    
C15   C16   A    
C11   C24   A    
C16   C84   S    
C15   H24   S    
C18   C19   A    
C23   C26   S    
C12   O22   A    
C88   O16   A    
C17   H2    S    
C60   H13   S    
C3    O31   S    
Cr6   O17   S    
C11   C15   A    
C1    C43   S    
Cr1   O12   S    
O30   H32   S    
C2    O30   S    
C22   C25   A    
C9    C26   A    
C50   H9    S    
C9    H25   S    
O27   H29   S    
Cr3   O23   S    
C47   C50   A    
C1    O12   A    
C35   C43   A    
C75   C80   A    
C45   O2    A    
C18   C20   A    
C85   O10   A    
C23   O1    A    
C29   C41   A    
C40   C42   A    
C21   C22   A    
C89   H7    S    
C65   H19   S    
C4    C7    S    
Cr3   O5    S    
Cr1   O24   S    
C81   C83   T    
C34   O25   A    
C44   C46   A    
C78   O27   S    
C50   C51   A    
Cr6   O11   S    
C54   C59   A    
C53   C55   A    
C78   C89   A    
C12   C67   S    
C27   H4    S    
C47   C59   A    
C64   H18   S    
C20   O28   S    
C31   H6    S    
C76   C77   A    
C38   Br2   S    
C35   H8    S    
C10   C14   A    
C39   C40   A    
Cr1   O25   S    
C86   O6    A    
Cr6   O10   S    
C77   H23   S    
C58   C59   A    
C7    C67   T    
C84   O8    A    
C76   H22   S    
C66   Br3   S    
C12   O21   A    
C56   O24   A    
C33   C86   S    
Cr3   O3    S    
C4    C78   A    
C29   C30   A    
C21   H1    S    
C57   H14   S    
C10   C19   A    
C74   H20   S    
C46   C54   A    
C17   C18   A    
C77   C79   A    
Cr3   O22   S    
C64   C69   A    
C20   C21   A    
C90   O18   A    
C40   C41   A    
C74   C79   A    
C55   C57   A    
Cr2   O26   S    
Cr5   O8    S    
Cr4   O14   S    
C22   C24   A    
C2    C5    A    
Cr4   O19   S    
C87   O14   A    
C3    C4    A    
C73   C82   T    
C90   O13   A    
C52   C53   A    
O31   H33   S    
C9    C10   A    
C16   C25   A    
C83   C90   S    
C63   C68   A    
C48   C49   A    
C14   H27   S    
Cr1   O1    S    
C55   H15   S    
Cr2   O21   S    
C19   C24   A    
C28   C31   A    
C76   C80   A    
C87   O15   A    
C80   C81   S    
C47   C48   A    
Cr2   O2    S    
C51   C88   S    
C79   C82   S    
C6    C8    T    
Cr1   O5    S    
C44   H10   S    
C44   C61   A    
C84   O7    A    
Cr5   O15   S    
Cr4   O7    S    
C32   H3    S    
C39   O29   S    
C32   C33   A    
C36   C38   A    
Cr2   O5    S    
Cr3   O4    S    
C1    O20   A    
Cr6   O19   S    
C13   H26   S    
C11   C13   A    
C57   C58   A    
C30   C31   A    
C23   O23   A    
C28   C37   A    
C45   O3    A    
C68   C71   S    
C65   C69   A    
C30   H5    S    
C45   C61   S    
C17   C26   A    
C62   C71   T    
C42   Br1   S    
C56   C62   S    
C56   O4    A    
C37   C41   A    
C69   C70   S    
Cr2   O20   S    
C25   H28   S    
C49   H12   S    
C34   C73   S    
Cr6   O18   S    
C63   C64   A    
C63   H17   S    
C27   C43   A    
C86   O11   A    
C74   C75   A    
C36   C37   A    
C65   C66   A    
C27   C28   A    
Cr4   O13   S    
C70   C72   T    
C51   C60   A    
O28   H30   S    
C13   C14   A    
C5    C89   A    
C85   O9    A    
