data_mof_unit_12363.cif
_audit_creation_date              2012-12-10T16:52:37-0500
_audit_creation_method            fapswitch 2.2
_symmetry_space_group_name_H-M    P1
_symmetry_Int_Tables_number       1
_space_group_crystal_system       triclinic
_cell_length_a                    7.945061
_cell_length_b                    8.572292
_cell_length_c                    13.677959
_cell_angle_alpha                 95.177206
_cell_angle_beta                  93.336969
_cell_angle_gamma                 92.779475
_cell_volume                      924.842270744

loop_
_atom_site_label
_atom_site_type_symbol
_atom_type_description
_atom_site_fract_x
_atom_site_fract_y
_atom_site_fract_z
_atom_type_partial_charge
C1    C     C_R   0.042365 0.793393 0.497092 0.943416
C2    C     C_R   0.937549 0.488206 0.317893 0.843116
C3    C     C_R   0.092567 0.533340 0.788001 -0.075303
C4    C     C_R   0.907433 0.466660 0.211999 -0.075302
C5    C     C_R   0.065246 0.683632 0.943034 -0.171441
C6    C     C_R   0.934754 0.316369 0.056966 -0.171440
C7    C     C_R   0.007192 0.642935 0.845656 -0.199562
C8    C     C_R   0.992808 0.357065 0.154344 -0.199561
C9    C     C_R   0.228052 0.460852 0.828739 -0.256460
C10   C     C_R   0.771949 0.539148 0.171261 -0.256464
C11   C     C_R   0.308075 0.522399 0.918170 0.094398
C12   C     C_R   0.957634 0.206606 0.502905 0.943414
C13   C     C_R   0.691925 0.477601 0.081830 0.094399
C14   C     C_R   0.216771 0.625478 0.979179 0.128494
C15   C     C_R   0.783229 0.374522 0.020821 0.128494
C16   C     C_R   0.472438 0.480856 0.949515 -0.002884
C17   C     C_R   0.527563 0.519143 0.050485 -0.002884
C18   C     C_3   0.423614 0.591079 0.226031 -0.878819
C19   C     C_3   0.576386 0.408919 0.773968 -0.878832
C20   C     C_3   0.138354 0.981112 0.382775 -0.937836
C21   C     C_3   0.861635 0.018880 0.617214 -0.937805
C22   C     C_3   0.484913 0.305351 0.432323 -0.514679
C23   C     C_R   0.414680 0.595348 0.115641 0.163968
C24   C     C_3   0.515087 0.694644 0.567684 -0.514698
C25   C     C_R   0.585321 0.404652 0.884359 0.163972
C26   C     C_R   0.271213 0.660932 0.076873 -0.236623
C27   C     C_R   0.728787 0.339068 0.923127 -0.236623
C28   C     C_2   0.050697 0.950329 0.475803 0.001581
C29   C     C_2   0.949297 0.049670 0.524188 0.001571
C30   C     C_R   0.062451 0.511794 0.682107 0.843121
H1    H     H_    0.192528 0.728157 0.125493 0.150049
H2    H     H_    0.481444 0.702874 0.263396 0.231826
H3    H     H_    0.295029 0.578642 0.251788 0.263594
H4    H     H_    0.518553 0.297125 0.736604 0.231827
H5    H     H_    0.511182 0.512230 0.750831 0.250308
H6    H     H_    0.704970 0.421354 0.748211 0.263590
H7    H     H_    0.120150 0.876955 0.327794 0.227259
H8    H     H_    0.087503 0.080033 0.345379 0.237386
H9    H     H_    0.275809 0.001871 0.401092 0.248935
H10   H     H_    0.879737 0.123067 0.672178 0.227274
H11   H     H_    0.724194 0.998025 0.598878 0.248938
H12   H     H_    0.807473 0.271844 0.874507 0.150048
H13   H     H_    0.912559 0.920010 0.654634 0.237366
H14   H     H_    0.377116 0.254462 0.382900 0.177509
H15   H     H_    0.592543 0.314238 0.385619 0.211002
H16   H     H_    0.508499 0.226220 0.491003 0.193592
H17   H     H_    0.622877 0.745517 0.617117 0.177499
H18   H     H_    0.491517 0.773787 0.509009 0.193577
H19   H     H_    0.407448 0.685754 0.614380 0.211015
H20   H     H_    0.728050 0.640303 0.212572 0.167193
H21   H     H_    0.271951 0.359698 0.787428 0.167195
H22   H     H_    0.101073 0.301591 0.184821 0.152172
H23   H     H_    0.898927 0.698409 0.815179 0.152174
H24   H     H_    0.995352 0.763872 0.988898 0.134648
H25   H     H_    0.004648 0.236129 0.011102 0.134648
H26   H     H_    0.488821 0.487770 0.249169 0.250305
N1    N     N_2   0.440860 0.456490 0.474790 0.007722
N2    N     N_2   0.559140 0.543510 0.525210 0.007726
O1    O     O_R   0.891570 0.738930 0.506190 -0.607781
O2    O     O_R   0.108430 0.261070 0.493810 -0.607787
O3    O     O_R   0.174650 0.711050 0.490030 -0.627355
O4    O     O_R   0.825350 0.288950 0.509970 -0.627359
O5    O     O_R   0.909850 0.521900 0.644940 -0.625831
O6    O     O_R   0.090150 0.478100 0.355060 -0.625834
O7    O     O_R   0.192930 0.494020 0.628780 -0.615688
O8    O     O_R   0.807070 0.505980 0.371220 -0.615685
Zn1   Zn    Zn3+2 0.810990 0.518620 0.510790 0.922106
Zn2   Zn    Zn3+2 0.189010 0.481380 0.489210 0.922107

loop_
_geom_bond_atom_site_label_1
_geom_bond_atom_site_label_2
_ccdc_geom_bond_type
C3    C30   S    
C2    C4    S    
C27   H12   S    
C3    C9    A    
C18   H26   S    
C12   C29   S    
C1    C28   S    
C20   H8    S    
C11   C16   A    
N2    Zn1   S    
C15   C27   A    
C9    H21   S    
C13   C17   A    
C6    H25   S    
C4    C8    A    
O7    Zn2   S    
O1    Zn1   S    
C22   N1    S    
C13   C15   A    
O8    Zn1   S    
N1    N2    D    
C26   H1    S    
C10   H20   S    
C19   H5    S    
C30   O5    A    
C14   C26   A    
C20   H7    S    
C9    C11   A    
O3    Zn2   S    
C5    C14   A    
C17   C23   A    
C21   H10   S    
O4    Zn1   S    
C21   H11   S    
O6    Zn2   S    
C28   C29   D    
C22   H16   S    
C2    O6    A    
C3    C7    A    
C19   H6    S    
C1    O1    A    
C19   C25   S    
C11   C14   A    
O5    Zn1   S    
C30   O7    A    
C25   C27   A    
C18   H3    S    
C7    H23   S    
N1    Zn2   S    
C4    C10   A    
C18   C23   S    
C24   H18   S    
C5    H24   S    
C24   H19   S    
C22   H15   S    
C18   H2    S    
O2    Zn2   S    
C24   N2    S    
C23   C26   A    
C16   C25   A    
C5    C7    A    
C20   H9    S    
C8    H22   S    
C6    C8    A    
C20   C28   S    
C12   O4    A    
C6    C15   A    
C21   H13   S    
C24   H17   S    
C21   C29   S    
C10   C13   A    
C22   H14   S    
C1    O3    A    
C16   C17   A    
C2    O8    A    
C19   H4    S    
C12   O2    A    
