data_mof_unit_45158.cif
_audit_creation_date              2012-12-10T17:48:57-0500
_audit_creation_method            fapswitch 2.2
_symmetry_space_group_name_H-M    P1
_symmetry_Int_Tables_number       1
_space_group_crystal_system       triclinic
_cell_length_a                    10.727963
_cell_length_b                    14.701486
_cell_length_c                    14.675695
_cell_angle_alpha                 65.022355
_cell_angle_beta                  104.487411
_cell_angle_gamma                 103.656687
_cell_volume                      2008.841765

loop_
_atom_site_label
_atom_site_type_symbol
_atom_type_description
_atom_site_fract_x
_atom_site_fract_y
_atom_site_fract_z
_atom_type_partial_charge
C1    C     C_R   0.484344 0.119421 0.312176 0.817017
C2    C     C_3   0.879270 0.994930 0.509682 -0.051133
C3    C     C_3   0.972665 0.048872 0.578571 0.332189
C4    C     C_3   0.908357 0.053556 0.399377 -0.552691
C5    C     C_R   0.477937 0.186024 0.203918 -0.087646
C6    C     C_R   0.534276 0.813184 0.797700 -0.088288
C7    C     C_R   0.390997 0.216172 0.026417 -0.184641
C8    C     C_R   0.405951 0.150442 0.128503 -0.237544
C9    C     C_R   0.540571 0.286969 0.175370 0.096690
C10   C     C_R   0.502658 0.357701 0.076146 0.052070
C11   C     C_R   0.435949 0.320051 0.999849 0.134910
C12   C     C_R   0.259974 0.997850 0.502734 0.813040
C13   C     C_R   0.524448 0.463976 0.051077 0.075078
C14   C     C_R   0.503819 0.531570 0.947081 0.078740
C15   C     C_R   0.449627 0.490451 0.871671 -0.206325
C16   C     C_R   0.412919 0.386602 0.898284 -0.202610
C17   C     C_R   0.551157 0.503707 0.127371 -0.142428
C18   C     C_R   0.565181 0.607057 0.103090 -0.194868
C19   C     C_R   0.554627 0.674675 0.001653 0.115979
C20   C     C_R   0.528280 0.637997 0.922795 0.092594
C21   C     C_R   0.566064 0.778612 0.978312 -0.199445
C22   C     C_R   0.552497 0.848016 0.877279 0.145913
C23   C     C_R   0.521377 0.880450 0.688555 0.840048
C24   C     C_R   0.525624 0.709088 0.822154 -0.254315
C25   C     C_R   0.744062 0.302994 0.640997 -0.303527
C26   C     C_R   0.701300 0.215313 0.621109 0.115275
C27   C     C_R   0.507378 0.278382 0.519258 0.061990
C28   C     C_R   0.550398 0.374090 0.527279 -0.010941
C29   C     C_R   0.669130 0.382300 0.594708 0.164723
C30   C     C_R   0.479739 0.459778 0.475268 0.023744
C31   C     C_R   0.522825 0.545962 0.504727 0.045653
C32   C     C_R   0.639198 0.547433 0.575402 -0.216761
C33   C     C_R   0.711655 0.468439 0.617457 -0.182039
C34   C     C_R   0.740751 0.996730 0.505944 0.882811
C35   C     C_R   0.372359 0.466934 0.392610 0.089590
C36   C     C_R   0.304719 0.549617 0.350813 -0.192479
C37   C     C_R   0.342050 0.630027 0.382884 0.113866
C38   C     C_R   0.451294 0.630218 0.459883 -0.026515
C39   C     C_R   0.272666 0.712579 0.335118 -0.307096
C40   C     C_R   0.310906 0.794892 0.364265 0.089945
C41   C     C_R   0.484118 0.716228 0.487400 0.001752
C42   C     C_3   0.048195 0.883099 0.541935 0.319513
C43   C     C_3   0.905712 0.883646 0.546512 -0.073331
C44   C     C_3   0.114638 0.040016 0.582094 -0.623458
C45   C     C_3   0.053609 0.060563 0.397365 0.346035
C46   C     C_3   0.121466 0.994910 0.505002 -0.041925
Cu1   Cu    Cu3+1 0.465900 0.918260 0.475680 0.952662
Cu2   Cu    Cu3+1 0.534100 0.081740 0.524320 0.983710
H1    H     H_    0.100441 0.841789 0.620131 0.074122
H2    H     H_    0.883122 0.131525 0.367868 0.170299
H3    H     H_    0.172798 0.117079 0.564636 0.181560
H4    H     H_    0.960797 0.130869 0.541124 0.099440
H5    H     H_    0.364494 0.358335 0.839037 0.144607
H6    H     H_    0.519262 0.684620 0.761324 0.166772
H7    H     H_    0.582737 0.634001 0.164163 0.156137
H8    H     H_    0.338077 0.186791 0.968886 0.143088
H9    H     H_    0.361779 0.071780 0.148325 0.160282
H10   H     H_    0.424692 0.536835 0.791920 0.139981
H11   H     H_    0.553095 0.455110 0.206754 0.202443
H12   H     H_    0.582291 0.805848 0.039024 0.161066
H13   H     H_    0.801376 0.474237 0.670127 0.144049
H14   H     H_    0.563799 0.722368 0.546788 0.140755
H15   H     H_    0.257722 0.858810 0.327019 0.148231
H16   H     H_    0.223429 0.553184 0.288765 0.182061
H17   H     H_    0.835682 0.309140 0.691582 0.132819
H18   H     H_    0.759332 0.154798 0.654729 0.140145
H19   H     H_    0.410401 0.258787 0.485080 0.158834
H20   H     H_    0.839998 0.848872 0.494085 0.175558
H21   H     H_    0.679929 0.610546 0.597966 0.154359
H22   H     H_    0.189552 0.713743 0.274992 0.147392
H23   H     H_    0.157595 0.990800 0.660048 0.218145
H24   H     H_    0.099268 0.141345 0.381304 0.086859
H25   H     H_    0.845965 0.015225 0.348883 0.227498
N1    N     N_R   0.585360 0.204570 0.560800 -0.174970
N2    N     N_R   0.414550 0.795430 0.439160 -0.184554
O1    O     O_R   0.455060 0.022100 0.338110 -0.596413
O2    O     O_R   0.512640 0.160150 0.379180 -0.541726
O3    O     O_R   0.288900 0.930980 0.479450 -0.541213
O4    O     O_R   0.346480 0.069030 0.520520 -0.603553
O5    O     O_R   0.487360 0.839850 0.620820 -0.600402
O6    O     O_R   0.544940 0.977900 0.661890 -0.551301
O7    O     O_R   0.653520 0.930970 0.479480 -0.593643
O8    O     O_R   0.711100 0.069020 0.520550 -0.576053
I1    I     I_    0.555398 0.000719 0.857204 -0.426646
I2    I     I_    0.725155 0.318224 0.265236 -0.416344
O9    O     O_3   0.047302 0.837473 0.473453 -0.555131
C47   C     C_3   0.052985 0.732271 0.525368 0.047582
H26   H     H_    0.998762 0.696240 0.590718 0.138546
H27   H     H_    0.156761 0.721085 0.554329 0.168563
C48   C     C_3   0.991956 0.679554 0.451055 -0.310047
H28   H     H_    0.885011 0.680019 0.432712 0.219341
H29   H     H_    0.031633 0.721614 0.378944 0.231951
C49   C     C_3   0.018585 0.570154 0.495987 -0.902205
H30   H     H_    0.124884 0.568305 0.510910 0.260131
H31   H     H_    0.970190 0.533407 0.441219 0.272006
H32   H     H_    0.980145 0.526560 0.568476 0.249843
I3    I     I_    0.309369 0.376924 0.301757 -0.505711
I4    I     I_    0.855359 0.782467 0.694263 -0.432954
O10   O     O_3   0.940739 0.005948 0.678000 -0.565515
C50   C     C_3   0.000233 0.069040 0.732700 0.055313
H33   H     H_    0.978300 0.147957 0.688839 0.113197
H34   H     H_    0.107676 0.071255 0.750341 0.156470
C51   C     C_3   0.948952 0.025564 0.833313 -0.277607
H35   H     H_    0.841039 0.017952 0.817471 0.244149
H36   H     H_    0.976743 0.948790 0.879995 0.237570
C52   C     C_3   0.003366 0.093277 0.893722 -0.940168
H37   H     H_    0.111388 0.101421 0.911017 0.248615
H38   H     H_    0.965475 0.058732 0.966828 0.272885
H39   H     H_    0.973014 0.169533 0.849700 0.256032
O11   O     O_3   0.063402 0.025496 0.323038 -0.556861
C53   C     C_3   0.125380 0.102300 0.243479 0.065245
H40   H     H_    0.157063 0.064169 0.203869 0.163081
H41   H     H_    0.215001 0.144857 0.273027 0.134042
C54   C     C_3   0.031174 0.174479 0.165945 -0.359960
H42   H     H_    0.942568 0.129831 0.138360 0.234605
H43   H     H_    0.001317 0.216440 0.202662 0.235683
C55   C     C_3   0.094160 0.251107 0.075014 -0.848400
H44   H     H_    0.183981 0.295895 0.100877 0.279901
H45   H     H_    0.025125 0.303903 0.021594 0.263161
H46   H     H_    0.118996 0.211411 0.033703 0.251429

loop_
_geom_bond_atom_site_label_1
_geom_bond_atom_site_label_2
_ccdc_geom_bond_type
C47   H26   S    
C49   H30   S    
C1    O2    A    
C53   H40   S    
C43   I4    S    
C54   H42   S    
C7    C8    A    
C45   C46   S    
C7    C11   A    
C40   H15   S    
Cu1   O5    S    
C30   C35   A    
C1    C5    S    
C7    H8    S    
Cu2   O4    S    
C36   C37   A    
C19   C21   A    
Cu1   O1    S    
C35   I3    S    
C55   H45   S    
C30   C31   A    
C52   H37   S    
C24   H6    S    
C15   C16   A    
C6    C22   A    
C12   O4    A    
C29   C33   A    
Cu2   O6    S    
C44   H23   S    
C18   C19   A    
C42   C46   S    
Cu1   O7    S    
C20   C24   A    
C16   H5    S    
C9    I2    S    
O11   C53   S    
O10   C50   S    
C43   H20   S    
C12   O3    A    
C42   O9    S    
C23   O5    A    
C53   C54   S    
C27   N1    A    
C9    C10   A    
C2    C34   S    
C49   H31   S    
C21   C22   A    
C45   H24   S    
C41   H14   S    
Cu2   O8    S    
C44   C46   S    
C4    C45   S    
C25   C29   A    
C3    C44   S    
C26   H18   S    
Cu2   N1    S    
C25   H17   S    
C38   C41   A    
C51   H36   S    
C55   H46   S    
C39   C40   A    
O9    C47   S    
C25   C26   A    
C50   C51   S    
C4    H2    S    
C35   C36   A    
C22   I1    S    
Cu2   O2    S    
C2    C4    S    
C5    C9    A    
C37   C38   A    
C14   C20   A    
C8    H9    S    
C41   N2    A    
C11   C16   A    
C48   H29   S    
Cu1   Cu2   S    
C2    C43   S    
C6    C24   A    
C50   H34   S    
C17   C18   A    
C53   H41   S    
C4    H25   S    
C18   H7    S    
C21   H12   S    
C44   H3    S    
C12   C46   S    
C17   H11   S    
C49   H32   S    
C47   H27   S    
C15   H10   S    
C34   O8    A    
C51   H35   S    
C48   C49   S    
C28   C29   A    
C23   O6    A    
C45   O11   S    
C1    O1    A    
C31   C32   A    
C10   C13   A    
C5    C8    A    
C54   H43   S    
C3    H4    S    
C31   C38   A    
C32   H21   S    
C40   N2    A    
C13   C17   A    
C32   C33   A    
C19   C20   A    
C28   C30   A    
C2    C3    S    
Cu1   N2    S    
C37   C39   A    
C36   H16   S    
C55   H44   S    
C48   H28   S    
C52   H38   S    
C6    C23   S    
C50   H33   S    
C26   N1    A    
C39   H22   S    
C51   C52   S    
C54   C55   S    
C27   H19   S    
C10   C11   A    
C42   H1    S    
C3    O10   S    
C33   H13   S    
C42   C43   S    
C47   C48   S    
C27   C28   A    
C14   C15   A    
C34   O7    A    
Cu1   O3    S    
C13   C14   A    
C52   H39   S    
