data_mof_unit_26233.cif
_audit_creation_date              2013-03-05T15:53:43-0500
_audit_creation_method            fapswitch 2.2
_symmetry_space_group_name_H-M    P1
_symmetry_Int_Tables_number       1
_space_group_crystal_system       triclinic
_cell_length_a                    15.050075
_cell_length_b                    14.788726
_cell_length_c                    16.954619
_cell_angle_alpha                 108.924753
_cell_angle_beta                  106.571253
_cell_angle_gamma                 108.297924
_cell_volume                      3058.29740975

loop_
_atom_site_label
_atom_site_type_symbol
_atom_site_description
_atom_site_fract_x
_atom_site_fract_y
_atom_site_fract_z
_atom_type_partial_charge
C1    C     C_R   0.089225 0.275265 0.050596 -0.142922
H1    H     H_    0.167749 0.292743 0.090639 0.099582
N1    N     N_R   0.055640 0.348550 0.045600 -0.040658
C2    C     C_R   0.935895 0.523926 0.748772 -0.009591
H2    H     H_    0.858688 0.509354 0.708276 0.145407
N2    N     N_R   0.960830 0.507850 0.823710 -0.045258
C3    C     C_R   0.770811 0.199959 0.811639 -0.236621
H3    H     H_    0.753287 0.134944 0.828792 0.127649
N3    N     N_R   0.811290 0.303400 0.871650 -0.069528
C4    C     C_R   0.253665 0.531642 0.945835 -0.130717
H4    H     H_    0.264565 0.564962 0.899430 0.114693
N4    N     N_R   0.205180 0.552990 0.997660 -0.043164
C5    C     C_R   0.776676 0.294303 0.733737 0.530527
N5    N     N_R   0.814810 0.361830 0.823710 -0.094022
C6    C     C_R   0.256711 0.440976 0.028541 -0.120833
H5    H     H_    0.277418 0.395300 0.062140 0.094548
N6    N     N_R   0.201660 0.494570 0.045600 -0.040230
C7    C     C_R   0.107272 0.606077 0.824891 -0.149569
H6    H     H_    0.186841 0.664888 0.853550 0.091955
N7    N     N_R   0.068420 0.560530 0.871650 -0.049609
C8    C     C_R   0.917334 0.191860 0.976308 -0.109730
H7    H     H_    0.838329 0.133721 0.950053 0.081659
N8    N     N_R   0.948050 0.295860 0.997660 -0.037621
C9    C     C_R   0.004294 0.174525 0.001938 0.064750
C10   C     C_R   0.025956 0.584938 0.747190 0.008538
C11   C     C_R   0.753636 0.191521 0.724246 -0.080327
C12   C     C_R   0.287669 0.461683 0.964193 0.068880
C13   C     C_R   0.273154 0.687582 0.252664 -0.132588
H8    H     H_    0.294661 0.648586 0.293440 0.088472
N9    N     N_R   0.185190 0.638170 0.176290 -0.038681
C14   C     C_R   0.704593 0.497560 0.914830 0.295698
N10   N     N_R   0.798340 0.505430 0.954400 -0.078451
C15   C     C_R   0.890752 0.463591 0.188017 -0.109877
H9    H     H_    0.808849 0.434782 0.169319 0.100984
N11   N     N_R   0.931580 0.439470 0.128350 -0.042479
C16   C     C_R   0.080933 0.808247 0.052409 -0.161152
H10   H     H_    0.159990 0.868568 0.097007 0.112254
N12   N     N_R   0.051950 0.704140 0.002340 -0.050454
C17   C     C_R   0.909427 0.724796 0.978816 -0.009524
H11   H     H_    0.829162 0.708840 0.957198 0.156113
N13   N     N_R   0.944360 0.651450 0.954400 -0.039678
C18   C     C_R   0.064048 0.548474 0.265542 -0.121694
H12   H     H_    0.142413 0.597831 0.318606 0.095545
N14   N     N_R   0.039170 0.492150 0.176290 -0.042984
C19   C     C_R   0.280971 0.784036 0.176487 -0.135358
H13   H     H_    0.311524 0.836429 0.148787 0.086078
N15   N     N_R   0.188710 0.696600 0.128350 -0.037331
C20   C     C_R   0.699133 0.407786 0.997394 -0.147802
H14   H     H_    0.670367 0.350296 0.021369 0.106634
N16   N     N_R   0.794820 0.447010 0.002340 -0.058824
Ni1   Ni    Ni4+2 0.119330 0.493420 0.109950 0.215666
Ni2   Ni    Ni4+2 0.880670 0.506580 0.890050 0.286841
Ni3   Ni    Ni4+2 0.872590 0.372590 0.000000 0.205665
Ni4   Ni    Ni4+2 0.127410 0.627410 0.000000 0.206925
C21   C     C_R   0.336766 0.779805 0.254879 0.064867
C22   C     C_R   0.641446 0.439768 0.943512 -0.058200
C23   C     C_R   0.972173 0.533851 0.275084 0.061425
C24   C     C_R   0.993050 0.824730 0.040545 0.071554
C25   C     C_R   0.422001 0.505069 0.912275 0.082237
C26   C     C_R   0.358738 0.433762 0.932886 0.086247
C27   C     C_R   0.376098 0.346367 0.934976 -0.201857
H15   H     H_    0.326277 0.288496 0.948296 0.132584
C28   C     C_R   0.465489 0.340701 0.929881 -0.172339
H16   H     H_    0.482561 0.277496 0.937927 0.123175
C29   C     C_R   0.537059 0.423832 0.924743 0.121564
C30   C     C_R   0.511378 0.502225 0.912255 0.123942
C31   C     C_3   0.571948 0.621802 0.959213 0.181175
C32   C     C_3   0.472178 0.625418 0.957951 -0.630664
H17   H     H_    0.600371 0.654371 0.915781 0.105960
H18   H     H_    0.473952 0.661137 0.027471 0.239666
H19   H     H_    0.440943 0.656781 0.910881 0.177446
C33   C     C_R   0.962950 0.578187 0.361889 0.129183
C34   C     C_R   0.033196 0.627172 0.680577 0.133257
C35   C     C_R   0.136858 0.698342 0.609211 -0.223987
C36   C     C_R   0.130390 0.683629 0.684686 -0.165428
C37   C     C_R   0.942565 0.598948 0.605267 -0.269929
C38   C     C_R   0.948476 0.608535 0.527794 0.183039
C39   C     C_R   0.046443 0.653877 0.528313 0.186052
C40   C     C_R   0.052754 0.642136 0.445594 -0.267519
C41   C     C_R   0.865245 0.545358 0.363336 -0.147380
C42   C     C_R   0.858105 0.561757 0.446336 -0.215658
H20   H     H_    0.128571 0.672937 0.446484 0.118872
H21   H     H_    0.794124 0.500315 0.300434 0.125408
H22   H     H_    0.212601 0.735312 0.611161 0.128979
H23   H     H_    0.782263 0.528903 0.445361 0.132838
H24   H     H_    0.201917 0.709885 0.742934 0.115364
H25   H     H_    0.866836 0.558820 0.601751 0.121504
C43   C     C_R   0.713148 0.092132 0.639338 0.151759
C44   C     C_R   0.446193 0.849370 0.321169 0.125845
C45   C     C_R   0.600183 0.018120 0.391701 -0.207278
C46   C     C_R   0.505858 0.940689 0.316857 -0.153136
C47   C     C_R   0.488161 0.830422 0.395929 -0.258159
C48   C     C_R   0.577391 0.910557 0.473341 0.196148
C49   C     C_R   0.631822 0.007030 0.472736 0.152516
C50   C     C_R   0.706312 0.095392 0.556033 -0.274411
C51   C     C_R   0.669778 0.992451 0.638515 -0.160312
C52   C     C_R   0.604101 0.901147 0.555247 -0.225735
H26   H     H_    0.747522 0.169289 0.555324 0.184638
H27   H     H_    0.679025 0.985031 0.701315 0.118633
H28   H     H_    0.642021 0.091266 0.389791 0.128550
H29   H     H_    0.564843 0.826471 0.556148 0.130330
H30   H     H_    0.477337 0.955849 0.258705 0.113725
H31   H     H_    0.446062 0.759403 0.400078 0.113585
C53   C     C_R   0.098298 0.060880 0.981431 0.156434
C54   C     C_R   0.005822 0.069009 0.972601 0.037437
C55   C     C_R   0.912565 0.972464 0.920787 -0.196652
H32   H     H_    0.838807 0.972148 0.913872 0.129851
C56   C     C_R   0.912209 0.876051 0.868749 -0.186571
H33   H     H_    0.839458 0.804579 0.824122 0.158693
C57   C     C_R   0.004612 0.873876 0.868578 0.041642
C58   C     C_R   0.097432 0.965048 0.931136 0.152827
C59   C     C_3   0.187400 0.018755 0.915130 -0.483388
C60   C     C_3   0.188096 0.123687 0.968993 -0.533486
H34   H     H_    0.256778 0.010966 0.951287 0.186797
H35   H     H_    0.166747 0.997733 0.840970 0.203905
H36   H     H_    0.258674 0.176994 0.035500 0.188403
H37   H     H_    0.166466 0.162719 0.925632 0.203596
N17   N     N_R   0.670388 0.509111 0.831591 0.189020
O1    O     O_R   0.572910 0.459710 0.773439 -0.473409
O2    O     O_R   0.737945 0.553468 0.805408 -0.497247
N18   N     N_R   0.651635 0.664858 0.053043 0.248549
O3    O     O_R   0.631388 0.631613 0.111151 -0.389214
O4    O     O_R   0.743530 0.738986 0.079549 -0.420615
O5    O     O_3   0.751221 0.321196 0.662601 -0.714598
C61   C     C_3   0.654619 0.324477 0.644217 0.230118
H38   H     H_    0.664990 0.401687 0.643109 0.184933
H39   H     H_    0.624758 0.319534 0.696654 0.134280
C62   C     C_3   0.572233 0.234000 0.549322 -0.383860
H40   H     H_    0.602634 0.233166 0.496676 0.215672
H41   H     H_    0.552846 0.156341 0.551705 0.213460
C63   C     C_3   0.473089 0.247127 0.520960 -0.910961
H42   H     H_    0.441351 0.248512 0.572823 0.281584
H43   H     H_    0.414152 0.178865 0.452947 0.259035
H44   H     H_    0.488860 0.322539 0.514747 0.265908

loop_
_geom_bond_atom_site_label_1
_geom_bond_atom_site_label_2
_geom_bond_distance
_ccdc_geom_bond_type
C4    C12   1.371005 A    
N9    Ni1   1.816583 S    
C28   C29   1.403831 A    
C48   C49   1.409650 A    
N11   Ni3   1.858077 S    
N1    N8    1.391378 A    
C58   C59   1.487289 S    
C63   H44   1.111511 S    
C62   H40   1.111568 S    
N6    Ni1   1.869722 S    
C43   C51   1.405929 A    
C2    C10   1.385830 A    
C50   H26   1.079944 S    
C3    H3    1.069806 S    
C17   N13   1.347333 A    
C19   H13   1.080697 S    
C3    C11   1.385350 A    
C13   H8    1.078649 S    
C7    H6    1.080076 S    
C33   C40   1.402808 A    
C16   C24   1.389870 A    
C12   C26   1.433621 S    
C25   C30   1.359008 A    
C55   H32   1.080818 S    
C22   C29   1.434789 S    
C51   H27   1.079803 S    
C56   H33   1.081908 S    
C20   C22   1.377584 A    
C1    H1    1.077528 S    
C27   C28   1.398844 A    
C57   C58   1.392445 A    
C53   C54   1.404193 A    
C47   H31   1.079340 S    
N17   O1    1.301065 A    
N5    Ni2   1.816585 S    
N4    N6    1.364261 A    
C61   C62   1.529783 S    
C45   C49   1.401174 A    
C14   C22   1.375978 A    
C44   C46   1.405549 A    
N13   Ni2   1.815753 S    
C7    N7    1.337013 A    
C42   H23   1.083962 S    
C60   H36   1.111590 S    
C20   N16   1.338806 A    
C30   C31   1.500861 S    
C43   C50   1.404358 A    
C25   C26   1.392512 A    
C5    N5    1.343978 A    
C34   C36   1.406742 A    
C49   C50   1.392429 A    
C7    C10   1.379830 A    
C18   N14   1.336895 A    
C41   H21   1.080343 S    
C31   N18   1.466185 S    
C18   C23   1.395486 A    
C45   H28   1.083660 S    
C59   C60   1.518983 S    
C13   C21   1.380016 A    
N8    Ni3   1.839746 S    
N17   O2    1.299488 A    
C19   N15   1.344537 A    
N16   Ni3   1.841142 S    
C35   C36   1.390210 A    
C31   C32   1.513541 S    
N10   Ni2   1.869724 S    
N9    N15   1.364379 A    
C37   C38   1.390296 A    
N12   N13   1.391380 A    
C2    N2    1.338517 A    
C17   H11   1.077789 S    
C5    O5    1.379433 S    
N1    Ni1   1.815755 S    
C39   C40   1.390853 A    
C2    H2    1.076908 S    
C38   C39   1.411229 A    
C17   C24   1.393157 A    
C53   C60   1.495017 S    
C26   C27   1.405852 A    
C1    N1    1.347725 A    
N3    N5    1.364380 A    
C14   N17   1.443306 S    
C25   C32   1.505356 S    
C53   C58   1.390697 A    
C36   H24   1.080417 S    
C6    C12   1.384988 A    
C14   N10   1.326869 A    
N12   Ni4   1.839746 S    
C38   C42   1.397792 A    
C51   C52   1.386647 A    
C15   H9    1.077573 S    
C44   C47   1.403180 A    
N11   N14   1.391378 A    
C37   H25   1.080871 S    
N10   N16   1.364260 A    
N18   O3    1.302510 A    
C4    N4    1.317064 A    
N15   Ni4   1.857788 S    
C60   H37   1.111937 S    
C59   H34   1.111541 S    
N14   Ni1   1.869329 S    
N7    Ni4   1.858080 S    
C20   H14   1.081179 S    
C8    N8    1.344325 A    
C61   H38   1.110053 S    
C34   C37   1.403001 A    
C5    C11   1.391093 A    
N3    Ni3   1.857791 S    
C18   H12   1.077698 S    
C46   H30   1.081195 S    
C63   H42   1.111666 S    
C62   C63   1.525950 S    
C48   C52   1.396956 A    
C31   H17   1.112462 S    
C3    N3    1.340961 A    
C16   H10   1.079823 S    
C15   C23   1.390728 A    
C35   H22   1.083929 S    
C41   C42   1.389945 A    
C63   H43   1.111223 S    
C62   H41   1.110038 S    
C40   H20   1.081224 S    
C6    N6    1.341126 A    
N2    N7    1.391378 A    
C54   C55   1.415964 A    
C16   N12   1.341877 A    
C33   C41   1.406631 A    
C45   C46   1.394971 A    
C55   C56   1.409945 A    
C32   H19   1.111776 S    
C13   N9    1.328265 A    
C47   C48   1.384519 A    
C15   N11   1.336540 A    
C56   C57   1.401898 A    
C10   C34   1.470570 S    
C23   C33   1.470691 S    
C27   H15   1.079216 S    
C52   H29   1.084104 S    
N18   O4    1.300152 A    
C4    H4    1.078466 S    
C28   H16   1.082525 S    
C11   C43   1.472700 S    
C19   C21   1.387756 A    
C1    C9    1.392662 A    
C21   C44   1.471090 S    
C29   C30   1.390034 A    
C35   C39   1.397785 A    
C8    C9    1.387771 A    
C61   H39   1.116744 S    
C32   H18   1.112823 S    
C9    C54   1.486119 S    
N2    Ni2   1.869327 S    
C8    H7    1.076615 S    
C59   H35   1.112219 S    
N4    Ni4   1.841143 S    
C6    H5    1.076304 S    
O5    C61   1.417340 S    
