data_mof_unit_35951.cif
_audit_creation_date              2012-12-10T18:13:52-0500
_audit_creation_method            fapswitch 2.2
_symmetry_space_group_name_H-M    P1
_symmetry_Int_Tables_number       1
_space_group_crystal_system       triclinic
_cell_length_a                    10.969755
_cell_length_b                    9.509808
_cell_length_c                    23.560262
_cell_angle_alpha                 89.209766
_cell_angle_beta                  91.655507
_cell_angle_gamma                 87.649113
_cell_volume                      2454.44310102

loop_
_atom_site_label
_atom_site_type_symbol
_atom_type_description
_atom_site_fract_x
_atom_site_fract_y
_atom_site_fract_z
_atom_type_partial_charge
C1    C     C_R   0.259889 0.502298 0.497897 0.892178
C2    C     C_R   0.337783 0.333077 0.973076 -0.185002
C3    C     C_R   0.351633 0.317277 0.032173 -0.033913
C4    C     C_R   0.437374 0.398996 0.062323 -0.077838
C5    C     C_R   0.514144 0.486131 0.031224 -0.014550
C6    C     C_R   0.603468 0.563886 0.059741 -0.021594
C7    C     C_R   0.679946 0.648805 0.028486 -0.128822
C8    C     C_R   0.667628 0.658118 0.969543 -0.133316
C9    C     C_R   0.446453 0.402755 0.122334 0.596942
C10   C     C_R   0.612964 0.556707 0.119096 0.607154
C11   C     C_R   0.584063 0.375282 0.244901 -0.017293
C12   C     C_R   0.500091 0.500884 0.390957 0.877313
C13   C     C_R   0.570199 0.384522 0.303747 -0.156041
C14   C     C_R   0.508333 0.500291 0.328175 -0.137971
C15   C     C_R   0.460727 0.611600 0.292136 -0.071499
C16   C     C_R   0.477377 0.603742 0.233673 -0.149997
C17   C     C_R   0.535818 0.486662 0.209735 0.264575
C18   C     C_R   0.452409 0.630086 0.759541 -0.128997
C19   C     C_R   0.457786 0.625209 0.700496 0.622244
C20   C     C_R   0.490036 0.498275 0.672717 -0.248398
C21   C     C_R   0.511029 0.374179 0.706966 -0.114182
C22   C     C_R   0.504220 0.381810 0.766041 -0.131928
C23   C     C_R   0.740115 0.497348 0.502796 0.887376
C24   C     C_R   0.476979 0.508854 0.792527 0.217234
C25   C     C_3   0.078501 0.562677 0.555420 0.337105
C26   C     C_3   0.080646 0.347953 0.497017 0.293444
C27   C     C_3   0.935041 0.567415 0.559961 -0.276255
C28   C     C_3   0.938786 0.335115 0.496824 -0.362199
C29   C     C_3   0.057642 0.582921 0.443180 -0.221028
C30   C     C_3   0.121445 0.504048 0.497239 -0.243225
C31   C     C_3   0.879169 0.493174 0.503875 -0.231085
C32   C     C_3   0.916136 0.581893 0.450696 -0.435567
C33   C     C_3   0.623318 0.075738 0.513172 0.298746
C34   C     C_3   0.624865 0.910389 0.509511 0.303430
C35   C     C_3   0.420332 0.084809 0.545478 0.264559
C36   C     C_3   0.428837 0.918549 0.548455 0.373568
C37   C     C_3   0.456714 0.087595 0.445542 1.089414
C38   C     C_3   0.450088 0.922127 0.446798 1.041433
C39   C     C_R   0.497320 0.499030 0.609323 0.888106
C40   C     C_R   0.565980 0.589148 0.881058 0.563955
C41   C     C_R   0.401189 0.433001 0.883039 0.577208
C42   C     C_R   0.411833 0.421662 0.942489 -0.045146
C43   C     C_R   0.501429 0.496782 0.971418 -0.007326
C44   C     C_R   0.578451 0.582850 0.940528 -0.023786
Cu1   Cu    Cu3+1 0.499860 0.642410 0.500030 1.170563
Cu2   Cu    Cu3+1 0.499860 0.357590 0.500030 1.157540
H1    H     H_    0.271642 0.270970 0.950656 0.209855
H2    H     H_    0.523915 0.288382 0.792184 0.182476
H3    H     H_    0.122582 0.491055 0.588180 0.115807
H4    H     H_    0.122405 0.297176 0.536083 0.206198
H5    H     H_    0.876031 0.689970 0.452476 0.270043
H6    H     H_    0.866995 0.549853 0.411861 0.235384
H7    H     H_    0.654707 0.103493 0.556236 0.105596
H8    H     H_    0.665999 0.864789 0.549377 0.083774
H9    H     H_    0.447879 0.125033 0.587485 0.129185
H10   H     H_    0.474359 0.887654 0.589662 0.137804
H11   H     H_    0.749229 0.709095 0.049498 0.201446
H12   H     H_    0.728179 0.724618 0.946830 0.200316
H13   H     H_    0.609829 0.301322 0.331053 0.275138
H14   H     H_    0.438663 0.686165 0.205541 0.175248
H15   H     H_    0.429104 0.728772 0.779769 0.194183
N1    N     N_R   0.479020 0.513847 0.853510 -0.451283
N2    N     N_R   0.534471 0.478291 0.148924 -0.453913
N3    N     N_3   0.500250 0.143650 0.501250 -0.399225
N4    N     N_3   0.500250 0.856350 0.501250 -0.410295
O1    O     O_R   0.317570 0.620260 0.500030 -0.458577
O2    O     O_R   0.317570 0.379740 0.500030 -0.473148
O3    O     O_R   0.499840 0.620290 0.417900 -0.501915
O4    O     O_R   0.499840 0.379710 0.417900 -0.495352
O5    O     O_R   0.682190 0.620260 0.500010 -0.560729
O6    O     O_R   0.682190 0.379740 0.500010 -0.496297
O7    O     O_R   0.499920 0.620230 0.582140 -0.532100
O8    O     O_R   0.499920 0.379770 0.582140 -0.603669
O9    O     O_2   0.641985 0.667300 0.850949 -0.509165
O10   O     O_2   0.314353 0.362844 0.854837 -0.492116
O11   O     O_2   0.365449 0.336963 0.154243 -0.490535
O12   O     O_2   0.698526 0.629384 0.147022 -0.490011
F1    F     F_    0.428528 0.745504 0.670923 -0.611420
C45   C     C_2   0.544942 0.234256 0.684944 0.872221
O13   O     O_2   0.481125 0.134879 0.694973 -0.546929
O14   O     O_R   0.655645 0.212340 0.658264 -0.721227
H16   H     H_    0.675907 0.108758 0.652243 0.320611
F2    F     F_    0.128548 0.690000 0.568609 -0.518883
F3    F     F_    0.132635 0.274225 0.452775 -0.552930
C46   C     C_2   0.897088 0.493052 0.614675 0.900638
O15   O     O_2   0.972025 0.434924 0.647640 -0.549957
O16   O     O_R   0.773855 0.496529 0.628475 -0.717910
H17   H     H_    0.760483 0.453401 0.667249 0.370777
C47   C     C_2   0.911160 0.231514 0.545182 0.819691
O17   O     O_2   0.821415 0.248656 0.573798 -0.539915
O18   O     O_R   0.988740 0.113126 0.556528 -0.659594
H18   H     H_    0.962805 0.055471 0.590261 0.375195
C48   C     C_2   0.891282 0.722836 0.567445 1.000677
O19   O     O_2   0.915041 0.813234 0.532666 -0.494430
O20   O     O_R   0.834073 0.765590 0.617248 -0.737342
H19   H     H_    0.819491 0.871335 0.619306 0.313406
C49   C     C_2   0.896859 0.262943 0.441163 1.170063
O21   O     O_2   0.819628 0.318897 0.409066 -0.531269
O22   O     O_R   0.940920 0.127922 0.426731 -0.603503
H20   H     H_    0.000515 0.081440 0.455322 0.392508
C50   C     C_2   0.089597 0.736151 0.434431 1.008941
O23   O     O_2   0.126018 0.806624 0.473701 -0.333963
O24   O     O_R   0.066224 0.800862 0.381248 -0.698177
H21   H     H_    0.089155 0.903045 0.380320 0.392741
C51   C     C_2   0.094837 0.508347 0.388250 0.993504
O25   O     O_2   0.019338 0.484053 0.350778 -0.526958
O26   O     O_R   0.217399 0.470505 0.379912 -0.713100
H22   H     H_    0.230801 0.422292 0.342350 0.361443
C52   C     C_2   0.280773 0.206820 0.059366 0.942816
O27   O     O_2   0.171202 0.201490 0.048954 -0.556988
O28   O     O_R   0.340451 0.104472 0.094528 -0.698468
H23   H     H_    0.282692 0.033603 0.109870 0.352660
F4    F     F_    0.705337 0.124375 0.475516 -0.522894
F5    F     F_    0.699364 0.868089 0.465768 -0.502341
F6    F     F_    0.343512 0.148174 0.430243 -0.519874
F7    F     F_    0.330863 0.886026 0.438000 -0.569465
F8    F     F_    0.534928 0.123873 0.403016 -0.557058
F9    F     F_    0.515112 0.871753 0.401377 -0.560624
F10   F     F_    0.299801 0.129036 0.536234 -0.498928
F11   F     F_    0.313527 0.865811 0.549360 -0.414151
C53   C     C_2   0.648939 0.248822 0.221808 0.933951
O29   O     O_2   0.682939 0.248148 0.172838 -0.556831
O30   O     O_R   0.672581 0.129791 0.256591 -0.668852
H24   H     H_    0.717197 0.050660 0.236280 0.372784
C54   C     C_2   0.385888 0.733039 0.312003 0.999850
O31   O     O_2   0.311970 0.717087 0.348949 -0.531579
O32   O     O_R   0.395746 0.865443 0.286324 -0.688884
H25   H     H_    0.339222 0.939860 0.303150 0.378717

loop_
_geom_bond_atom_site_label_1
_geom_bond_atom_site_label_2
_ccdc_geom_bond_type
C28   C49   S    
C22   H2    S    
C12   O4    A    
C48   O19   D    
C41   C42   A    
C35   F10   S    
O20   H19   S    
O16   H17   S    
C10   N2    A    
C49   O21   D    
O30   H24   S    
C46   O15   D    
C51   O26   S    
C29   C30   S    
C18   C24   A    
C3    C52   S    
C29   C32   S    
C26   H4    S    
C5    C6    A    
C15   C16   A    
C40   N1    A    
C18   C19   A    
C16   H14   S    
C27   C46   S    
C32   H6    S    
Cu2   O4    S    
C8    H12   S    
C19   C20   A    
C16   C17   A    
C26   F3    S    
C39   O7    A    
C35   N3    S    
C9    O11   S    
C47   O18   S    
C5    C43   A    
C48   O20   S    
C21   C22   A    
Cu1   O7    S    
C23   O5    A    
C29   C51   S    
C11   C53   S    
C41   N1    A    
C34   N4    S    
C49   O22   S    
C10   O12   S    
O14   H16   S    
C46   O16   S    
C33   H7    S    
C27   C31   S    
C50   O23   D    
C23   O6    A    
C7    C8    A    
O18   H18   S    
C45   O14   S    
C20   C39   S    
C36   N4    S    
Cu1   Cu2   S    
C35   H9    S    
Cu2   N3    S    
C35   C36   S    
C1    O1    A    
C19   F1    S    
C43   C44   A    
C32   H5    S    
C37   C38   S    
C36   H10   S    
C41   O10   S    
C38   F7    S    
O22   H20   S    
C38   N4    S    
O26   H22   S    
C21   C45   S    
Cu1   O3    S    
C33   C34   S    
C53   O29   D    
C29   C50   S    
Cu2   O6    S    
C28   C47   S    
C37   F6    S    
C12   C14   S    
C34   H8    S    
C28   C31   S    
Cu1   N4    S    
C54   O31   D    
C22   C24   A    
C27   C48   S    
C34   F5    S    
C42   C43   A    
O32   H25   S    
O24   H21   S    
C37   N3    S    
C54   O32   S    
C25   C30   S    
C11   C17   A    
C24   N1    S    
O28   H23   S    
Cu1   O5    S    
C9    N2    A    
C33   F4    S    
C31   C32   S    
C8    C44   A    
C4    C5    A    
C6    C10   A    
C18   H15   S    
C26   C30   S    
C6    C7    A    
C13   H13   S    
C2    H1    S    
C25   C27   S    
C51   O25   D    
C26   C28   S    
C12   O3    A    
C52   O28   S    
C2    C3    A    
C47   O17   D    
Cu2   O2    S    
C52   O27   D    
C17   N2    S    
C11   C13   A    
C2    C42   A    
C33   N3    S    
C1    C30   S    
C1    O2    A    
C40   O9    S    
C39   O8    A    
C36   F11   S    
C25   H3    S    
C53   O30   S    
C45   O13   D    
C38   F9    S    
C40   C44   A    
C37   F8    S    
C20   C21   A    
C50   O24   S    
C15   C54   S    
Cu1   O1    S    
C25   F2    S    
C14   C15   A    
C4    C9    A    
C13   C14   A    
C7    H11   S    
Cu2   O8    S    
C3    C4    A    
C23   C31   S    
