data_mof_unit_38148.cif
_audit_creation_date              2012-12-11T15:42:41-0500
_audit_creation_method            fapswitch 2.2
_symmetry_space_group_name_H-M    P1
_symmetry_Int_Tables_number       1
_space_group_crystal_system       triclinic
_cell_length_a                    6.968107
_cell_length_b                    14.542374
_cell_length_c                    16.226506
_cell_angle_alpha                 90.281072
_cell_angle_beta                  89.717202
_cell_angle_gamma                 90.09678
_cell_volume                      1644.23548804

loop_
_atom_site_label
_atom_site_type_symbol
_atom_type_description
_atom_site_fract_x
_atom_site_fract_y
_atom_site_fract_z
_atom_type_partial_charge
O1    O     O_R   0.505810 0.583360 0.413880 -0.543907
O2    O     O_R   0.175870 0.595480 0.585520 -0.538742
O3    O     O_R   0.005540 0.416640 0.586120 -0.547291
C1    C     C_R   0.345963 0.619138 0.613231 0.693082
O4    O     O_R   0.176100 0.594390 0.414490 -0.543214
O5    O     O_R   0.005770 0.415540 0.413870 -0.545181
C2    C     C_R   0.345414 0.616407 0.385841 0.684642
O6    O     O_R   0.505580 0.584460 0.586130 -0.557431
O7    O     O_3   0.339190 0.441320 0.500000 -0.358867
V1    V     V_3+5 0.064350 0.510890 0.500000 1.434597
O8    O     O_R   0.676050 0.404520 0.414480 -0.535265
C3    C     C_R   0.845244 0.382076 0.385852 0.700242
O9    O     O_R   0.675830 0.405610 0.585510 -0.521906
C4    C     C_R   0.844278 0.381585 0.611994 0.778760
V2    V     V_3+5 0.564340 0.489110 0.500000 1.462409
O10   O     O_3   0.839370 0.558680 0.500000 -0.378600
C5    C     C_2   0.727039 0.194794 0.776245 -0.206399
C6    C     C_2   0.888847 0.175951 0.817997 -0.304060
H1    H     H_    0.593912 0.162548 0.796128 0.133855
H2    H     H_    0.026063 0.202385 0.796938 0.128660
C7    C     C_2   0.719520 0.250320 0.699040 0.011141
C8    C     C_2   0.854617 0.315062 0.680885 -0.318392
H3    H     H_    0.976779 0.324102 0.721219 0.106940
C9    C     C_R   0.046412 0.222627 0.219456 -0.150958
H4    H     H_    0.186576 0.203914 0.195726 0.117323
C10   C     C_R   0.035294 0.286559 0.284231 -0.144788
H5    H     H_    0.167424 0.315199 0.308149 0.120881
C11   C     C_R   0.856563 0.313206 0.317478 -0.042593
C12   C     C_R   0.689285 0.273977 0.284014 -0.134854
H6    H     H_    0.549129 0.292672 0.307766 0.122343
C13   C     C_R   0.700402 0.210050 0.219231 -0.149405
H7    H     H_    0.568275 0.181400 0.195321 0.120070
C14   C     C_R   0.879129 0.183460 0.185936 -0.046142
C15   C     C_R   0.201489 0.707198 0.731520 -0.124062
H8    H     H_    0.066690 0.672805 0.720581 0.120729
C16   C     C_R   0.214532 0.769018 0.797629 -0.238738
H9    H     H_    0.095718 0.781209 0.836933 0.158977
C17   C     C_R   0.385784 0.810715 0.819325 -0.096548
C18   C     C_R   0.551602 0.784390 0.775969 0.294612
C19   C     C_R   0.539420 0.730465 0.703347 -0.057186
C20   C     C_R   0.362083 0.687938 0.681931 -0.134117
C21   C     C_R   0.189422 0.722743 0.283864 -0.145813
H10   H     H_    0.049268 0.704066 0.307608 0.120381
C22   C     C_R   0.200427 0.785852 0.219038 -0.149411
H11   H     H_    0.068277 0.813945 0.195071 0.119446
C23   C     C_R   0.379130 0.812361 0.185800 -0.045643
C24   C     C_R   0.546511 0.773905 0.219300 -0.152587
H12   H     H_    0.686657 0.792575 0.195540 0.116246
C25   C     C_R   0.535506 0.710797 0.284133 -0.142164
H13   H     H_    0.667647 0.682697 0.308101 0.119455
C26   C     C_R   0.356800 0.684315 0.317391 -0.043208
O11   O     O_R   0.230120 0.912300 0.917180 -0.545107
O12   O     O_R   0.559740 0.902430 0.088770 -0.545091
O13   O     O_R   0.729930 0.081310 0.089370 -0.542188
C27   C     C_R   0.390458 0.880332 0.117403 0.678632
O14   O     O_R   0.559840 0.901330 0.917750 -0.510630
O15   O     O_R   0.730030 0.080210 0.917120 -0.534977
C28   C     C_R   0.391818 0.878328 0.889417 0.723536
O16   O     O_R   0.230020 0.913400 0.089430 -0.542966
O17   O     O_3   0.396460 0.055470 0.003290 -0.374653
V3    V     V_3+5 0.671360 0.985960 0.003250 1.428788
O18   O     O_R   0.059740 0.091300 0.917690 -0.546107
C29   C     C_R   0.891828 0.112146 0.888752 0.764080
O19   O     O_R   0.059640 0.092400 0.088720 -0.544811
C30   C     C_R   0.890452 0.114718 0.117446 0.681419
V4    V     V_3+5 0.171350 0.007820 0.003190 1.403517
O20   O     O_3   0.896380 0.938200 0.003220 -0.370414
N1    N     N_2   0.730543 0.796175 0.814911 -0.506101
H14   H     H_    0.841090 0.813500 0.775978 0.272528
C31   C     C_3   0.768962 0.726306 0.876595 -0.560119
H15   H     H_    0.841108 0.666216 0.847547 0.165316
H16   H     H_    0.635021 0.702065 0.907210 0.185575
H17   H     H_    0.860565 0.755568 0.925957 0.207008
C32   C     C_2   0.715328 0.718497 0.653013 0.371447
H18   H     H_    0.781938 0.651537 0.647012 0.063269
O21   O     O_2   0.789281 0.784571 0.619232 -0.521041
C33   C     C_2   0.555688 0.228942 0.643785 0.432157
H19   H     H_    0.421208 0.204793 0.669981 0.016200
O22   O     O_2   0.572520 0.231970 0.568904 -0.516588

loop_
_geom_bond_atom_site_label_1
_geom_bond_atom_site_label_2
_ccdc_geom_bond_type
C27   O16   A    
C18   N1    S    
C1    O6    A    
C14   C30   S    
C24   C25   A    
O13   C30   A    
C33   H19   S    
C10   H5    S    
O18   C29   A    
C32   O21   D    
C3    C11   S    
C16   H9    S    
C9    C10   A    
O16   V4    S    
O5    C3    A    
C17   C18   A    
C6    C29   S    
C1    C20   S    
V2    O10   S    
C15   H8    S    
C17   C28   S    
O8    V2    S    
C24   H12   S    
O14   C28   A    
N1    H14   S    
C25   C26   A    
C23   C27   S    
C13   C14   A    
C31   H15   S    
O1    V2    S    
O7    V1    S    
C15   C16   A    
C21   C26   A    
C33   O22   D    
V4    O20   S    
O17   V4    S    
O9    C4    A    
C15   C20   A    
C21   C22   A    
C22   C23   A    
O15   C29   A    
O12   C27   A    
C32   H18   S    
O18   V4    S    
C9    H4    S    
C18   C19   A    
O4    C2    A    
C5    C7    S    
O17   V3    S    
O19   V4    S    
O2    C1    A    
C12   H6    S    
V3    O20   S    
C13   H7    S    
C31   H17   S    
C5    C6    D    
O14   V3    S    
O3    C4    A    
O11   C28   A    
C19   C20   A    
O6    V2    S    
O9    V2    S    
C21   H10   S    
O12   V3    S    
O2    V1    S    
O11   V4    S    
C22   H11   S    
C23   C24   A    
C11   C12   A    
O1    C2    A    
O5    V1    S    
O8    C3    A    
O15   V3    S    
O13   V3    S    
C10   C11   A    
C9    C14   A    
O19   C30   A    
C4    C8    S    
C16   C17   A    
O7    V2    S    
C2    C26   S    
O4    V1    S    
C12   C13   A    
O3    V1    S    
V1    O10   S    
C5    H1    S    
C19   C32   S    
C6    H2    S    
N1    C31   S    
C25   H13   S    
C7    C33   S    
C8    H3    S    
C31   H16   S    
C7    C8    D    
