data_mof_unit_22373.cif
_audit_creation_date              2012-12-10T18:05:12-0500
_audit_creation_method            fapswitch 2.2
_symmetry_space_group_name_H-M    P1
_symmetry_Int_Tables_number       1
_space_group_crystal_system       triclinic
_cell_length_a                    9.517206
_cell_length_b                    10.826405
_cell_length_c                    17.036838
_cell_angle_alpha                 89.408019
_cell_angle_beta                  94.200203
_cell_angle_gamma                 90.059007
_cell_volume                      1750.61863042

loop_
_atom_site_label
_atom_site_type_symbol
_atom_type_description
_atom_site_fract_x
_atom_site_fract_y
_atom_site_fract_z
_atom_type_partial_charge
C1    C     C_R   0.499878 0.262082 0.499615 0.789946
C2    C     C_R   0.500122 0.737918 0.500386 0.789950
C3    C     C_R   0.372438 0.935980 0.500738 -0.192194
C4    C     C_R   0.627563 0.064020 0.499264 -0.192198
C5    C     C_R   0.500132 0.871765 0.500536 -0.017762
C6    C     C_R   0.499868 0.128235 0.499465 -0.017762
C7    C     C_R   0.080796 0.423492 0.549529 -0.018711
C8    C     C_R   0.919204 0.576508 0.450471 -0.018710
C9    C     C_R   0.931955 0.423536 0.549512 -0.021773
C10   C     C_R   0.068045 0.576464 0.450488 -0.021774
C11   C     C_R   0.517802 0.493251 0.650619 0.819169
C12   C     C_R   0.482198 0.506747 0.349381 0.819172
C13   C     C_R   0.528294 0.481517 0.736255 -0.072536
C14   C     C_R   0.471705 0.518482 0.263746 -0.072530
C15   C     C_R   0.475835 0.578625 0.778394 -0.282891
C16   C     C_R   0.524144 0.421366 0.221605 -0.282892
C17   C     C_R   0.477782 0.572312 0.859527 -0.197489
C18   C     C_R   0.522196 0.427679 0.140472 -0.197482
C19   C     C_R   0.530513 0.466810 0.900832 0.313384
C20   C     C_R   0.469485 0.533188 0.099169 0.313385
C21   C     C_R   0.583355 0.366613 0.859164 0.125035
C22   C     C_R   0.416664 0.633393 0.140837 0.125031
C23   C     C_R   0.583295 0.373837 0.775636 0.102943
C24   C     C_R   0.416723 0.626169 0.224366 0.102938
C25   C     C_R   0.372311 0.063726 0.500219 -0.195008
C26   C     C_R   0.627689 0.936274 0.499782 -0.195013
Cu1   Cu    Cu3+1 0.640660 0.500020 0.500000 0.936651
Cu2   Cu    Cu3+1 0.359340 0.499980 0.500000 0.936652
N1    N     N_2   0.532716 0.458199 0.984302 -0.257839
N2    N     N_2   0.467282 0.541799 0.015699 -0.257839
N3    N     N_R   0.852070 0.500030 0.499980 -0.157203
N4    N     N_R   0.147930 0.499970 0.500020 -0.157204
O1    O     O_R   0.618740 0.319660 0.500000 -0.591430
O2    O     O_R   0.381260 0.680340 0.500000 -0.591431
O3    O     O_R   0.381170 0.319630 0.500010 -0.590157
O4    O     O_R   0.618830 0.680370 0.499990 -0.590157
O5    O     O_R   0.631780 0.498870 0.613920 -0.586809
O6    O     O_R   0.368220 0.501130 0.386080 -0.586808
O7    O     O_R   0.394210 0.498840 0.613930 -0.576713
O8    O     O_R   0.605790 0.501160 0.386070 -0.576712
H1    H     H_    0.566616 0.339547 0.251929 0.157628
H2    H     H_    0.433349 0.660438 0.748069 0.157633
H3    H     H_    0.562575 0.349320 0.110190 0.168182
H4    H     H_    0.437385 0.650665 0.889807 0.168186
C27   C     C_3   0.638235 0.253269 0.905393 -0.408000
C28   C     C_3   0.793674 0.268486 0.932382 -0.832453
H5    H     H_    0.857545 0.281953 0.880973 0.245647
H6    H     H_    0.808528 0.349265 0.971806 0.264525
H7    H     H_    0.831702 0.184448 0.965252 0.239488
H8    H     H_    0.577392 0.237273 0.957778 0.208577
H9    H     H_    0.623201 0.167231 0.871235 0.206164
C29   C     C_3   0.361812 0.746749 0.094611 -0.407988
C30   C     C_3   0.206368 0.731561 0.067620 -0.832453
H10   H     H_    0.191494 0.650787 0.028195 0.264521
H11   H     H_    0.142493 0.718104 0.119029 0.245645
H12   H     H_    0.168360 0.815607 0.034752 0.239486
H13   H     H_    0.376868 0.832783 0.128771 0.206161
H14   H     H_    0.422659 0.762734 0.042225 0.208575
C31   C     C_3   0.633036 0.265520 0.728450 -0.427068
C32   C     C_3   0.511316 0.177701 0.706065 -0.844061
H15   H     H_    0.463082 0.142560 0.759300 0.245837
H16   H     H_    0.429075 0.225900 0.667597 0.249060
H17   H     H_    0.550803 0.097812 0.673792 0.253329
H18   H     H_    0.679704 0.296986 0.674103 0.209900
H19   H     H_    0.719999 0.214375 0.761075 0.208444
C33   C     C_3   0.367000 0.734492 0.271553 -0.427069
C34   C     C_3   0.488736 0.822291 0.293943 -0.844069
H20   H     H_    0.570965 0.774078 0.332411 0.249066
H21   H     H_    0.536983 0.857425 0.240710 0.245837
H22   H     H_    0.449264 0.902186 0.326216 0.253331
H23   H     H_    0.280050 0.785652 0.238927 0.208448
H24   H     H_    0.320322 0.703029 0.325897 0.209896
H25   H     H_    0.272525 0.111679 0.500553 0.150752
H26   H     H_    0.727475 0.888321 0.499448 0.150754
H27   H     H_    0.272685 0.887799 0.501159 0.150718
H28   H     H_    0.727315 0.112200 0.498843 0.150720
H29   H     H_    0.142000 0.362087 0.589130 0.117115
H30   H     H_    0.858000 0.637913 0.410870 0.117114
H31   H     H_    0.880985 0.362155 0.589086 0.107595
H32   H     H_    0.119015 0.637845 0.410914 0.107599

loop_
_geom_bond_atom_site_label_1
_geom_bond_atom_site_label_2
_ccdc_geom_bond_type
C1    O1    A    
C20   N2    S    
C30   H10   S    
Cu1   O1    S    
C23   C31   S    
C28   H7    S    
C31   H18   S    
C32   H17   S    
C22   C24   A    
C32   H16   S    
C19   C21   A    
C6    C25   A    
C27   H9    S    
C13   C23   A    
C7    C9    A    
C9    H31   S    
C14   C24   A    
C11   O5    A    
C26   H26   S    
C33   H24   S    
Cu2   O3    S    
C3    H27   S    
C18   C20   A    
C24   C33   S    
C7    H29   S    
C2    O2    A    
C33   C34   S    
Cu2   O2    S    
C31   C32   S    
C8    H30   S    
C21   C27   S    
C30   H11   S    
C28   H6    S    
Cu1   N3    S    
C34   H20   S    
Cu2   N4    S    
C4    C6    A    
C10   H32   S    
Cu2   O7    S    
C27   C28   S    
C1    C6    S    
C32   H15   S    
C34   H21   S    
C12   O8    A    
N1    N2    D    
C33   H23   S    
Cu2   O6    S    
Cu1   O8    S    
C11   O7    A    
C29   H14   S    
C16   C18   A    
C12   C14   S    
C13   C15   A    
C14   C16   A    
C2    C5    S    
C19   N1    S    
C29   C30   S    
C1    O3    A    
C22   C29   S    
C30   H12   S    
C2    O4    A    
C15   C17   A    
C28   H5    S    
C7    N4    A    
C8    N3    A    
C15   H2    S    
C20   C22   A    
C3    C5    A    
C4    C26   A    
Cu1   O4    S    
C34   H22   S    
C21   C23   A    
C17   H4    S    
C18   H3    S    
C31   H19   S    
C11   C13   S    
C27   H8    S    
Cu1   O5    S    
C17   C19   A    
C25   H25   S    
C12   O6    A    
C4    H28   S    
C29   H13   S    
C9    N3    A    
C5    C26   A    
C10   N4    A    
C3    C25   A    
C8    C10   A    
Cu1   Cu2   S    
C16   H1    S    
