data_mof_unit_35649.cif
_audit_creation_date              2012-10-26T21:13:40-0400
_audit_creation_method            fapswitch 2.2
_symmetry_space_group_name_H-M    P1
_symmetry_Int_Tables_number       1
_space_group_crystal_system       triclinic
_cell_length_a                    9.080846
_cell_length_b                    10.834175
_cell_length_c                    9.567802
_cell_angle_alpha                 89.323293
_cell_angle_beta                  90.098148
_cell_angle_gamma                 92.277537
_cell_volume                      940.503687596

loop_
_atom_site_label
_atom_site_type_symbol
_atom_type_description
_atom_site_fract_x
_atom_site_fract_y
_atom_site_fract_z
_atom_type_partial_charge
C1    C     C_R   0.509407 0.262698 0.500392 0.528907
C2    C     C_R   0.560211 0.597701 0.926183 0.069413
C3    C     C_3   0.710127 0.660142 0.920279 0.184231
C4    C     C_R   0.220708 0.499469 0.499875 0.549807
C5    C     C_3   0.707161 0.660512 0.080135 0.285209
C6    C     C_R   0.500852 0.737817 0.499123 0.540153
C7    C     C_R   0.779272 0.500092 0.500074 0.556750
C8    C     C_1   0.065515 0.499419 0.499647 -0.060450
C9    C     C_1   0.934414 0.499608 0.499934 -0.031683
C10   C     C_R   0.570260 0.062665 0.618089 0.019282
C11   C     C_R   0.533552 0.130419 0.497836 -0.028643
C12   C     C_R   0.510913 0.937977 0.369644 -0.156310
C13   C     C_R   0.517889 0.066813 0.370481 -0.154005
C14   C     C_3   0.702214 0.203856 0.850190 0.009079
C15   C     C_3   0.793266 0.231447 0.980395 -0.367480
C16   C     C_3   0.200495 0.283763 0.919584 -0.050058
C17   C     C_3   0.218880 0.156068 0.985628 -0.411340
C18   C     C_3   0.949493 0.657574 0.841888 0.013859
C19   C     C_3   0.082936 0.580957 0.867675 -0.339583
C20   C     C_R   0.515185 0.871587 0.496423 -0.003099
C21   C     C_R   0.549627 0.935766 0.618141 0.003371
C22   C     C_3   0.474351 0.933276 0.756665 -0.211435
C23   C     C_3   0.514937 0.070195 0.765313 0.126774
C24   C     C_R   0.557628 0.598839 0.072106 0.102049
C25   C     C_R   0.421983 0.412397 0.076567 -0.009305
C26   C     C_R   0.414407 0.414943 0.926063 0.348217
Cu1   Cu    Cu3+1 0.499990 0.499980 0.640670 0.993457
Cu2   Cu    Cu3+1 0.500010 0.500020 0.359330 0.991292
F1    F     F_    0.810474 0.584955 0.139106 -0.598024
H1    H     H_    0.501088 0.115655 0.272659 0.140489
H2    H     H_    0.777235 0.203156 0.758471 0.137418
H3    H     H_    0.719908 0.235961 0.072865 0.173146
H4    H     H_    0.872992 0.157838 0.997939 0.142893
H5    H     H_    0.854484 0.321640 0.967503 0.157697
H6    H     H_    0.111998 0.274821 0.839698 0.150614
H7    H     H_    0.158976 0.348605 0.998232 0.110980
H8    H     H_    0.329390 0.148822 0.034030 0.162317
H9    H     H_    0.133943 0.138467 0.067486 0.111747
H10   H     H_    0.204539 0.083487 0.905281 0.127282
H11   H     H_    0.962155 0.740369 0.910114 0.119723
H12   H     H_    0.707577 0.753212 0.870543 0.038865
H13   H     H_    0.949154 0.689323 0.731019 0.127862
H14   H     H_    0.073211 0.495715 0.805018 0.172852
H15   H     H_    0.184841 0.634720 0.837453 0.110462
H16   H     H_    0.089601 0.556187 0.980345 0.174068
H17   H     H_    0.706490 0.754351 0.125711 0.061406
H18   H     H_    0.493079 0.891291 0.271197 0.131195
H19   H     H_    0.353555 0.913831 0.747027 0.079944
H20   H     H_    0.528289 0.876508 0.836933 0.146718
H21   H     H_    0.419253 0.128478 0.777875 0.180427
H22   H     H_    0.365915 0.340145 0.136809 0.121404
H23   H     H_    0.624693 0.278827 0.837531 0.201764
N1    N     N_R   0.500920 0.500930 0.147930 -0.237737
N2    N     N_R   0.500930 0.500890 0.852020 -0.217565
O1    O     O_R   0.500000 0.319640 0.618810 -0.485249
O2    O     O_3   0.331529 0.327134 0.850999 -0.548948
O3    O     O_3   0.819741 0.584196 0.868651 -0.494301
O4    O     O_R   0.500020 0.319680 0.381230 -0.520661
O5    O     O_R   0.288380 0.499980 0.618770 -0.483257
O6    O     O_R   0.288400 0.500020 0.381190 -0.497362
O7    O     O_R   0.499980 0.680320 0.618770 -0.514498
O8    O     O_R   0.500000 0.680360 0.381190 -0.511404
O9    O     O_R   0.711600 0.499980 0.618810 -0.477324
O10   O     O_R   0.711620 0.500020 0.381230 -0.417597
O11   O     O_3   0.627842 0.087878 0.866721 -0.575804

loop_
_geom_bond_atom_site_label_1
_geom_bond_atom_site_label_2
_ccdc_geom_bond_type
C8    C9    T    
C22   H19   S    
Cu2   N1    S    
C19   H16   S    
Cu2   O4    S    
C10   C23   S    
C6    C20   S    
C5    H17   S    
C18   O3    S    
C19   H15   S    
C1    C11   S    
C14   H2    S    
C4    C8    S    
C7    O9    A    
C4    O6    A    
C25   H22   S    
C2    C3    S    
C1    O1    A    
Cu1   N2    S    
C15   H3    S    
C10   C21   A    
C25   C26   A    
C17   H8    S    
C1    O4    A    
C16   H7    S    
C12   C13   A    
C11   C13   A    
C6    O8    A    
C5    C24   S    
Cu1   O9    S    
C12   C20   A    
C12   H18   S    
Cu2   O10   S    
C6    O7    A    
C17   H10   S    
Cu1   O7    S    
C14   O11   S    
C25   N1    A    
C5    F1    S    
C17   H9    S    
C22   H20   S    
C16   H6    S    
C2    C24   A    
C23   O11   S    
C26   N2    A    
Cu1   O1    S    
C7    O10   A    
C10   C11   A    
C26   O2    S    
C16   O2    S    
C3    O3    S    
C13   H1    S    
Cu2   O6    S    
C20   C21   A    
C4    O5    A    
C18   C19   S    
C2    N2    A    
Cu1   Cu2   S    
C7    C9    S    
C18   H11   S    
C14   C15   S    
C3    H12   S    
C23   H21   S    
Cu1   O5    S    
C15   H5    S    
C18   H13   S    
C24   N1    A    
C21   C22   S    
C15   H4    S    
C22   C23   S    
C14   H23   S    
C19   H14   S    
C16   C17   S    
C3    C5    S    
Cu2   O8    S    
