data_mof_unit_55503.cif
_audit_creation_date              2012-12-10T16:52:41-0500
_audit_creation_method            fapswitch 2.2
_symmetry_space_group_name_H-M    P1
_symmetry_Int_Tables_number       1
_space_group_crystal_system       triclinic
_cell_length_a                    7.832795
_cell_length_b                    8.560736
_cell_length_c                    13.629733
_cell_angle_alpha                 93.411662
_cell_angle_beta                  92.770629
_cell_angle_gamma                 94.255729
_cell_volume                      908.521196394

loop_
_atom_site_label
_atom_site_type_symbol
_atom_type_description
_atom_site_fract_x
_atom_site_fract_y
_atom_site_fract_z
_atom_type_partial_charge
C1    C     C_R   0.045158 0.794705 0.497211 0.965046
C2    C     C_R   0.936861 0.483735 0.317231 0.861257
C3    C     C_R   0.099619 0.555614 0.788288 -0.148044
C4    C     C_R   0.909291 0.468661 0.210315 -0.128522
C5    C     C_R   0.095820 0.732295 0.933985 -0.205754
C6    C     C_R   0.957622 0.354862 0.047936 -0.209514
C7    C     C_R   0.019711 0.673369 0.843061 0.227539
C8    C     C_R   0.004226 0.372803 0.148404 0.213709
C9    C     C_R   0.246560 0.496263 0.827626 -0.311823
C10   C     C_R   0.776665 0.548280 0.170534 -0.313682
C11   C     C_R   0.335055 0.568857 0.911319 0.092035
C12   C     C_R   0.954748 0.205245 0.502388 0.961732
C13   C     C_R   0.724325 0.525831 0.071068 0.094825
C14   C     C_R   0.254533 0.684408 0.966996 0.120642
C15   C     C_R   0.813958 0.423773 0.010136 0.126967
C16   C     C_R   0.501423 0.529292 0.940646 0.075029
C17   C     C_R   0.574518 0.589344 0.033486 0.079754
C18   C     C_3   0.306748 0.336198 0.169563 -0.738722
C19   C     C_3   0.892745 0.889381 0.768259 -0.779184
C20   C     C_R   0.492615 0.706993 0.086721 -0.236764
C21   C     C_R   0.598283 0.433963 0.879585 -0.241716
C22   C     C_R   0.335343 0.753792 0.053560 -0.211758
C23   C     C_R   0.753680 0.384574 0.913551 -0.216636
C24   C     C_2   0.068605 0.958416 0.495433 -0.398435
C25   C     C_2   0.931192 0.041495 0.503706 -0.395997
C26   C     C_R   0.063479 0.517536 0.682865 0.875163
H1    H     H_    0.276638 0.844562 0.096036 0.152446
H2    H     H_    0.801856 0.989931 0.511736 0.181433
H3    H     H_    0.487038 0.373944 0.427045 0.188456
H4    H     H_    0.512963 0.626075 0.572942 0.188265
H5    H     H_    0.115846 0.240012 0.255066 0.233352
H6    H     H_    0.323903 0.344214 0.089596 0.246526
H7    H     H_    0.396786 0.253150 0.197906 0.224406
H8    H     H_    0.338079 0.453257 0.208576 0.253526
H9    H     H_    0.777804 0.661254 0.769049 0.254590
H10   H     H_    0.766820 0.931231 0.745555 0.235412
H11   H     H_    0.971877 0.881058 0.703035 0.241677
H12   H     H_    0.823121 0.309725 0.865249 0.145223
H13   H     H_    0.957376 0.976290 0.824416 0.235570
H14   H     H_    0.707012 0.618166 0.220820 0.166587
H15   H     H_    0.294691 0.397480 0.787810 0.160311
H16   H     H_    0.034260 0.820913 0.976736 0.150610
H17   H     H_    0.025824 0.277021 0.000830 0.146055
H18   H     H_    0.549480 0.768417 0.153080 0.147166
H19   H     H_    0.559445 0.398753 0.804054 0.152022
H20   H     H_    0.197971 0.009975 0.487509 0.181222
N1    N     N_2   0.440860 0.456490 0.474790 -0.172278
N2    N     N_2   0.559140 0.543510 0.525210 -0.174353
N3    N     N_2   0.132660 0.279659 0.186036 -0.319318
N4    N     N_2   0.867015 0.737430 0.808509 -0.299756
O1    O     O_R   0.891570 0.738930 0.506190 -0.607750
O2    O     O_R   0.108430 0.261070 0.493810 -0.613703
O3    O     O_R   0.174650 0.711050 0.490030 -0.621384
O4    O     O_R   0.825350 0.288950 0.509970 -0.624655
O5    O     O_R   0.909850 0.521900 0.644940 -0.623042
O6    O     O_R   0.090150 0.478100 0.355060 -0.610106
O7    O     O_R   0.192930 0.494020 0.628780 -0.610567
O8    O     O_R   0.807070 0.505980 0.371220 -0.616020
Zn1   Zn    Zn3+2 0.810990 0.518620 0.510790 0.922739
Zn2   Zn    Zn3+2 0.189010 0.481380 0.489210 0.928189

loop_
_geom_bond_atom_site_label_1
_geom_bond_atom_site_label_2
_ccdc_geom_bond_type
C2    C4    S    
C5    H16   S    
C2    O8    A    
C16   C21   A    
C3    C9    A    
O5    Zn1   S    
C23   H12   S    
C9    C11   A    
C11   C16   A    
C9    H15   S    
N1    N2    D    
C13   C15   A    
C13   C17   A    
C12   C25   S    
C22   H1    S    
C24   H20   S    
C26   O5    A    
C14   C22   A    
H9    N4    S    
C15   C23   A    
C6    C15   A    
N2    Zn1   S    
C2    O6    A    
C25   H2    S    
C1    O1    A    
C19   N4    S    
C5    C14   A    
C19   H13   S    
H5    N3    S    
H4    N2    S    
C12   O2    A    
O3    Zn2   S    
H3    N1    S    
C20   H18   S    
C3    C7    A    
C21   H19   S    
C19   H10   S    
C18   H8    S    
C21   C23   A    
C26   O7    A    
O1    Zn1   S    
C18   H7    S    
C19   H11   S    
C4    C10   A    
N1    Zn2   S    
C17   C20   A    
C18   H6    S    
C24   C25   D    
C18   N3    S    
C1    C24   S    
C10   H14   S    
C11   C14   A    
C5    C7    A    
C1    O3    A    
C6    H17   S    
O7    Zn2   S    
C6    C8    A    
O2    Zn2   S    
C4    C8    A    
O8    Zn1   S    
O4    Zn1   S    
C8    N3    S    
C3    C26   S    
C12   O4    A    
O6    Zn2   S    
C7    N4    S    
C20   C22   A    
C16   C17   A    
C10   C13   A    
