data_mof_unit_49360.cif
_audit_creation_date              2013-03-05T15:53:46-0500
_audit_creation_method            fapswitch 2.2
_symmetry_space_group_name_H-M    P1
_symmetry_Int_Tables_number       1
_space_group_crystal_system       triclinic
_cell_length_a                    10.655923
_cell_length_b                    10.66984
_cell_length_c                    9.915059
_cell_angle_alpha                 89.891593
_cell_angle_beta                  90.236843
_cell_angle_gamma                 91.979246
_cell_volume                      1126.62849555

loop_
_atom_site_label
_atom_site_type_symbol
_atom_site_description
_atom_site_fract_x
_atom_site_fract_y
_atom_site_fract_z
_atom_type_partial_charge
O1    O     O_R   0.500000 0.316780 0.614690 -0.647348
O2    O     O_R   0.499990 0.316750 0.385360 -0.639534
C1    C     C_R   0.506031 0.260833 0.500343 0.847864
O3    O     O_R   0.314800 0.499990 0.614670 -0.640240
O4    O     O_R   0.314790 0.499970 0.385330 -0.633087
C2    C     C_R   0.257946 0.496849 0.499611 0.882488
Zn1   Zn    Zn3+2 0.500010 0.500020 0.653130 0.937033
Zn2   Zn    Zn3+2 0.499990 0.499980 0.346870 0.969619
O5    O     O_R   0.500010 0.683250 0.614640 -0.618808
O6    O     O_R   0.500000 0.683220 0.385310 -0.596306
O7    O     O_R   0.685210 0.500030 0.614670 -0.659403
O8    O     O_R   0.685200 0.500010 0.385330 -0.598807
C3    C     C_R   0.507157 0.739572 0.500126 0.958925
C4    C     C_R   0.742223 0.500442 0.499756 0.884857
C5    C     C_3   0.079424 0.626997 0.555486 0.124661
H1    H     H_    0.107271 0.630284 0.664131 0.098340
C6    C     C_3   0.933593 0.631794 0.551760 0.083280
H2    H     H_    0.901067 0.641092 0.657908 0.053847
H3    H     H_    0.108506 0.543386 0.279477 0.236713
H4    H     H_    0.897955 0.548699 0.279355 0.233107
C7    C     C_3   0.070127 0.474275 0.353684 -0.378800
C8    C     C_3   0.068049 0.392420 0.590683 -0.487059
C9    C     C_3   0.121772 0.498763 0.498716 0.014801
H5    H     H_    0.098392 0.299530 0.554408 0.199124
H6    H     H_    0.103077 0.403922 0.696004 0.191442
C10   C     C_3   0.878940 0.502757 0.497960 0.035298
C11   C     C_3   0.927815 0.477092 0.353051 -0.352269
C12   C     C_3   0.924212 0.395205 0.590652 -0.477655
H7    H     H_    0.891180 0.407950 0.695978 0.189067
H8    H     H_    0.885046 0.303247 0.554270 0.198909
H9    H     H_    0.098904 0.380513 0.318316 0.166367
H10   H     H_    0.888798 0.385058 0.316288 0.175141
H11   H     H_    0.381701 0.108584 0.339001 0.157362
C13   C     C_R   0.685774 0.136947 0.676248 -0.188245
H12   H     H_    0.694568 0.237898 0.675290 0.160104
C14   C     C_R   0.764816 0.074604 0.763997 -0.122463
H13   H     H_    0.828941 0.127558 0.828973 0.137312
C15   C     C_R   0.763318 0.944481 0.766045 -0.077393
H14   H     H_    0.826574 0.896042 0.832300 0.138641
C16   C     C_R   0.683793 0.876353 0.679237 -0.101714
H15   H     H_    0.692763 0.776004 0.679016 0.139411
C17   C     C_R   0.600634 0.937806 0.591161 0.103878
C18   C     C_R   0.600934 0.069431 0.590479 0.103916
C19   C     C_R   0.518286 0.128970 0.500664 -0.102450
C20   C     C_R   0.443926 0.062000 0.408268 -0.198673
H16   H     H_    0.383901 0.883402 0.337365 0.198049
C21   C     C_R   0.445120 0.934326 0.407422 -0.103767
C22   C     C_R   0.519270 0.872422 0.500272 -0.095148
H17   H     H_    0.642802 0.639800 0.125609 0.175107
C23   C     C_R   0.334097 0.336249 0.139684 -0.172755
H18   H     H_    0.328904 0.330657 0.246649 0.194874
C24   C     C_R   0.252143 0.255623 0.069344 -0.200133
H19   H     H_    0.188254 0.192872 0.123713 0.160373
C25   C     C_R   0.252426 0.255224 0.929705 -0.182010
H20   H     H_    0.188710 0.192195 0.875145 0.162079
C26   C     C_R   0.334624 0.335503 0.859618 -0.159529
H21   H     H_    0.329846 0.329209 0.752630 0.202754
C27   C     C_R   0.418349 0.419105 0.927514 0.172297
C28   C     C_R   0.418232 0.419308 0.072091 0.177666
N1    N     N_R   0.498810 0.498800 0.142780 -0.126028
C29   C     C_R   0.578564 0.576939 0.071725 -0.107083
H22   H     H_    0.642940 0.639534 0.875218 0.135138
C30   C     C_R   0.578554 0.576866 0.928644 -0.113821
N2    N     N_R   0.498760 0.498720 0.857170 -0.123145
N3    N     N_R   0.143371 0.734868 0.489136 0.234480
O9    O     O_R   0.130435 0.755868 0.360574 -0.378849
O10   O     O_R   0.210778 0.813824 0.561232 -0.401620
N4    N     N_R   0.889961 0.743184 0.478757 0.226590
O11   O     O_R   0.813727 0.734640 0.376135 -0.425527
O12   O     O_R   0.920954 0.854360 0.524288 -0.351244

loop_
_geom_bond_atom_site_label_1
_geom_bond_atom_site_label_2
_geom_bond_distance
_ccdc_geom_bond_type
Zn2   N1    2.023612 S    
O4    Zn2   2.011525 S    
C23   C24   1.390854 A    
C18   C19   1.415001 A    
O6    C3    1.289194 A    
C12   H8    1.113027 S    
C5    C6    1.556848 S    
H22   C30   1.080933 S    
H4    C11   1.109800 S    
C25   C26   1.390957 A    
C3    C22   1.418902 S    
H11   C20   1.084474 S    
C10   C12   1.557194 S    
C21   C22   1.391345 A    
N3    O10   1.301110 A    
C23   C28   1.409310 A    
Zn2   O8    2.008528 S    
C14   C15   1.388048 A    
C6    H2    1.115100 S    
C7    C11   1.517791 S    
C28   N1    1.376538 A    
C8    C12   1.534020 S    
C24   H19   1.082840 S    
C15   C16   1.393237 A    
C7    H9    1.114115 S    
C10   C11   1.558234 S    
O4    C2    1.286887 A    
C14   H13   1.082705 S    
O3    Zn1   2.008526 S    
O1    Zn1   1.992648 S    
C6    C10   1.569752 S    
C5    C9    1.562113 S    
C12   H7    1.113494 S    
H3    C7    1.109942 S    
C26   C27   1.409670 A    
O2    C1    1.288149 A    
C13   C14   1.392589 A    
C7    C9    1.556892 S    
C27   N2    1.376480 A    
C15   H14   1.082652 S    
Zn1   N2    2.023187 S    
O7    C4    1.293374 A    
C8    H5    1.113864 S    
C1    C19   1.417485 S    
C27   C28   1.433502 A    
O3    C2    1.289438 A    
H17   C29   1.081885 S    
C17   C18   1.404314 A    
C2    C9    1.451893 S    
C5    H1    1.116450 S    
C5    N3    1.472582 S    
O8    C4    1.284733 A    
C17   C22   1.415856 A    
C26   H21   1.063937 S    
C6    N4    1.478107 S    
N4    O12   1.301445 A    
N3    O9    1.301413 A    
C8    C9    1.549907 S    
C20   C21   1.362805 A    
O2    Zn2   1.991225 S    
O1    C1    1.285178 A    
Zn1   O5    1.991225 S    
O5    C3    1.284944 A    
H16   C21   1.084657 S    
N1    C29   1.366559 A    
Zn1   O7    2.011526 S    
C16   H15   1.078255 S    
C13   H12   1.077999 S    
C23   H18   1.063685 S    
C11   H10   1.114416 S    
C25   H20   1.082907 S    
C13   C18   1.417897 A    
N4    O11   1.300743 A    
Zn2   O6    1.992648 S    
C4    C10   1.456381 S    
C19   C20   1.391073 A    
C30   N2    1.367007 A    
C24   C25   1.384562 A    
C16   C17   1.417517 A    
C29   C30   1.418656 A    
C8    H6    1.113093 S    
