data_mof_unit_46253.cif
_audit_creation_date              2012-12-10T17:05:18-0500
_audit_creation_method            fapswitch 2.2
_symmetry_space_group_name_H-M    P1
_symmetry_Int_Tables_number       1
_space_group_crystal_system       triclinic
_cell_length_a                    10.102633
_cell_length_b                    10.74072
_cell_length_c                    15.436895
_cell_angle_alpha                 90.434055
_cell_angle_beta                  67.307793
_cell_angle_gamma                 90.411895
_cell_volume                      1545.32498561

loop_
_atom_site_label
_atom_site_type_symbol
_atom_type_description
_atom_site_fract_x
_atom_site_fract_y
_atom_site_fract_z
_atom_type_partial_charge
C1    C     C_R   0.501541 0.737031 0.498237 0.911359
C2    C     C_R   0.708015 0.611459 0.042371 0.055948
C3    C     C_R   0.583245 0.538573 0.089179 0.015337
C4    C     C_R   0.408982 0.500669 0.676543 0.849403
C5    C     C_R   0.800854 0.639084 0.088663 -0.180333
C6    C     C_R   0.766018 0.599969 0.180717 -0.169881
C7    C     C_R   0.570552 0.476963 0.171902 0.309647
C8    C     C_2   0.610128 0.067609 0.502333 -0.141502
C9    C     C_2   0.492260 0.131344 0.511712 -0.294466
C10   C     C_2   0.606656 0.933684 0.507936 -0.149286
C11   C     C_2   0.507002 0.868587 0.490131 -0.307503
C12   C     C_R   0.404954 0.538659 0.918997 0.050361
C13   C     C_2   0.099213 0.418617 0.455325 0.425189
C14   C     C_2   0.961004 0.436711 0.442158 -0.189151
C15   C     C_R   0.498377 0.262917 0.502262 0.965244
C16   C     C_R   0.590763 0.500820 0.323982 0.929727
C17   C     C_R   0.349941 0.505767 0.779932 -0.102980
C18   C     C_R   0.649124 0.519923 0.222844 -0.118610
C19   C     C_R   0.166247 0.468233 0.934600 -0.172908
C20   C     C_R   0.207560 0.472316 0.837197 -0.033540
C21   C     C_R   0.444123 0.542277 0.821894 -0.223618
C22   C     C_1   0.847623 0.526533 0.588592 0.309616
C23   C     C_R   0.265119 0.495965 0.975986 0.048823
C24   C     C_1   0.862736 0.726374 0.898798 0.170465
C25   C     C_1   0.103349 0.435772 0.798810 0.219472
C26   C     C_R   0.505920 0.567267 0.959593 0.049659
C27   C     C_R   0.474692 0.530894 0.052879 0.019487
C28   C     C_R   0.332650 0.497067 0.109905 -0.176189
C29   C     C_R   0.228773 0.479700 0.072623 0.357944
C30   C     C_R   0.635819 0.632066 0.910678 -0.211828
C31   C     C_R   0.734315 0.656556 0.951935 0.004501
Cl1   Cl    Cl    0.057771 0.428557 0.149488 -0.628821
Cl2   Cl    Cl    0.196366 0.284210 0.404688 -0.497594
Cl3   Cl    Cl    0.483233 0.330513 0.202120 -0.518432
H1    H     H_    0.894870 0.697357 0.056679 0.170112
H2    H     H_    0.552243 0.566044 0.776670 0.174483
H3    H     H_    0.299484 0.487228 0.185003 0.219907
H4    H     H_    0.659306 0.671736 0.842255 0.153885
H5    H     H_    0.711522 0.113721 0.491015 0.192931
H6    H     H_    0.387879 0.088218 0.529129 0.168507
H7    H     H_    0.688870 0.888599 0.525602 0.181350
H8    H     H_    0.428940 0.910645 0.467171 0.169347
H9    H     H_    0.100278 0.584650 0.512496 0.138678
H10   H     H_    0.949546 0.390571 0.382642 0.223253
H11   H     H_    0.828727 0.633726 0.219350 0.197093
H12   H     H_    0.057789 0.439092 0.977268 0.201971
N1    N     N_2   0.148330 0.498670 0.499030 -0.218667
N2    N     N_2   0.852680 0.498640 0.499000 -0.166228
N3    N     N_1   0.842938 0.549777 0.663064 -0.246116
N4    N     N_1   0.965609 0.781999 0.856180 -0.182837
N5    N     N_1   0.019532 0.406362 0.768338 -0.164360
O1    O     O_R   0.386950 0.680940 0.500010 -0.620226
O2    O     O_R   0.613110 0.680900 0.499990 -0.617067
O3    O     O_R   0.322330 0.500030 0.632270 -0.602884
O4    O     O_R   0.548480 0.499990 0.632240 -0.617622
O5    O     O_R   0.386890 0.319100 0.500010 -0.547394
O6    O     O_R   0.613050 0.319060 0.499990 -0.618368
O7    O     O_R   0.451520 0.500010 0.367760 -0.565145
O8    O     O_R   0.677670 0.499970 0.367730 -0.601265
Zn1   Zn    Zn3+2 0.349000 0.500030 0.500020 1.024667
Zn2   Zn    Zn3+2 0.651000 0.499970 0.499980 0.976456

loop_
_geom_bond_atom_site_label_1
_geom_bond_atom_site_label_2
_ccdc_geom_bond_type
C22   N2    S    
C23   C29   A    
C25   N5    T    
C13   Cl2   S    
C6    H11   S    
C19   C23   A    
C19   C20   A    
C1    C11   S    
C7    C18   A    
C15   O5    A    
C3    C27   A    
C2    C3    A    
C9    C15   S    
C24   C31   S    
C21   H2    S    
C16   O7    A    
C13   C14   S    
C10   H7    S    
O6    Zn2   S    
C15   O6    A    
C12   C23   A    
C26   C27   A    
C5    C6    A    
O2    Zn2   S    
C28   H3    S    
C22   N3    T    
C4    C17   S    
C5    H1    S    
C8    C10   S    
C28   C29   A    
C8    H5    S    
C26   C30   A    
C29   Cl1   S    
C3    C7    A    
C4    O4    A    
C24   N4    T    
C30   C31   A    
C6    C18   A    
C1    O1    A    
C19   H12   S    
C2    C5    A    
O8    Zn2   S    
C20   C25   S    
O7    Zn1   S    
O4    Zn2   S    
C17   C20   A    
C7    Cl3   S    
C30   H4    S    
C11   H8    S    
C14   H10   S    
C10   C11   D    
N2    Zn2   S    
C27   C28   A    
C13   N1    D    
C14   N2    D    
C1    O2    A    
C8    C9    D    
O3    Zn1   S    
O1    Zn1   S    
C4    O3    A    
N1    Zn1   S    
H9    N1    S    
C12   C21   A    
C9    H6    S    
C17   C21   A    
O5    Zn1   S    
C12   C26   A    
C2    C31   A    
C16   O8    A    
C16   C18   S    
