data_mof_unit_26206.cif
_audit_creation_date              2012-12-10T17:32:59-0500
_audit_creation_method            fapswitch 2.2
_symmetry_space_group_name_H-M    P1
_symmetry_Int_Tables_number       1
_space_group_crystal_system       triclinic
_cell_length_a                    12.486587
_cell_length_b                    13.356954
_cell_length_c                    14.391525
_cell_angle_alpha                 95.955243
_cell_angle_beta                  108.061092
_cell_angle_gamma                 117.538748
_cell_volume                      1934.56428912

loop_
_atom_site_label
_atom_site_type_symbol
_atom_type_description
_atom_site_fract_x
_atom_site_fract_y
_atom_site_fract_z
_atom_type_partial_charge
C1    C     C_R   0.646473 0.712734 0.503378 0.891649
C2    C     C_R   0.853743 0.505251 0.918741 0.122853
C3    C     C_R   0.827759 0.551283 0.996784 0.107072
C4    C     C_R   0.959318 0.482889 0.945374 0.029762
C5    C     C_R   0.035742 0.505731 0.050192 0.054064
C6    C     C_R   0.008934 0.555480 0.125230 -0.057725
C7    C     C_R   0.905289 0.575233 0.098792 -0.097113
C8    C     C_R   0.996030 0.445072 0.871381 -0.145914
C9    C     C_R   0.108783 0.437981 0.898877 0.324361
C10   C     C_R   0.180538 0.454207 0.001353 -0.018221
C11   C     C_R   0.140664 0.483142 0.077111 0.049531
C12   C     C_R   0.616198 0.514203 0.686241 0.852547
C13   C     C_R   0.290660 0.440867 0.029765 -0.185432
C14   C     C_R   0.358377 0.451587 0.130907 0.602623
C15   C     C_R   0.206307 0.487362 0.177664 -0.245771
C16   C     C_R   0.178878 0.953326 0.418057 0.695003
C17   C     C_R   0.256925 0.160823 0.475748 -0.177374
C18   C     C_R   0.709832 0.926208 0.540733 0.171261
C19   C     C_R   0.815328 0.043277 0.577020 0.226698
C20   C     C_R   0.933707 0.070775 0.569500 0.562080
C21   C     C_R   0.941920 0.986035 0.508693 -0.055910
C22   C     C_R   0.835903 0.867172 0.472798 -0.091169
C23   C     C_R   0.346486 0.285036 0.486539 0.838422
C24   C     C_R   0.052408 0.014898 0.483388 -0.025684
C25   C     C_R   0.063999 0.924279 0.435132 -0.115449
C26   C     C_R   0.956553 0.808222 0.398001 0.627448
C27   C     C_R   0.841241 0.782761 0.409457 -0.186873
C28   C     C_R   0.146279 0.131729 0.497017 -0.093932
C29   C     C_R   0.275719 0.071342 0.439918 -0.244388
C30   C     C_R   0.727503 0.835669 0.501376 -0.205498
C31   C     C_R   0.263863 0.668876 0.683555 -0.240887
C32   C     C_R   0.657938 0.365990 0.345685 -0.023338
C33   C     C_R   0.741036 0.369779 0.299053 0.162363
C34   C     C_R   0.381404 0.482431 0.313136 0.819966
C35   C     C_R   0.877231 0.433972 0.355846 0.669996
C36   C     C_R   0.931677 0.481866 0.463120 -0.142645
C37   C     C_R   0.847031 0.496089 0.504522 0.101412
C38   C     C_R   0.070237 0.530587 0.526334 -0.038837
C39   C     C_R   0.125956 0.603997 0.627034 -0.067913
C40   C     C_R   0.045226 0.614919 0.670119 0.243966
C41   C     C_R   0.913919 0.577024 0.607781 0.232159
C42   C     C_R   0.155993 0.503042 0.498272 0.429265
C43   C     C_R   0.344615 0.652174 0.645550 0.794156
C44   C     C_R   0.681924 0.521178 0.793123 -0.059982
C45   C     C_R   0.315228 0.473301 0.205538 -0.177935
C46   C     C_R   0.727555 0.577650 0.972321 -0.127590
C47   C     C_R   0.655960 0.563896 0.871125 -0.125498
C48   C     C_R   0.776079 0.487769 0.817020 -0.157770
Cu1   Cu    Cu3+1 0.416420 0.526630 0.522910 1.099096
Cu2   Cu    Cu3+1 0.583580 0.473370 0.477090 1.019038
H1    H     H_    0.888175 0.613065 0.158860 0.228513
H2    H     H_    0.325037 0.420933 0.974208 0.213779
H3    H     H_    0.361631 0.092251 0.423812 0.204616
H4    H     H_    0.129486 0.201257 0.516735 0.256079
H5    H     H_    0.755811 0.695764 0.366443 0.197960
H6    H     H_    0.171110 0.497715 0.235266 0.229116
H7    H     H_    0.311655 0.733994 0.756896 0.228190
H8    H     H_    0.552766 0.320762 0.300321 0.206515
H9    H     H_    0.707415 0.612499 0.031938 0.166829
H10   H     H_    0.582400 0.588745 0.854244 0.196573
H11   H     H_    0.788065 0.449941 0.754306 0.163479
H12   H     H_    0.070712 0.585804 0.205660 0.224406
H13   H     H_    0.944776 0.427642 0.790833 0.184143
N1    N     N_R   0.290690 0.566960 0.557640 -0.270988
N2    N     N_R   0.709100 0.433710 0.442970 -0.219598
O1    O     O_R   0.545970 0.684450 0.528810 -0.500132
O2    O     O_R   0.687130 0.639470 0.490120 -0.561964
O3    O     O_R   0.519670 0.535100 0.660030 -0.532473
O4    O     O_R   0.660830 0.490120 0.621340 -0.566992
O5    O     O_R   0.312870 0.360530 0.509880 -0.555294
O6    O     O_R   0.454030 0.315550 0.471190 -0.587481
O7    O     O_R   0.339170 0.509880 0.378660 -0.562316
O8    O     O_R   0.480330 0.464900 0.339970 -0.551980
F1    F     F_    0.958745 0.719834 0.344506 -0.633264
F2    F     F_    0.195858 0.868375 0.376880 -0.590793
Br1   Br    Br    0.544402 0.895908 0.545006 -0.315331
F3    F     F_    0.040733 0.178518 0.627240 -0.608943
Br2   Br    Br    0.804175 0.168775 0.643234 -0.365133
F4    F     F_    0.477113 0.714561 0.700905 -0.615028
Br3   Br    Br    0.121048 0.693180 0.817156 -0.442044
Br4   Br    Br    0.081632 0.356321 0.396048 -0.421786
F5    F     F_    0.955411 0.464020 0.303648 -0.634910
Br5   Br    Br    0.668703 0.299087 0.154773 -0.331364
Br6   Br    Br    0.890717 0.701206 0.661241 -0.405482
F6    F     F_    0.464461 0.438710 0.154657 -0.642934
Br7   Br    Br    0.162671 0.410523 0.792137 -0.401908

loop_
_geom_bond_atom_site_label_1
_geom_bond_atom_site_label_2
_ccdc_geom_bond_type
C12   O4    A    
Cu1   O3    S    
C42   N1    A    
C46   H9    S    
C16   F2    S    
C17   C29   A    
C35   C36   A    
C32   H8    S    
C4    C8    A    
C12   O3    A    
C26   C27   A    
C17   C23   S    
C31   C43   A    
C20   F3    S    
C36   C37   A    
Cu2   O4    S    
C5    C11   A    
C3    C7    A    
C38   C39   A    
C27   H5    S    
C43   F4    S    
C18   C19   A    
C26   F1    S    
C47   H10   S    
C11   C15   A    
C19   C20   A    
C8    C9    A    
Cu1   O7    S    
C37   N2    A    
C40   Br3   S    
C18   C30   A    
Cu2   O2    S    
C44   C47   A    
Cu1   N1    S    
C21   C22   A    
C23   O5    A    
C42   Br4   S    
C35   F5    S    
C43   N1    A    
C14   C45   A    
Cu1   O1    S    
C23   O6    A    
C24   C25   A    
Cu2   O8    S    
C39   C40   A    
C28   H4    S    
C34   O8    A    
C2    C48   A    
C25   C26   A    
C41   Br6   S    
C19   Br2   S    
C2    C4    A    
Cu2   O6    S    
C9    Br7   S    
C13   H2    S    
C1    O1    A    
C34   C45   S    
C33   Br5   S    
C40   C41   A    
C22   C27   A    
C15   C45   A    
C34   O7    A    
C9    C10   A    
C16   C25   A    
C46   C47   A    
C18   Br1   S    
C22   C30   A    
C17   C28   A    
C24   C28   A    
C14   F6    S    
C4    C5    A    
C10   C13   A    
C38   C42   A    
C6    C7    A    
C1    O2    A    
C3    C46   A    
Cu1   O5    S    
C15   H6    S    
C6    H12   S    
C36   C38   A    
C2    C3    A    
C16   C29   A    
C7    H1    S    
C12   C44   S    
C32   C33   A    
C31   H7    S    
C48   H11   S    
C5    C6    A    
C29   H3    S    
C1    C30   S    
C33   C35   A    
C31   C39   A    
C37   C41   A    
Cu2   N2    S    
C10   C11   A    
C8    H13   S    
C20   C21   A    
Cu1   Cu2   S    
C21   C24   A    
C13   C14   A    
C44   C48   A    
C32   N2    A    
