data_mof_unit_7610.cif
_audit_creation_date              2012-12-11T16:53:51-0500
_audit_creation_method            fapswitch 2.2
_symmetry_space_group_name_H-M    P1
_symmetry_Int_Tables_number       1
_space_group_crystal_system       triclinic
_cell_length_a                    14.957684
_cell_length_b                    14.798624
_cell_length_c                    17.114313
_cell_angle_alpha                 109.136734
_cell_angle_beta                  106.108981
_cell_angle_gamma                 108.256729
_cell_volume                      3078.59647473

loop_
_atom_site_label
_atom_site_type_symbol
_atom_type_description
_atom_site_fract_x
_atom_site_fract_y
_atom_site_fract_z
_atom_type_partial_charge
C1    C     C_R   0.089299 0.275039 0.049590 -0.142155
C2    C     C_R   0.066486 0.480210 0.251533 -0.116153
C3    C     C_R   0.279518 0.784949 0.176273 -0.145646
C4    C     C_R   0.936985 0.486913 0.736711 -0.134326
C5    C     C_R   0.698094 0.409022 0.997109 0.207130
C6    C     C_R   0.334305 0.781877 0.254526 0.064797
C7    C     C_R   0.639244 0.439210 0.941907 0.026668
C8    C     C_R   0.977243 0.415383 0.251663 0.064290
C9    C     C_R   0.990877 0.824928 0.031732 0.050034
C10   C     C_R   0.408286 0.484476 0.887808 0.162656
C11   C     C_R   0.358046 0.430236 0.928248 0.041528
C12   C     C_R   0.029250 0.518478 0.727323 0.066441
C13   C     C_R   0.375027 0.343756 0.932792 -0.219617
C14   C     C_R   0.458823 0.330707 0.918822 -0.198418
C15   C     C_R   0.528228 0.408902 0.906791 0.040651
C16   C     C_R   0.764349 0.199781 0.811265 -0.140888
C17   C     C_R   0.492889 0.474153 0.877447 0.160519
C18   C     C_3   0.548366 0.589867 0.901463 -0.512007
C19   C     C_3   0.455545 0.601103 0.912489 -0.527948
C20   C     C_R   0.971971 0.376125 0.318967 0.125928
C21   C     C_R   0.040172 0.484314 0.641918 0.135778
C22   C     C_R   0.147569 0.489724 0.559312 -0.226042
C23   C     C_R   0.742459 0.193105 0.724789 0.065872
C24   C     C_R   0.138582 0.521232 0.641266 -0.175253
C25   C     C_R   0.952141 0.408341 0.560692 -0.279855
C26   C     C_R   0.959800 0.380949 0.478249 0.189026
C27   C     C_R   0.057906 0.424653 0.477596 0.191085
C28   C     C_R   0.263435 0.539844 0.953738 -0.135612
C29   C     C_R   0.063470 0.415036 0.396242 -0.279074
C30   C     C_R   0.875430 0.319812 0.316736 -0.173935
C31   C     C_R   0.869754 0.320179 0.396404 -0.220684
C32   C     C_R   0.699125 0.096746 0.638613 0.132468
C33   C     C_R   0.442237 0.854595 0.320724 0.128763
C34   C     C_R   0.296550 0.468768 0.969819 0.067968
C35   C     C_R   0.585645 0.031426 0.395838 -0.222444
C36   C     C_R   0.495877 0.950651 0.319721 -0.175142
C37   C     C_R   0.487412 0.834525 0.392724 -0.279500
C38   C     C_R   0.571808 0.917321 0.471540 0.189507
C39   C     C_R   0.618442 0.017897 0.474317 0.188479
C40   C     C_R   0.769097 0.295851 0.734687 -0.121573
C41   C     C_R   0.686586 0.106151 0.557752 -0.277552
C42   C     C_R   0.662507 0.994993 0.634855 -0.170998
C43   C     C_R   0.600663 0.904969 0.551009 -0.226035
C44   C     C_R   0.100486 0.061842 0.980408 0.151986
C45   C     C_R   0.271508 0.689494 0.253121 -0.121283
C46   C     C_R   0.006803 0.069081 0.969383 0.036219
C47   C     C_R   0.913888 0.972578 0.915043 -0.201363
C48   C     C_R   0.915670 0.877527 0.863057 -0.187332
C49   C     C_R   0.009852 0.876650 0.865503 0.029180
C50   C     C_R   0.101686 0.967277 0.930153 0.161560
C51   C     C_3   0.194683 0.023406 0.918198 -0.489218
C52   C     C_R   0.260370 0.443861 0.030360 -0.131274
C53   C     C_3   0.193027 0.126926 0.971884 -0.532380
C54   C     C_R   0.109399 0.572791 0.813701 -0.139247
C55   C     C_R   0.917155 0.191425 0.973829 -0.125269
C56   C     C_R   0.705391 0.500314 0.917627 -0.213724
C57   C     C_R   0.004472 0.174231 0.999607 0.068525
C58   C     C_3   0.642300 0.362906 0.103297 -0.982159
C59   C     C_R   0.894823 0.392150 0.174826 -0.149890
C60   C     C_R   0.079844 0.808657 0.048275 -0.126831
C61   C     C_R   0.907729 0.724286 0.971813 -0.110766
H1    H     H_    0.167743 0.292343 0.089481 0.095048
H2    H     H_    0.619559 0.636200 0.966975 0.206783
H3    H     H_    0.860022 0.457011 0.685302 0.084089
H4    H     H_    0.558310 0.601362 0.842854 0.185648
H5    H     H_    0.473791 0.653541 0.984130 0.203242
H6    H     H_    0.412241 0.618981 0.859999 0.186613
H7    H     H_    0.138977 0.452848 0.397762 0.114489
H8    H     H_    0.803538 0.284167 0.256622 0.117589
H9    H     H_    0.223421 0.522817 0.559537 0.124766
H10   H     H_    0.794209 0.283730 0.395769 0.121532
H11   H     H_    0.208593 0.576343 0.703199 0.111777
H12   H     H_    0.683498 0.522737 0.863761 0.119900
H13   H     H_    0.876385 0.374754 0.560221 0.113689
H14   H     H_    0.720075 0.183154 0.559068 0.114594
H15   H     H_    0.745711 0.134026 0.827396 0.086993
H16   H     H_    0.675576 0.984673 0.696041 0.114271
H17   H     H_    0.622200 0.107851 0.396701 0.121431
H18   H     H_    0.566939 0.827606 0.549365 0.124599
H19   H     H_    0.465094 0.966994 0.263634 0.113825
H20   H     H_    0.450615 0.759263 0.393129 0.114916
H21   H     H_    0.839100 0.971496 0.906272 0.121597
H22   H     H_    0.843452 0.806302 0.816630 0.125206
H23   H     H_    0.817722 0.329771 0.147358 0.107862
H24   H     H_    0.263379 0.015245 0.954998 0.187124
H25   H     H_    0.177704 0.004953 0.845730 0.200376
H26   H     H_    0.261720 0.179209 0.038893 0.186019
H27   H     H_    0.280506 0.578250 0.913230 0.102348
H28   H     H_    0.173231 0.167358 0.929924 0.204382
H29   H     H_    0.753763 0.319623 0.681476 0.084718
H30   H     H_    0.277738 0.394777 0.060772 0.089774
H31   H     H_    0.189405 0.622506 0.832460 0.079784
H32   H     H_    0.837703 0.132739 0.945145 0.078628
H33   H     H_    0.292170 0.653174 0.296155 0.084346
H34   H     H_    0.158735 0.869648 0.091934 0.099967
H35   H     H_    0.693315 0.277530 0.016262 0.152146
H36   H     H_    0.609485 0.293956 0.116524 0.248505
H37   H     H_    0.587402 0.398848 0.096474 0.271215
H38   H     H_    0.717070 0.423898 0.162606 0.261622
H39   H     H_    0.826605 0.706809 0.944434 0.098138
H40   H     H_    0.146025 0.503112 0.294008 0.082873
H41   H     H_    0.310003 0.837484 0.148881 0.086191
H42   H     H_    0.331805 0.294026 0.956325 0.140381
H43   H     H_    0.475132 0.268451 0.929114 0.168403
N1    N     N_R   0.055640 0.348550 0.045600 -0.036942
N2    N     N_R   0.811290 0.303400 0.871650 -0.045535
N3    N     N_R   0.205180 0.552990 0.997660 -0.039520
N4    N     N_R   0.814810 0.361830 0.823710 -0.038437
N5    N     N_R   0.201660 0.494570 0.045600 -0.038210
N6    N     N_R   0.068420 0.560530 0.871650 -0.037107
N7    N     N_R   0.948050 0.295860 0.997660 -0.039346
N8    N     N_R   0.185190 0.638170 0.176290 -0.039961
N9    N     N_2   0.657510 0.326944 0.020634 -0.125953
N10   N     N_R   0.798340 0.505430 0.954400 -0.048977
N11   N     N_R   0.931580 0.439470 0.128350 -0.040713
N12   N     N_R   0.051950 0.704140 0.002340 -0.042510
N13   N     N_R   0.944360 0.651450 0.954400 -0.041430
N14   N     N_R   0.039170 0.492150 0.176290 -0.039461
N15   N     N_R   0.188710 0.696600 0.128350 -0.038766
N16   N     N_R   0.794820 0.447010 0.002340 -0.071886
N17   N     N_R   0.960830 0.507850 0.823710 -0.036541
Ni1   Ni    Ni4+2 0.119330 0.493420 0.109950 0.209638
Ni2   Ni    Ni4+2 0.880670 0.506580 0.890050 0.206545
Ni3   Ni    Ni4+2 0.872590 0.372590 0.000000 0.201211
Ni4   Ni    Ni4+2 0.127410 0.627410 0.000000 0.211032

loop_
_geom_bond_atom_site_label_1
_geom_bond_atom_site_label_2
_ccdc_geom_bond_type
C6    C45   A    
C27   C29   A    
C35   C36   A    
C58   H37   S    
C55   H32   S    
C3    C6    A    
C1    H1    S    
C51   H24   S    
C2    N14   A    
C45   N8    A    
C39   C41   A    
C20   C30   A    
C18   H4    S    
N8    Ni1   S    
C26   C27   A    
C8    C20   S    
C9    C61   A    
C18   C19   S    
C8    C59   A    
C30   C31   A    
N5    Ni1   S    
C28   N3    A    
C43   H18   S    
C23   C40   A    
C33   C36   A    
N12   N13   A    
C54   N6    A    
C19   H5    S    
C25   H13   S    
N14   Ni1   S    
C47   H21   S    
C44   C53   S    
C28   H27   S    
C58   N9    S    
C32   C41   A    
C19   H6    S    
N11   Ni3   S    
C4    C12   A    
C16   N2    A    
C40   N4    A    
C5    N9    S    
C31   H10   S    
N1    N7    A    
C28   C34   A    
C26   C31   A    
C13   C14   A    
N3    N5    A    
C37   H20   S    
C58   H36   S    
C7    C56   A    
C45   H33   S    
C51   H25   S    
C44   C46   A    
C50   C51   S    
C20   C29   A    
C5    N16   A    
C61   N13   A    
C59   H23   S    
N3    Ni4   S    
C36   H19   S    
C5    C7    A    
C2    H40   S    
C25   C26   A    
C12   C21   S    
C33   C37   A    
C51   C53   S    
C35   C39   A    
C54   H31   S    
C37   C38   A    
C1    C57   A    
C41   H14   S    
C29   H7    S    
C14   H43   S    
C47   C48   A    
C10   C19   S    
N11   N14   A    
C17   C18   S    
C53   H26   S    
C3    N15   A    
N10   Ni2   S    
N15   Ni4   S    
C3    H41   S    
C48   C49   A    
C16   C23   A    
N12   Ni4   S    
C55   C57   A    
C46   C57   S    
C53   H28   S    
C22   C24   A    
H35   N9    S    
C60   N12   A    
C61   H39   S    
C13   H42   S    
C42   C43   A    
N4    Ni2   S    
C30   H8    S    
C24   H11   S    
C44   C50   A    
N1    Ni1   S    
C15   C17   A    
C21   C25   A    
C46   C47   A    
C56   N10   A    
C56   H12   S    
C55   N7    A    
N7    Ni3   S    
C16   H15   S    
C11   C34   S    
C2    C8    A    
C58   H38   S    
N8    N15   A    
C48   H22   S    
C4    H3    S    
C35   H17   S    
C34   C52   A    
C6    C33   S    
C22   C27   A    
C9    C60   A    
C23   C32   S    
N13   Ni2   S    
C38   C43   A    
N6    N17   A    
C11   C13   A    
C38   C39   A    
N2    N4    A    
C52   N5    A    
C7    C15   S    
C4    N17   A    
C18   H2    S    
C12   C54   A    
N17   Ni2   S    
C10   C11   A    
N6    Ni4   S    
C60   H34   S    
C42   H16   S    
C59   N11   A    
C49   C50   A    
C21   C24   A    
N2    Ni3   S    
C32   C42   A    
C14   C15   A    
C52   H30   S    
C10   C17   A    
C40   H29   S    
C22   H9    S    
N10   N16   A    
N16   Ni3   S    
C1    N1    A    
