data_mof_unit_21831.cif
_audit_creation_date              2012-12-10T20:01:13-0500
_audit_creation_method            fapswitch 2.2
_symmetry_space_group_name_H-M    P1
_symmetry_Int_Tables_number       1
_space_group_crystal_system       triclinic
_cell_length_a                    18.46254
_cell_length_b                    18.383915
_cell_length_c                    39.623394
_cell_angle_alpha                 90.052071
_cell_angle_beta                  90.048685
_cell_angle_gamma                 90.054125
_cell_volume                      13448.7089615

loop_
_atom_site_label
_atom_site_type_symbol
_atom_type_description
_atom_site_fract_x
_atom_site_fract_y
_atom_site_fract_z
_atom_type_partial_charge
C1    C     C_R   0.499994 0.999870 0.909124 0.829320
C2    C     C_R   0.999970 0.499942 0.909057 0.833061
C3    C     C_R   0.999964 0.499824 0.409134 0.829106
C4    C     C_R   0.499981 0.999940 0.409056 0.833054
C5    C     C_R   0.999531 0.499688 0.871835 -0.119399
C6    C     C_R   0.500157 0.998884 0.871941 -0.116852
C7    C     C_R   0.499683 0.999659 0.371830 -0.119494
C8    C     C_R   0.999880 0.498589 0.371971 -0.116071
C9    C     C_R   0.998088 0.499063 0.801046 -0.091085
C10   C     C_R   0.501028 0.996076 0.801186 -0.088767
C11   C     C_R   0.498685 0.998915 0.301037 -0.091113
C12   C     C_R   0.999928 0.495128 0.301211 -0.091084
C13   C     C_1   0.997867 0.498815 0.764891 0.077785
C14   C     C_1   0.501359 0.995216 0.765008 0.082001
C15   C     C_1   0.498519 0.998578 0.264880 0.077359
C16   C     C_1   0.999903 0.493836 0.265027 0.081232
C17   C     C_1   0.498643 0.998463 0.234622 0.081233
C18   C     C_1   0.999889 0.493313 0.234746 0.081307
C19   C     C_1   0.998044 0.498738 0.734634 0.080404
C20   C     C_1   0.501366 0.994978 0.734734 0.065488
C21   C     C_R   0.475371 0.936756 0.180785 0.445532
C22   C     C_R   0.065837 0.487899 0.181016 0.440931
C23   C     C_R   0.522968 0.061009 0.181261 0.442130
C24   C     C_R   0.934067 0.500736 0.181016 0.437849
C25   C     C_R   0.975157 0.436816 0.680817 0.445976
C26   C     C_R   0.566121 0.984950 0.680837 0.447996
C27   C     C_R   0.022334 0.561205 0.681242 0.441960
C28   C     C_R   0.435750 0.007329 0.681123 0.453766
C29   C     C_R   0.474439 0.938593 0.145350 -0.320031
C30   C     C_R   0.064944 0.487575 0.145597 -0.322670
C31   C     C_R   0.524075 0.060672 0.145875 -0.311695
C32   C     C_R   0.935051 0.505534 0.145727 -0.323711
C33   C     C_R   0.974412 0.438540 0.645370 -0.320273
C34   C     C_R   0.564710 0.984319 0.645437 -0.323933
C35   C     C_R   0.023519 0.560845 0.645879 -0.308959
C36   C     C_R   0.436124 0.010538 0.645913 -0.297628
C37   C     C_R   0.499420 0.999880 0.127883 -0.106485
C38   C     C_R   0.000059 0.497949 0.127897 -0.111514
C39   C     C_R   0.999267 0.499886 0.627890 -0.107568
C40   C     C_R   0.500243 0.998277 0.627894 -0.124369
C41   C     C_R   0.498976 0.998702 0.198483 -0.085808
C42   C     C_R   0.999904 0.493622 0.198570 -0.081739
C43   C     C_R   0.998508 0.498886 0.698496 -0.087466
C44   C     C_R   0.501027 0.995216 0.698569 -0.100258
C45   C     C_R   0.499920 0.000023 0.090873 0.836494
C46   C     C_R   0.000026 0.499713 0.090848 0.839122
C47   C     C_R   0.999882 0.500020 0.590875 0.836905
C48   C     C_R   0.500033 0.999708 0.590847 0.839994
C49   C     C_R   0.640366 0.860554 0.000652 0.828894
C50   C     C_R   0.139112 0.640977 0.000870 0.832504
C51   C     C_R   0.359448 0.139281 0.000730 0.832364
C52   C     C_R   0.860968 0.359277 0.000744 0.832188
C53   C     C_R   0.639796 0.140251 0.000086 0.859687
C54   C     C_R   0.139652 0.359644 0.000342 0.871365
C55   C     C_R   0.360405 0.859328 0.999872 0.851544
C56   C     C_R   0.860424 0.640390 0.000379 0.873589
C57   C     C_R   0.140385 0.360571 0.500663 0.829039
C58   C     C_R   0.639121 0.140968 0.500866 0.832602
C59   C     C_R   0.859445 0.639273 0.500728 0.832187
C60   C     C_R   0.360977 0.859271 0.500729 0.830703
C61   C     C_R   0.139879 0.640180 0.500133 0.859600
C62   C     C_R   0.639655 0.859645 0.500338 0.871343
C63   C     C_R   0.860370 0.359357 0.499893 0.851298
C64   C     C_R   0.360402 0.140373 0.500367 0.873910
C65   C     C_R   0.238855 0.813555 0.984061 -0.056198
C66   C     C_R   0.199690 0.250428 0.976983 -0.091437
C67   C     C_R   0.751098 0.197652 0.977721 -0.085275
C68   C     C_R   0.799548 0.748818 0.976765 -0.094896
C69   C     C_R   0.249459 0.196724 0.978552 -0.142546
C70   C     C_R   0.184324 0.763602 0.986102 -0.137158
C71   C     C_R   0.749378 0.802141 0.978189 -0.143832
C72   C     C_R   0.805396 0.246877 0.979535 -0.141677
C73   C     C_R   0.738815 0.313559 0.484075 -0.056356
C74   C     C_R   0.699895 0.750627 0.476879 -0.091354
C75   C     C_R   0.251163 0.697582 0.477750 -0.085056
C76   C     C_R   0.299975 0.249251 0.476945 -0.094783
C77   C     C_R   0.749681 0.696934 0.478432 -0.142418
C78   C     C_R   0.684283 0.263610 0.486128 -0.137189
C79   C     C_R   0.249786 0.302559 0.478375 -0.143839
C80   C     C_R   0.305459 0.746819 0.479527 -0.141616
C81   C     C_R   0.303058 0.805109 0.002123 -0.268745
C82   C     C_R   0.194294 0.303052 0.002017 -0.221849
C83   C     C_R   0.696055 0.195347 0.001598 -0.238920
C84   C     C_R   0.805741 0.696949 0.002048 -0.220342
C85   C     C_R   0.302018 0.192818 0.003158 -0.239987
C86   C     C_R   0.190784 0.700381 0.004814 -0.280545
C87   C     C_R   0.697521 0.806709 0.003022 -0.237198
C88   C     C_R   0.807934 0.301456 0.003359 -0.256005
C89   C     C_R   0.802961 0.305201 0.502191 -0.268412
C90   C     C_R   0.694314 0.803066 0.501992 -0.221845
C91   C     C_R   0.196351 0.695069 0.501741 -0.239931
C92   C     C_R   0.305812 0.197020 0.502089 -0.221026
C93   C     C_R   0.802016 0.692810 0.503133 -0.240118
C94   C     C_R   0.690767 0.200386 0.504835 -0.280288
C95   C     C_R   0.197626 0.306817 0.503083 -0.237513
C96   C     C_R   0.308221 0.801199 0.503441 -0.256364
C97   C     C_R   0.306753 0.746719 0.025643 0.346123
C98   C     C_R   0.243008 0.298043 0.029900 0.339952
C99   C     C_R   0.698526 0.247710 0.028144 0.344910
C100  C     C_R   0.757532 0.702379 0.030071 0.344911
C101  C     C_R   0.295951 0.241878 0.030710 0.342242
C102  C     C_R   0.248369 0.697354 0.028461 0.381790
C103  C     C_R   0.704046 0.758084 0.030706 0.344776
C104  C     C_R   0.756099 0.298610 0.029775 0.374723
C105  C     C_R   0.806586 0.246904 0.525766 0.347059
C106  C     C_R   0.742837 0.797853 0.529939 0.339383
C107  C     C_R   0.199346 0.746947 0.528487 0.342184
C108  C     C_R   0.257252 0.202096 0.529996 0.346796
C109  C     C_R   0.795698 0.741618 0.530766 0.341933
C110  C     C_R   0.748321 0.197367 0.528501 0.380924
C111  C     C_R   0.203862 0.257906 0.530671 0.343081
C112  C     C_R   0.256988 0.797794 0.530096 0.379574
C113  C     C_3   0.152141 0.784601 0.953050 0.304739
C114  C     C_3   0.221891 0.158311 0.948129 0.306273
C115  C     C_3   0.842434 0.220006 0.948647 0.309590
C116  C     C_3   0.775976 0.839876 0.947478 0.309869
C117  C     C_3   0.168095 0.222712 0.944407 0.279901
C118  C     C_3   0.216791 0.837436 0.949228 0.277979
C119  C     C_3   0.830370 0.775935 0.943967 0.279367
C120  C     C_3   0.777734 0.166667 0.944846 0.284646
C121  C     C_3   0.652157 0.284509 0.453051 0.304547
C122  C     C_3   0.722168 0.658569 0.447985 0.306382
C123  C     C_3   0.342348 0.720050 0.448584 0.309648
C124  C     C_3   0.276215 0.340201 0.447606 0.309978
C125  C     C_3   0.668328 0.722954 0.444285 0.279162
C126  C     C_3   0.716825 0.337317 0.449209 0.278028
C127  C     C_3   0.330624 0.276282 0.444091 0.279455
C128  C     C_3   0.277611 0.666746 0.444812 0.284641
C129  C     C_R   0.000534 0.432927 0.818654 0.462772
C130  C     C_R   0.566225 0.006004 0.818844 0.464812
C131  C     C_R   0.996150 0.565498 0.818490 0.465950
C132  C     C_R   0.435384 0.987341 0.818593 0.466823
C133  C     C_R   0.500697 0.932804 0.318673 0.462781
C134  C     C_R   0.065236 0.505948 0.318709 0.465575
C135  C     C_R   0.497030 0.065396 0.318455 0.465659
C136  C     C_R   0.934567 0.486126 0.318828 0.464865
C137  C     C_R   0.999085 0.433634 0.854015 -0.328016
C138  C     C_R   0.565600 0.004571 0.854193 -0.330753
C139  C     C_R   0.999194 0.565419 0.853843 -0.328559
C140  C     C_R   0.435103 0.991623 0.853944 -0.329886
C141  C     C_R   0.499042 0.933578 0.354029 -0.327837
C142  C     C_R   0.065049 0.504668 0.354071 -0.330889
C143  C     C_R   0.499787 0.065367 0.353814 -0.328526
C144  C     C_R   0.934704 0.490759 0.354144 -0.330687
H1    H     H_    0.153752 0.739573 0.934333 0.065890
H2    H     H_    0.262750 0.156645 0.927572 0.062797
H3    H     H_    0.843769 0.261725 0.928382 0.063748
H4    H     H_    0.734723 0.840491 0.927047 0.062402
H5    H     H_    0.180201 0.260476 0.923154 0.028154
H6    H     H_    0.257435 0.821005 0.929888 0.024562
H7    H     H_    0.818393 0.737441 0.922935 0.028015
H8    H     H_    0.739894 0.179908 0.923807 0.025115
H9    H     H_    0.653782 0.239420 0.434366 0.066006
H10   H     H_    0.763058 0.656980 0.427439 0.062861
H11   H     H_    0.343622 0.761836 0.428347 0.063673
H12   H     H_    0.234877 0.340699 0.427212 0.062304
H13   H     H_    0.680397 0.760765 0.423046 0.028356
H14   H     H_    0.757497 0.320793 0.429901 0.024517
H15   H     H_    0.318557 0.237715 0.423098 0.028060
H16   H     H_    0.239652 0.680080 0.423832 0.024997
H17   H     H_    0.997741 0.382464 0.867429 0.179967
H18   H     H_    0.616312 0.008413 0.867691 0.179008
H19   H     H_    0.001052 0.616765 0.867129 0.179257
H20   H     H_    0.384191 0.988705 0.867293 0.177703
H21   H     H_    0.497379 0.882432 0.367456 0.180029
H22   H     H_    0.115840 0.509070 0.367465 0.178291
H23   H     H_    0.501803 0.116737 0.367083 0.179367
H24   H     H_    0.883912 0.487458 0.367580 0.178701
H25   H     H_    0.453655 0.892497 0.131388 0.175857
H26   H     H_    0.114822 0.478681 0.131880 0.168774
H27   H     H_    0.544987 0.107504 0.132493 0.174018
H28   H     H_    0.884887 0.515089 0.132283 0.171855
H29   H     H_    0.953778 0.392360 0.631414 0.175724
H30   H     H_    0.613890 0.972460 0.631644 0.170670
H31   H     H_    0.044109 0.607844 0.632519 0.174428
H32   H     H_    0.386250 0.022860 0.632724 0.175045
O1    O     O_3   0.500000 0.000000 0.000020 -0.495260
O2    O     O_3   0.000000 0.500000 0.000020 -0.490604
O3    O     O_3   0.000000 0.500000 0.500020 -0.495182
O4    O     O_3   0.500000 0.000000 0.500020 -0.490509
O5    O     O_R   0.439230 0.000000 0.925200 -0.655270
O6    O     O_R   0.000000 0.439230 0.925200 -0.655231
O7    O     O_R   0.560770 0.000000 0.925200 -0.655305
O8    O     O_R   0.000000 0.560770 0.925200 -0.654715
O9    O     O_R   0.939230 0.500000 0.425200 -0.655368
O10   O     O_R   0.500000 0.939230 0.425200 -0.655167
O11   O     O_R   0.060770 0.500000 0.425200 -0.655228
O12   O     O_R   0.500000 0.060770 0.425200 -0.654604
O13   O     O_R   0.500000 0.939250 0.074840 -0.649574
O14   O     O_R   0.060750 0.500000 0.074840 -0.661882
O15   O     O_R   0.500000 0.060750 0.074840 -0.652893
O16   O     O_R   0.939250 0.500000 0.074840 -0.666591
O17   O     O_R   0.000000 0.439250 0.574840 -0.649574
O18   O     O_R   0.560750 0.000000 0.574840 -0.661405
O19   O     O_R   0.000000 0.560750 0.574840 -0.652973
O20   O     O_R   0.439250 0.000000 0.574840 -0.665580
O21   O     O_R   0.646140 0.914530 0.980400 -0.634712
O22   O     O_R   0.085470 0.646140 0.980400 -0.641088
O23   O     O_R   0.353860 0.085470 0.980400 -0.634021
O24   O     O_R   0.914530 0.353860 0.980400 -0.635802
O25   O     O_R   0.646140 0.085470 0.980400 -0.624970
O26   O     O_R   0.085470 0.353860 0.980400 -0.624978
O27   O     O_R   0.353860 0.914530 0.980400 -0.628605
O28   O     O_R   0.914530 0.646140 0.980400 -0.624872
O29   O     O_R   0.146140 0.414530 0.480400 -0.635005
O30   O     O_R   0.585470 0.146140 0.480400 -0.640959
O31   O     O_R   0.853860 0.585470 0.480400 -0.633623
O32   O     O_R   0.414530 0.853860 0.480400 -0.635685
O33   O     O_R   0.146140 0.585470 0.480400 -0.624731
O34   O     O_R   0.585470 0.853860 0.480400 -0.624712
O35   O     O_R   0.853860 0.414530 0.480400 -0.628510
O36   O     O_R   0.414530 0.146140 0.480400 -0.625297
O37   O     O_R   0.414550 0.146130 0.019630 -0.611385
O38   O     O_R   0.853870 0.414550 0.019630 -0.622632
O39   O     O_R   0.585450 0.853870 0.019630 -0.609287
O40   O     O_R   0.146130 0.585450 0.019630 -0.615905
O41   O     O_R   0.414550 0.853870 0.019630 -0.605009
O42   O     O_R   0.853870 0.585450 0.019630 -0.623136
O43   O     O_R   0.585450 0.146130 0.019630 -0.616087
O44   O     O_R   0.146130 0.414550 0.019630 -0.620075
O45   O     O_R   0.914550 0.646130 0.519630 -0.611456
O46   O     O_R   0.353870 0.914550 0.519630 -0.625111
O47   O     O_R   0.085450 0.353870 0.519630 -0.609070
O48   O     O_R   0.646130 0.085450 0.519630 -0.615815
O49   O     O_R   0.914550 0.353870 0.519630 -0.605276
O50   O     O_R   0.353870 0.085450 0.519630 -0.622964
O51   O     O_R   0.085450 0.646130 0.519630 -0.617392
O52   O     O_R   0.646130 0.914550 0.519630 -0.620201
Zn1   Zn    Zn3+2 0.500000 0.913220 0.028040 0.969042
Zn2   Zn    Zn3+2 0.086780 0.500000 0.028040 0.954079
Zn3   Zn    Zn3+2 0.500000 0.086780 0.028040 0.962676
Zn4   Zn    Zn3+2 0.913220 0.500000 0.028040 0.949082
Zn5   Zn    Zn3+2 0.000000 0.413220 0.528040 0.968953
Zn6   Zn    Zn3+2 0.586780 0.000000 0.528040 0.954168
Zn7   Zn    Zn3+2 0.000000 0.586780 0.528040 0.962611
Zn8   Zn    Zn3+2 0.413220 0.000000 0.528040 0.947696
Zn9   Zn    Zn3+2 0.586730 0.000000 0.971990 0.953944
Zn10  Zn    Zn3+2 1.000000 0.586730 0.971990 0.956910
Zn11  Zn    Zn3+2 0.413270 0.000000 0.971990 0.952943
Zn12  Zn    Zn3+2 0.000000 0.413270 0.971990 0.957462
Zn13  Zn    Zn3+2 0.086730 0.500000 0.471990 0.953990
Zn14  Zn    Zn3+2 0.500000 0.086730 0.471990 0.956896
Zn15  Zn    Zn3+2 0.913270 0.500000 0.471990 0.953222
Zn16  Zn    Zn3+2 0.500000 0.913270 0.471990 0.957472
O53   O     O_3   0.365262 0.739205 0.047221 -0.614761
C145  C     C_3   0.411467 0.683983 0.034882 0.138654
H33   H     H_    0.443689 0.705246 0.013300 0.132261
H34   H     H_    0.380961 0.634882 0.026332 0.136764
C146  C     C_3   0.462870 0.660900 0.063122 -0.291081
H35   H     H_    0.497205 0.707866 0.070744 0.245870
H36   H     H_    0.430603 0.643366 0.085337 0.224394
C147  C     C_3   0.511287 0.598065 0.052075 -1.016854
H37   H     H_    0.478017 0.550941 0.043765 0.264407
H38   H     H_    0.545133 0.580496 0.073689 0.266826
H39   H     H_    0.547246 0.615451 0.031109 0.266268
O54   O     O_3   0.232003 0.340817 0.058262 -0.620376
C148  C     C_3   0.287321 0.393670 0.060700 0.140365
H40   H     H_    0.294699 0.423284 0.036369 0.123736
H41   H     H_    0.339056 0.367637 0.068060 0.177861
C149  C     C_3   0.266810 0.448688 0.088026 -0.313770
H42   H     H_    0.217133 0.478279 0.080162 0.254958
H43   H     H_    0.255049 0.419559 0.111986 0.219622
C150  C     C_3   0.327601 0.503411 0.094255 -0.969177
H44   H     H_    0.376881 0.475337 0.103582 0.264033
H45   H     H_    0.310244 0.543318 0.113659 0.259637
H46   H     H_    0.340853 0.532923 0.070625 0.297601
O55   O     O_3   0.648531 0.245862 0.054100 -0.623475
C151  C     C_3   0.597139 0.301681 0.049084 0.137751
H47   H     H_    0.563526 0.289809 0.026375 0.133837
H48   H     H_    0.623498 0.355686 0.045748 0.152329
C152  C     C_3   0.548005 0.305471 0.079967 -0.292400
H49   H     H_    0.517243 0.253704 0.082354 0.241498
H50   H     H_    0.581789 0.312691 0.102941 0.223066
C153  C     C_3   0.495047 0.368752 0.077358 -0.992221
H51   H     H_    0.524673 0.421358 0.077689 0.267227
H52   H     H_    0.457408 0.367352 0.099163 0.267803
H53   H     H_    0.463274 0.364666 0.053629 0.265825
O56   O     O_3   0.770153 0.661010 0.058725 -0.624150
C154  C     C_3   0.714733 0.608729 0.062861 0.136064
H54   H     H_    0.700122 0.581976 0.038476 0.121408
H55   H     H_    0.665932 0.634818 0.073843 0.184610
C155  C     C_3   0.741410 0.550218 0.087343 -0.310943
H56   H     H_    0.787876 0.520835 0.075891 0.267891
H57   H     H_    0.760261 0.576293 0.111111 0.219680
C156  C     C_3   0.681950 0.495510 0.095754 -0.965536
H58   H     H_    0.636996 0.522763 0.109384 0.254352
H59   H     H_    0.704306 0.452245 0.112263 0.269195
H60   H     H_    0.660734 0.470120 0.072322 0.281346
O57   O     O_3   0.339842 0.234599 0.058833 -0.628781
C157  C     C_3   0.307993 0.183253 0.080809 0.143549
H61   H     H_    0.253390 0.201914 0.089116 0.151006
H62   H     H_    0.302680 0.129317 0.068173 0.118608
C158  C     C_3   0.355994 0.174320 0.111977 -0.335690
H63   H     H_    0.412057 0.160728 0.104035 0.245841
H64   H     H_    0.357690 0.226398 0.126240 0.213392
C159  C     C_3   0.327511 0.114026 0.134912 -0.963893
H65   H     H_    0.271417 0.126487 0.143198 0.267527
H66   H     H_    0.362392 0.109186 0.157600 0.260040
H67   H     H_    0.327955 0.061053 0.121392 0.266144
O58   O     O_3   0.251682 0.643571 0.052840 -0.626548
C160  C     C_3   0.208820 0.663942 0.080953 0.143986
H68   H     H_    0.158431 0.693744 0.073766 0.107021
H69   H     H_    0.190762 0.613107 0.093552 0.163897
C161  C     C_3   0.253291 0.708849 0.106217 -0.348108
H70   H     H_    0.304934 0.680360 0.111812 0.238544
H71   H     H_    0.266135 0.762832 0.095175 0.239720
C162  C     C_3   0.212010 0.720597 0.139079 -1.000325
H72   H     H_    0.160737 0.750350 0.134179 0.272369
H73   H     H_    0.245694 0.753056 0.156788 0.275780
H74   H     H_    0.199477 0.667567 0.151039 0.258737
O59   O     O_3   0.659693 0.765024 0.058647 -0.633438
C163  C     C_3   0.690759 0.816441 0.080888 0.137157
H75   H     H_    0.745584 0.798453 0.089223 0.151986
H76   H     H_    0.695336 0.870643 0.068486 0.121213
C164  C     C_3   0.642413 0.823987 0.111993 -0.339958
H77   H     H_    0.586196 0.836898 0.103988 0.249373
H78   H     H_    0.641384 0.771545 0.125934 0.212419
C165  C     C_3   0.669741 0.884073 0.135405 -0.958936
H79   H     H_    0.726035 0.872397 0.143679 0.266966
H80   H     H_    0.634684 0.887469 0.158082 0.260687
H81   H     H_    0.668345 0.937434 0.122280 0.267154
O60   O     O_3   0.758538 0.346995 0.056587 -0.627580
C166  C     C_3   0.811088 0.324396 0.080451 0.139983
H82   H     H_    0.855041 0.289815 0.069588 0.100993
H83   H     H_    0.837872 0.374142 0.090432 0.167498
C167  C     C_3   0.774576 0.284720 0.109838 -0.349133
H84   H     H_    0.731091 0.319486 0.120574 0.223106
H85   H     H_    0.749765 0.233367 0.100618 0.250543
C168  C     C_3   0.829032 0.266478 0.137535 -0.988958
H86   H     H_    0.870739 0.228397 0.127758 0.272928
H87   H     H_    0.800564 0.240283 0.159010 0.275578
H88   H     H_    0.856036 0.316667 0.146769 0.254843
O61   O     O_3   0.864922 0.239637 0.547461 -0.615205
C169  C     C_3   0.911333 0.184392 0.535314 0.139150
H89   H     H_    0.943951 0.205630 0.513858 0.132760
H90   H     H_    0.881014 0.135273 0.526644 0.137572
C170  C     C_3   0.962201 0.161361 0.563766 -0.291468
H91   H     H_    0.996572 0.208274 0.571426 0.245163
H92   H     H_    0.929547 0.144093 0.585900 0.224130
C171  C     C_3   0.010558 0.098282 0.552997 -1.017972
H93   H     H_    0.977267 0.051125 0.544749 0.264345
H94   H     H_    0.044097 0.080957 0.574752 0.268142
H95   H     H_    0.046769 0.115308 0.532064 0.266312
O62   O     O_3   0.731698 0.840463 0.558341 -0.620200
C172  C     C_3   0.786983 0.893332 0.560850 0.141724
H96   H     H_    0.793803 0.923566 0.536650 0.124781
H97   H     H_    0.838921 0.867235 0.567830 0.176643
C173  C     C_3   0.766949 0.947595 0.588569 -0.314479
H98   H     H_    0.717003 0.977214 0.581115 0.253011
H99   H     H_    0.755843 0.917828 0.612428 0.219404
C174  C     C_3   0.827734 0.002341 0.594780 -0.972281
H100  H     H_    0.877342 0.974157 0.603660 0.265074
H101  H     H_    0.810740 0.041680 0.614502 0.259192
H102  H     H_    0.840288 0.032538 0.571253 0.298161
O63   O     O_3   0.149894 0.744638 0.554666 -0.621589
C175  C     C_3   0.098060 0.800137 0.549874 0.138582
H103  H     H_    0.064268 0.788208 0.527228 0.134840
H104  H     H_    0.124048 0.854298 0.546528 0.152589
C176  C     C_3   0.049232 0.803507 0.580880 -0.290202
H105  H     H_    0.019961 0.750969 0.583700 0.241026
H106  H     H_    0.083056 0.812469 0.603722 0.219554
C177  C     C_3   0.994414 0.865108 0.577931 -0.990919
H107  H     H_    0.022453 0.918581 0.577892 0.266316
H108  H     H_    0.956844 0.863264 0.599753 0.269462
H109  H     H_    0.962715 0.859352 0.554253 0.266896
O64   O     O_3   0.268766 0.159413 0.558356 -0.623128
C178  C     C_3   0.211950 0.108489 0.562129 0.138469
H110  H     H_    0.194058 0.085452 0.537393 0.116551
H111  H     H_    0.165236 0.134830 0.574822 0.186379
C179  C     C_3   0.238401 0.045825 0.584358 -0.311798
H112  H     H_    0.282855 0.016511 0.571258 0.273037
H113  H     H_    0.259964 0.067787 0.608513 0.215153
C180  C     C_3   0.177544 0.992172 0.592077 -0.971088
H114  H     H_    0.136046 0.018236 0.608335 0.254748
H115  H     H_    0.199720 0.944328 0.605637 0.285816
H116  H     H_    0.151837 0.973224 0.568318 0.274099
O65   O     O_3   0.839071 0.733864 0.559039 -0.628211
C181  C     C_3   0.806917 0.681945 0.580631 0.144159
H117  H     H_    0.752172 0.700367 0.588849 0.150399
H118  H     H_    0.801825 0.628326 0.567695 0.118187
C182  C     C_3   0.854411 0.672198 0.611912 -0.334303
H119  H     H_    0.910709 0.659273 0.604093 0.246565
H120  H     H_    0.855484 0.723752 0.626588 0.212772
C183  C     C_3   0.825886 0.610868 0.634241 -0.964018
H121  H     H_    0.769608 0.622730 0.642445 0.267572
H122  H     H_    0.860447 0.605267 0.656992 0.260223
H123  H     H_    0.826788 0.558436 0.620279 0.265710
O66   O     O_3   0.751921 0.143210 0.552693 -0.627597
C184  C     C_3   0.709015 0.162839 0.580899 0.145764
H124  H     H_    0.658688 0.192948 0.573895 0.105825
H125  H     H_    0.690858 0.111657 0.593159 0.166160
C185  C     C_3   0.753527 0.206921 0.606445 -0.347978
H126  H     H_    0.805597 0.178750 0.611474 0.239454
H127  H     H_    0.765537 0.261587 0.595925 0.238589
C186  C     C_3   0.712888 0.216390 0.639641 -0.998893
H128  H     H_    0.660894 0.245280 0.635316 0.272364
H129  H     H_    0.746374 0.248763 0.657464 0.275199
H130  H     H_    0.701792 0.162574 0.651169 0.258388
O67   O     O_3   0.159255 0.264608 0.558534 -0.633684
C187  C     C_3   0.190311 0.315637 0.580969 0.135834
H131  H     H_    0.244971 0.297301 0.589380 0.151594
H132  H     H_    0.195259 0.369961 0.568707 0.121849
C188  C     C_3   0.141701 0.323066 0.611990 -0.339868
H133  H     H_    0.085632 0.336370 0.603901 0.249249
H134  H     H_    0.140266 0.270469 0.625796 0.212279
C189  C     C_3   0.169133 0.382736 0.635606 -0.958007
H135  H     H_    0.225301 0.370683 0.643948 0.267280
H136  H     H_    0.133920 0.386043 0.658231 0.260450
H137  H     H_    0.168107 0.436260 0.622616 0.267079
O68   O     O_3   0.259812 0.845684 0.557095 -0.628763
C190  C     C_3   0.314665 0.824241 0.580042 0.134380
H138  H     H_    0.361971 0.797376 0.567711 0.103559
H139  H     H_    0.335904 0.874396 0.592227 0.166239
C191  C     C_3   0.283381 0.774715 0.607442 -0.346170
H140  H     H_    0.235960 0.801615 0.619345 0.237191
H141  H     H_    0.265053 0.722730 0.595946 0.241337
C192  C     C_3   0.339849 0.757954 0.634475 -0.982433
H142  H     H_    0.386732 0.729041 0.623146 0.271062
H143  H     H_    0.315449 0.722677 0.654158 0.273702
H144  H     H_    0.359116 0.808975 0.646568 0.266198
O69   O     O_3   0.081935 0.817626 0.954595 -0.627361
C193  C     C_3   0.066500 0.858580 0.984284 0.198892
H145  H     H_    0.031486 0.904937 0.976798 0.109355
H146  H     H_    0.115024 0.883476 0.996101 0.172992
C194  C     C_3   0.025166 0.812694 0.010307 -0.327828
H147  H     H_    0.971979 0.796160 0.999983 0.267511
H148  H     H_    0.055192 0.762501 0.016470 0.226410
C195  C     C_3   0.013524 0.854710 0.043015 -1.054534
H149  H     H_    0.066232 0.864059 0.055857 0.281074
H150  H     H_    0.977887 0.822972 0.060112 0.279276
H151  H     H_    0.987704 0.907861 0.037712 0.272165
O70   O     O_3   0.191014 0.087920 0.954227 -0.621211
C196  C     C_3   0.150072 0.079523 0.984512 0.214952
H152  H     H_    0.099784 0.049486 0.977868 0.123071
H153  H     H_    0.132213 0.131146 0.996316 0.164719
C197  C     C_3   0.192005 0.034812 0.010717 -0.333983
H154  H     H_    0.209403 0.982328 0.999790 0.281596
H155  H     H_    0.241073 0.064274 0.018811 0.207431
C198  C     C_3   0.146551 0.020159 0.042073 -1.061098
H156  H     H_    0.134208 0.072062 0.055227 0.279015
H157  H     H_    0.177131 0.984500 0.059626 0.278536
H158  H     H_    0.095253 0.992580 0.035081 0.270931
O71   O     O_3   0.912252 0.187923 0.953861 -0.627589
C199  C     C_3   0.921713 0.147247 0.984166 0.197679
H159  H     H_    0.951468 0.096755 0.977474 0.118371
H160  H     H_    0.870672 0.129169 0.996282 0.171961
C200  C     C_3   0.967203 0.189971 0.009823 -0.333540
H161  H     H_    0.019592 0.205874 0.998496 0.276761
H162  H     H_    0.938806 0.240144 0.017439 0.215941
C201  C     C_3   0.981522 0.145608 0.041588 -1.057651
H163  H     H_    0.929918 0.135000 0.055119 0.280900
H164  H     H_    0.018258 0.176340 0.058631 0.279024
H165  H     H_    0.007475 0.093174 0.034966 0.271948
O72   O     O_3   0.806173 0.910753 0.953085 -0.625224
C202  C     C_3   0.847259 0.920640 0.983268 0.206642
H166  H     H_    0.897513 0.950280 0.976298 0.119378
H167  H     H_    0.865074 0.869659 0.995605 0.164310
C203  C     C_3   0.805482 0.966721 0.009010 -0.330332
H168  H     H_    0.787214 0.018136 0.997376 0.283646
H169  H     H_    0.757087 0.937253 0.017854 0.208238
C204  C     C_3   0.851464 0.984202 0.039904 -1.064730
H170  H     H_    0.863154 0.933646 0.054223 0.279523
H171  H     H_    0.821608 0.022216 0.056655 0.278983
H172  H     H_    0.903029 0.010159 0.032174 0.271540
O73   O     O_3   0.094501 0.203229 0.947336 -0.626363
C205  C     C_3   0.068345 0.176431 0.916133 0.151525
H173  H     H_    0.027579 0.133683 0.921747 0.172179
H174  H     H_    0.110864 0.149600 0.900461 0.104784
C206  C     C_3   0.032096 0.237583 0.896106 -0.309242
H175  H     H_    0.992571 0.266583 0.912390 0.277419
H176  H     H_    0.073748 0.277371 0.887847 0.182786
C207  C     C_3   0.992904 0.207760 0.865125 -1.012109
H177  H     H_    0.032095 0.181173 0.847817 0.258330
H178  H     H_    0.965689 0.252839 0.851515 0.285381
H179  H     H_    0.951123 0.167596 0.872739 0.266379
O74   O     O_3   0.197171 0.911541 0.948291 -0.620653
C208  C     C_3   0.175070 0.931551 0.915404 0.165372
H180  H     H_    0.131619 0.972926 0.918069 0.167404
H181  H     H_    0.151149 0.885727 0.900655 0.105582
C209  C     C_3   0.238538 0.964905 0.895999 -0.322201
H182  H     H_    0.265506 0.007061 0.911704 0.279201
H183  H     H_    0.278866 0.921863 0.890287 0.183204
C210  C     C_3   0.212959 0.999426 0.863064 -1.006820
H184  H     H_    0.188085 0.957593 0.846444 0.260799
H185  H     H_    0.259671 0.024174 0.849714 0.288606
H186  H     H_    0.172688 0.042854 0.868261 0.264532
O75   O     O_3   0.903768 0.796417 0.946588 -0.624137
C211  C     C_3   0.929071 0.822460 0.915134 0.156165
H187  H     H_    0.968365 0.866866 0.920276 0.171449
H188  H     H_    0.885749 0.846927 0.899116 0.100957
C212  C     C_3   0.967251 0.761491 0.895794 -0.308104
H189  H     H_    0.007888 0.734811 0.912344 0.276509
H190  H     H_    0.926832 0.719881 0.888109 0.183123
C213  C     C_3   0.005130 0.790851 0.864415 -1.012384
H191  H     H_    0.964937 0.815357 0.846934 0.258497
H192  H     H_    0.033442 0.745900 0.851184 0.285484
H193  H     H_    0.045817 0.832639 0.871524 0.266323
O76   O     O_3   0.796500 0.092530 0.947168 -0.625289
C214  C     C_3   0.822059 0.067026 0.915652 0.154091
H194  H     H_    0.863734 0.024913 0.920728 0.170472
H195  H     H_    0.849419 0.109868 0.900357 0.105106
C215  C     C_3   0.760080 0.032969 0.895387 -0.314916
H196  H     H_    0.730628 0.992913 0.911256 0.278417
H197  H     H_    0.721328 0.076108 0.887797 0.181513
C216  C     C_3   0.788318 0.994923 0.863792 -1.003916
H198  H     H_    0.815644 0.034704 0.846979 0.259641
H199  H     H_    0.742515 0.969767 0.849867 0.288826
H200  H     H_    0.827194 0.951404 0.870738 0.264462
O77   O     O_3   0.581947 0.317536 0.454561 -0.627232
C217  C     C_3   0.566482 0.358591 0.484217 0.199367
H201  H     H_    0.531416 0.404879 0.476692 0.109588
H202  H     H_    0.614988 0.383583 0.496004 0.172712
C218  C     C_3   0.525212 0.312775 0.510292 -0.327919
H203  H     H_    0.472114 0.295965 0.499963 0.267906
H204  H     H_    0.555384 0.262734 0.516569 0.226033
C219  C     C_3   0.513309 0.355031 0.542913 -1.054231
H205  H     H_    0.565938 0.364678 0.555776 0.281258
H206  H     H_    0.477723 0.323315 0.560042 0.279212
H207  H     H_    0.487319 0.408043 0.537490 0.271981
O78   O     O_3   0.691380 0.588120 0.454052 -0.620696
C220  C     C_3   0.650229 0.579697 0.484276 0.215028
H208  H     H_    0.599920 0.549780 0.477548 0.122898
H209  H     H_    0.632420 0.631306 0.496105 0.164555
C221  C     C_3   0.691909 0.534845 0.510512 -0.333924
H210  H     H_    0.709159 0.482295 0.499609 0.281600
H211  H     H_    0.741057 0.564127 0.518632 0.207472
C222  C     C_3   0.646291 0.520388 0.541836 -1.061392
H212  H     H_    0.634070 0.572351 0.554964 0.278973
H213  H     H_    0.676689 0.484653 0.559425 0.278601
H214  H     H_    0.594928 0.492973 0.534809 0.270917
O79   O     O_3   0.412172 0.687890 0.453716 -0.627504
C223  C     C_3   0.421758 0.647203 0.484015 0.197754
H215  H     H_    0.451485 0.596706 0.477306 0.117818
H216  H     H_    0.370757 0.629117 0.496162 0.172077
C224  C     C_3   0.467366 0.689904 0.509639 -0.333723
H217  H     H_    0.519962 0.705252 0.498364 0.276104
H218  H     H_    0.439330 0.740393 0.517061 0.216940
C225  C     C_3   0.481084 0.645885 0.541563 -1.058061
H219  H     H_    0.429273 0.635752 0.555003 0.281512
H220  H     H_    0.517792 0.676646 0.558608 0.278822
H221  H     H_    0.506841 0.593232 0.535153 0.272245
O80   O     O_3   0.306415 0.411112 0.453108 -0.625166
C226  C     C_3   0.347430 0.421204 0.483296 0.206517
H222  H     H_    0.397536 0.451104 0.476333 0.119137
H223  H     H_    0.365521 0.370297 0.495615 0.164478
C227  C     C_3   0.305413 0.467079 0.509034 -0.330423
H224  H     H_    0.287083 0.518498 0.497420 0.283328
H225  H     H_    0.257046 0.437466 0.517807 0.208774
C228  C     C_3   0.351197 0.484551 0.539993 -1.064435
H226  H     H_    0.362875 0.433979 0.554303 0.279572
H227  H     H_    0.321206 0.522498 0.556724 0.278995
H228  H     H_    0.402773 0.510574 0.532336 0.271643
O81   O     O_3   0.594742 0.703447 0.447217 -0.626724
C229  C     C_3   0.568586 0.676562 0.416032 0.151022
H229  H     H_    0.527934 0.633721 0.421677 0.172097
H230  H     H_    0.611130 0.649833 0.400337 0.104724
C230  C     C_3   0.532139 0.737615 0.396024 -0.308650
H231  H     H_    0.492659 0.766589 0.412343 0.277512
H232  H     H_    0.573695 0.777444 0.387704 0.182548
C231  C     C_3   0.492817 0.707666 0.365105 -1.012288
H233  H     H_    0.531948 0.681086 0.347766 0.258023
H234  H     H_    0.465463 0.752676 0.351506 0.285321
H235  H     H_    0.451134 0.667463 0.372791 0.266535
O82   O     O_3   0.697246 0.411427 0.448192 -0.620769
C232  C     C_3   0.674970 0.431250 0.415305 0.164444
H236  H     H_    0.631712 0.472828 0.417975 0.167488
H237  H     H_    0.650738 0.385400 0.400689 0.106144
C233  C     C_3   0.738400 0.464163 0.395709 -0.322376
H238  H     H_    0.765866 0.506126 0.411345 0.278824
H239  H     H_    0.778322 0.420830 0.389832 0.183130
C234  C     C_3   0.712601 0.498899 0.362862 -1.005423
H240  H     H_    0.686836 0.457346 0.346387 0.260309
H241  H     H_    0.759361 0.522982 0.349290 0.289647
H242  H     H_    0.673002 0.542863 0.368207 0.264172
O83   O     O_3   0.404021 0.296816 0.446607 -0.624133
C235  C     C_3   0.429129 0.322783 0.415104 0.156546
H243  H     H_    0.468456 0.367197 0.420177 0.171207
H244  H     H_    0.385712 0.347233 0.399132 0.101094
C236  C     C_3   0.467206 0.261775 0.395737 -0.308066
H245  H     H_    0.507848 0.235043 0.412267 0.276560
H246  H     H_    0.426748 0.220196 0.388053 0.183267
C237  C     C_3   0.505066 0.291125 0.364352 -1.013426
H247  H     H_    0.464855 0.315588 0.346867 0.258391
H248  H     H_    0.533418 0.246179 0.351137 0.285339
H249  H     H_    0.545724 0.332950 0.371445 0.266357
O84   O     O_3   0.296387 0.592592 0.447043 -0.624885
C238  C     C_3   0.321721 0.567210 0.415466 0.154481
H250  H     H_    0.363455 0.525097 0.420437 0.170522
H251  H     H_    0.348937 0.610125 0.400158 0.105040
C239  C     C_3   0.259605 0.533190 0.395277 -0.315506
H252  H     H_    0.230422 0.492919 0.411138 0.278241
H253  H     H_    0.220676 0.576309 0.387862 0.181877
C240  C     C_3   0.287590 0.495499 0.363540 -1.003512
H254  H     H_    0.314684 0.535489 0.346753 0.259934
H255  H     H_    0.241687 0.470427 0.349654 0.288724
H256  H     H_    0.326596 0.451962 0.370314 0.264357
O85   O     O_3   0.997521 0.367745 0.801118 -0.632064
C241  C     C_3   0.065146 0.331682 0.802874 0.073360
H257  H     H_    0.054813 0.272858 0.798612 0.174579
H258  H     H_    0.091592 0.336155 0.828108 0.124892
C242  C     C_3   0.116332 0.358897 0.775154 -0.362737
H259  H     H_    0.088621 0.355738 0.750285 0.233751
H260  H     H_    0.131053 0.416547 0.780083 0.217063
C243  C     C_3   0.185522 0.313696 0.773813 -0.947550
H261  H     H_    0.214587 0.316707 0.798335 0.262666
H262  H     H_    0.221573 0.335082 0.753710 0.271008
H263  H     H_    0.172558 0.255995 0.768024 0.265443
O86   O     O_3   0.631011 0.010523 0.801318 -0.640673
C244  C     C_3   0.661397 0.080915 0.804780 0.064102
H264  H     H_    0.720069 0.076468 0.798960 0.173677
H265  H     H_    0.657877 0.102780 0.830960 0.126418
C245  C     C_3   0.626746 0.134197 0.779775 -0.363031
H266  H     H_    0.626956 0.110071 0.754096 0.237218
H267  H     H_    0.569613 0.144530 0.787142 0.214166
C246  C     C_3   0.667516 0.206384 0.778979 -0.947055
H268  H     H_    0.667368 0.231942 0.804394 0.262583
H269  H     H_    0.640767 0.243849 0.760892 0.268853
H270  H     H_    0.724346 0.197741 0.770713 0.266894
O87   O     O_3   0.997468 0.630327 0.800674 -0.634066
C247  C     C_3   0.929931 0.666257 0.803511 0.069186
H271  H     H_    0.939083 0.724370 0.797141 0.173663
H272  H     H_    0.907756 0.665367 0.829657 0.128645
C248  C     C_3   0.874473 0.634867 0.778559 -0.368996
H273  H     H_    0.898008 0.633941 0.752774 0.226505
H274  H     H_    0.860694 0.578180 0.785852 0.217546
C249  C     C_3   0.805163 0.679971 0.778103 -0.946132
H275  H     H_    0.780213 0.681020 0.803601 0.261907
H276  H     H_    0.765957 0.655540 0.760091 0.270573
H277  H     H_    0.817025 0.736537 0.769945 0.264169
O88   O     O_3   0.371335 0.980383 0.800556 -0.640935
C250  C     C_3   0.339925 0.911052 0.806040 0.062064
H278  H     H_    0.283633 0.913225 0.796162 0.172819
H279  H     H_    0.335408 0.897199 0.833284 0.132990
C251  C     C_3   0.381119 0.851058 0.787096 -0.379287
H280  H     H_    0.389290 0.867434 0.760438 0.221098
H281  H     H_    0.435192 0.842975 0.798841 0.215829
C252  C     C_3   0.339835 0.779166 0.787976 -0.941685
H282  H     H_    0.331373 0.761444 0.814479 0.260720
H283  H     H_    0.371440 0.736740 0.774540 0.268518
H284  H     H_    0.286472 0.785061 0.775293 0.266035
O89   O     O_3   0.497510 0.867605 0.301157 -0.632145
C253  C     C_3   0.565019 0.831331 0.302960 0.073294
H285  H     H_    0.554518 0.772545 0.298677 0.174417
H286  H     H_    0.591375 0.835708 0.328217 0.124973
C254  C     C_3   0.616409 0.858399 0.275291 -0.361694
H287  H     H_    0.588775 0.855404 0.250399 0.233495
H288  H     H_    0.631346 0.915978 0.280257 0.217059
C255  C     C_3   0.685422 0.812920 0.273981 -0.950933
H289  H     H_    0.714406 0.815752 0.298529 0.262950
H290  H     H_    0.721635 0.834209 0.253920 0.270855
H291  H     H_    0.672249 0.755286 0.268151 0.264495
O90   O     O_3   0.129717 0.511674 0.301011 -0.639853
C256  C     C_3   0.159310 0.582356 0.304768 0.066237
H292  H     H_    0.217857 0.578903 0.298554 0.172429
H293  H     H_    0.156381 0.603315 0.331118 0.126115
C257  C     C_3   0.123146 0.636027 0.280411 -0.364436
H294  H     H_    0.122802 0.612798 0.254557 0.237306
H295  H     H_    0.066127 0.645331 0.288252 0.213607
C258  C     C_3   0.162922 0.708782 0.279885 -0.947919
H296  H     H_    0.163135 0.733499 0.305478 0.262466
H297  H     H_    0.135175 0.746466 0.262228 0.268505
H298  H     H_    0.219631 0.701194 0.271229 0.267370
O91   O     O_3   0.499020 0.130194 0.300632 -0.633374
C259  C     C_3   0.431614 0.166463 0.303178 0.069874
H299  H     H_    0.441300 0.224654 0.297142 0.173778
H300  H     H_    0.408556 0.165137 0.329158 0.128226
C260  C     C_3   0.376849 0.135947 0.277675 -0.367695
H301  H     H_    0.401249 0.135554 0.252059 0.227800
H302  H     H_    0.362577 0.079153 0.284574 0.217410
C261  C     C_3   0.307765 0.181382 0.276958 -0.947107
H303  H     H_    0.281964 0.181913 0.302275 0.262172
H304  H     H_    0.269062 0.157584 0.258532 0.270597
H305  H     H_    0.320152 0.238093 0.269193 0.264206
O92   O     O_3   0.870107 0.479047 0.301158 -0.637786
C262  C     C_3   0.840259 0.408866 0.306153 0.068222
H306  H     H_    0.781875 0.411860 0.299524 0.172337
H307  H     H_    0.842575 0.390534 0.332919 0.126455
C263  C     C_3   0.876735 0.352770 0.283091 -0.365007
H308  H     H_    0.877336 0.373331 0.256778 0.236811
H309  H     H_    0.933668 0.344302 0.291303 0.213355
C264  C     C_3   0.836990 0.280015 0.283988 -0.949823
H310  H     H_    0.836688 0.257863 0.310061 0.262175
H311  H     H_    0.864826 0.240635 0.267168 0.268422
H312  H     H_    0.780310 0.286695 0.275092 0.268126
O93   O     O_3   0.447461 0.878003 0.198668 -0.628740
C265  C     C_3   0.479513 0.811286 0.188680 0.082616
H313  H     H_    0.501400 0.784693 0.211694 0.166161
H314  H     H_    0.526215 0.817126 0.171043 0.121601
C266  C     C_3   0.421958 0.761171 0.173269 -0.325671
H315  H     H_    0.379571 0.749457 0.192424 0.235524
H316  H     H_    0.395565 0.788290 0.151468 0.222402
C267  C     C_3   0.455174 0.689646 0.161335 -0.979699
H317  H     H_    0.497117 0.700057 0.141830 0.262056
H318  H     H_    0.412420 0.654676 0.150141 0.260799
H319  H     H_    0.480058 0.660292 0.182910 0.270549
O94   O     O_3   0.129708 0.476697 0.198761 -0.624124
C268  C     C_3   0.179268 0.533346 0.191692 0.070154
H320  H     H_    0.153798 0.587445 0.196224 0.130764
H321  H     H_    0.198638 0.530266 0.165156 0.132259
C269  C     C_3   0.245222 0.525762 0.214693 -0.294708
H322  H     H_    0.227571 0.525717 0.241453 0.248001
H323  H     H_    0.272654 0.473169 0.209417 0.225969
C270  C     C_3   0.298814 0.587879 0.209136 -0.994349
H324  H     H_    0.317803 0.588071 0.182551 0.271990
H325  H     H_    0.346348 0.580775 0.225990 0.270885
H326  H     H_    0.272948 0.640974 0.214927 0.271323
O95   O     O_3   0.551538 0.118985 0.199374 -0.626876
C271  C     C_3   0.512429 0.183925 0.193165 0.088372
H327  H     H_    0.490478 0.203313 0.217665 0.171498
H328  H     H_    0.465191 0.177622 0.175822 0.117021
C272  C     C_3   0.563583 0.242069 0.179223 -0.334481
H329  H     H_    0.609266 0.250398 0.197105 0.244495
H330  H     H_    0.586215 0.223703 0.154691 0.213300
C273  C     C_3   0.524165 0.314178 0.174105 -0.987996
H331  H     H_    0.478189 0.307025 0.156307 0.266431
H332  H     H_    0.562061 0.355035 0.163453 0.270460
H333  H     H_    0.503356 0.334903 0.198584 0.270465
O96   O     O_3   0.869661 0.508000 0.198659 -0.624295
C274  C     C_3   0.824607 0.447594 0.191635 0.075160
H334  H     H_    0.853061 0.395860 0.197868 0.132619
H335  H     H_    0.808059 0.446656 0.164615 0.135774
C275  C     C_3   0.755933 0.452785 0.212933 -0.291438
H336  H     H_    0.770663 0.456522 0.240052 0.245331
H337  H     H_    0.725670 0.502802 0.205925 0.224878
C276  C     C_3   0.707298 0.386615 0.207461 -0.998287
H338  H     H_    0.691760 0.382128 0.180448 0.267743
H339  H     H_    0.657353 0.392247 0.222823 0.273307
H340  H     H_    0.735815 0.336141 0.215225 0.271835
O97   O     O_3   0.947069 0.378197 0.698737 -0.628783
C277  C     C_3   0.978654 0.311268 0.688741 0.082687
H341  H     H_    0.000758 0.284741 0.711727 0.166863
H342  H     H_    0.025088 0.316721 0.670932 0.121167
C278  C     C_3   0.920590 0.261377 0.673604 -0.324990
H343  H     H_    0.878081 0.250605 0.692820 0.234744
H344  H     H_    0.894523 0.288249 0.651649 0.221998
C279  C     C_3   0.953016 0.189181 0.662082 -0.979050
H345  H     H_    0.994990 0.198606 0.642484 0.261600
H346  H     H_    0.909838 0.154344 0.651153 0.261567
H347  H     H_    0.977679 0.160175 0.683813 0.271238
O98   O     O_3   0.629620 0.970814 0.698383 -0.623396
C280  C     C_3   0.680999 0.025940 0.691534 0.070221
H348  H     H_    0.657181 0.080851 0.695956 0.130237
H349  H     H_    0.700617 0.022197 0.665047 0.133329
C281  C     C_3   0.746196 0.016451 0.714851 -0.295974
H350  H     H_    0.727983 0.017439 0.741539 0.249000
H351  H     H_    0.771956 0.962885 0.709858 0.226276
C282  C     C_3   0.801949 0.076655 0.709358 -0.991304
H352  H     H_    0.821695 0.075673 0.682894 0.270889
H353  H     H_    0.848746 0.068314 0.726534 0.270280
H354  H     H_    0.777699 0.130700 0.714776 0.271279
O99   O     O_3   0.050141 0.619674 0.699241 -0.626393
C283  C     C_3   0.007874 0.683024 0.694074 0.089618
H355  H     H_    0.987486 0.701205 0.719059 0.171971
H356  H     H_    0.959345 0.674938 0.677682 0.117313
C284  C     C_3   0.055144 0.743486 0.679302 -0.335950
H357  H     H_    0.101349 0.754570 0.696570 0.241628
H358  H     H_    0.077288 0.725873 0.654564 0.212730
C285  C     C_3   0.011680 0.813294 0.674414 -0.983184
H359  H     H_    0.965387 0.803433 0.657079 0.264770
H360  H     H_    0.046788 0.856033 0.663304 0.269576
H361  H     H_    0.990834 0.833142 0.699041 0.270079
O100  O     O_3   0.372359 0.021692 0.698476 -0.629832
C286  C     C_3   0.333097 0.956348 0.703420 0.107135
H362  H     H_    0.308155 0.959334 0.728890 0.194294
H363  H     H_    0.367505 0.906368 0.703179 0.103845
C287  C     C_3   0.272633 0.949229 0.677113 -0.369169
H364  H     H_    0.241765 0.001014 0.675628 0.244366
H365  H     H_    0.296648 0.937998 0.651971 0.208828
C288  C     C_3   0.220598 0.887592 0.685979 -0.969897
H366  H     H_    0.250271 0.835305 0.688190 0.274449
H367  H     H_    0.179170 0.882203 0.665821 0.263889
H368  H     H_    0.192716 0.899282 0.710211 0.269307

loop_
_geom_bond_atom_site_label_1
_geom_bond_atom_site_label_2
_ccdc_geom_bond_type
C192  H143  S    
C105  C110  A    
C209  C210  S    
C190  H139  S    
C227  C228  S    
C106  O62   S    
C107  C112  A    
C49   C87   S    
O79   C223  S    
C76   C79   A    
O2    Zn10  S    
O3    Zn5   S    
C279  H345  S    
C51   C85   S    
C56   O42   A    
C170  H91   S    
C50   O22   A    
C120  O76   S    
O61   C169  S    
C197  H154  S    
C105  O61   S    
O46   Zn8   S    
C155  H56   S    
C61   O51   A    
C273  H332  S    
C230  H231  S    
C39   C47   S    
C188  H134  S    
C46   O14   A    
C271  C272  S    
C68   C119  S    
C97   O53   S    
O80   C226  S    
C276  H340  S    
C284  H357  S    
C157  C158  S    
C115  O71   S    
C247  H271  S    
C30   C38   A    
C150  H45   S    
C153  H51   S    
O81   C229  S    
C224  C225  S    
C4    O10   A    
C9    C13   S    
C77   C122  S    
O47   Zn5   S    
C261  H305  S    
C240  H255  S    
C11   C15   S    
C45   O15   A    
C161  C162  S    
C12   C16   S    
C214  H195  S    
C273  H333  S    
C274  C275  S    
C65   C118  S    
C167  H84   S    
C67   C120  S    
C172  H96   S    
O25   Zn9   S    
C219  H205  S    
C100  O56   S    
O4    Zn16  S    
C32   H28   S    
O4    Zn6   S    
O53   C145  S    
C209  H182  S    
C260  C261  S    
C191  H141  S    
C212  H190  S    
C229  H230  S    
O18   Zn6   S    
C255  H291  S    
O8    Zn10  S    
O98   C280  S    
C267  H318  S    
C285  H360  S    
C9    C131  A    
C215  H197  S    
C146  H36   S    
C270  H324  S    
C84   C100  A    
C91   C107  A    
C286  H362  S    
C262  C263  S    
C171  H93   S    
C185  H127  S    
C3    C8    S    
C256  C257  S    
C1    O5    A    
C241  H257  S    
C257  H294  S    
C27   C35   A    
C206  H175  S    
C21   C29   A    
C28   C44   A    
C283  C284  S    
C53   O25   A    
C31   C37   A    
C183  H122  S    
O14   Zn2   S    
C229  C230  S    
C23   C31   A    
C288  H366  S    
C24   C32   A    
O2    Zn4   S    
C287  H364  S    
C34   H30   S    
C66   C82   A    
O16   Zn4   S    
C33   C39   A    
C248  C249  S    
O63   C175  S    
C259  C260  S    
C250  H278  S    
C196  C197  S    
C55   O27   A    
C167  C168  S    
C281  H351  S    
O76   C214  S    
C138  H18   S    
C172  C173  S    
C124  C127  S    
C87   C103  A    
C255  H290  S    
O70   C196  S    
C151  H48   S    
C199  C200  S    
C113  O69   S    
C252  H282  S    
C194  C195  S    
C189  H136  S    
C37   C45   S    
C130  C138  A    
C279  H347  S    
C170  C171  S    
O58   C160  S    
C264  H311  S    
O1    Zn9   S    
C57   O47   A    
C160  C161  S    
C47   O19   A    
C40   C48   S    
C165  H81   S    
C258  H297  S    
C156  H60   S    
C47   O17   A    
C192  H142  S    
C271  H327  S    
C241  C242  S    
C3    O11   A    
C233  C234  S    
C5    C137  A    
O44   Zn2   S    
C158  C159  S    
C49   O39   A    
C23   C41   A    
C247  C248  S    
C35   H31   S    
C235  H243  S    
C4    O12   A    
C180  H115  S    
C253  H285  S    
C270  H326  S    
C156  H59   S    
C280  H349  S    
C129  O85   S    
C169  C170  S    
C74   C90   A    
C78   C94   A    
C103  O59   S    
C237  H247  S    
C211  H187  S    
C184  H124  S    
C178  C179  S    
C125  H13   S    
C236  H245  S    
C173  C174  S    
C265  H314  S    
C210  H186  S    
C129  C137  A    
C223  H215  S    
O4    Zn8   S    
C228  H227  S    
C266  H315  S    
C245  H267  S    
C23   O95   S    
C260  H301  S    
C272  H330  S    
C76   C127  S    
C269  H322  S    
C117  H5    S    
C288  H367  S    
C181  H117  S    
O3    Zn15  S    
C152  H49   S    
C60   O32   A    
C147  H37   S    
C80   C123  S    
C222  H214  S    
C201  H164  S    
C67   C83   A    
O69   C193  S    
C219  H206  S    
C116  O72   S    
C25   O97   S    
C262  H306  S    
C171  H95   S    
C25   C43   A    
C7    C143  A    
C244  H264  S    
C1    O7    A    
C174  H102  S    
C27   O99   S    
C63   O49   A    
C49   O21   A    
O85   C241  S    
C233  H238  S    
C72   C115  S    
C146  H35   S    
C278  H343  S    
O24   Zn12  S    
O2    Zn2   S    
C18   C42   S    
O26   Zn12  S    
C239  H253  S    
C268  H321  S    
C201  H165  S    
C177  H107  S    
C65   C70   A    
O50   Zn8   S    
C163  H75   S    
C67   C72   A    
C164  C165  S    
C77   C93   A    
C104  O60   S    
O88   C250  S    
C173  H98   S    
C217  H202  S    
C243  H262  S    
C92   C108  A    
C231  H235  S    
C210  H184  S    
C287  C288  S    
O66   C184  S    
C284  H358  S    
C74   C77   A    
C22   C42   A    
C184  C185  S    
C22   O94   S    
O72   C202  S    
C52   O24   A    
C55   C81   S    
O27   Zn11  S    
O37   Zn3   S    
C197  C198  S    
C75   C91   A    
O1    Zn11  S    
C131  O87   S    
C135  C143  A    
C175  C176  S    
C166  H82   S    
C12   C134  A    
C263  H309  S    
C168  H87   S    
C288  H368  S    
O21   Zn9   S    
C257  C258  S    
O29   Zn13  S    
C3    O9    A    
C283  H356  S    
C88   C104  A    
C5    C139  A    
C250  H279  S    
C70   C113  S    
O1    Zn1   S    
C213  H192  S    
C216  H199  S    
C203  H168  S    
C95   C111  A    
C235  C236  S    
C52   C88   S    
C207  H177  S    
C187  H132  S    
O28   Zn10  S    
C10   C14   S    
O33   Zn13  S    
C169  H89   S    
C286  C287  S    
C272  C273  S    
C165  H79   S    
C73   C78   A    
C211  C212  S    
C199  H159  S    
C218  H204  S    
C158  H63   S    
C254  H288  S    
C142  H22   S    
C238  H251  S    
C226  H222  S    
C223  C224  S    
C282  H352  S    
C266  C267  S    
C143  H23   S    
O86   C244  S    
C63   C89   S    
C52   O38   A    
O57   C157  S    
C62   O34   A    
C226  C227  S    
C175  H103  S    
C130  O86   S    
C246  H269  S    
C242  C243  S    
C220  H209  S    
O42   Zn4   S    
O68   C190  S    
O3    Zn13  S    
C276  H339  S    
C147  H39   S    
O15   Zn3   S    
C259  H300  S    
C20   C44   S    
C275  H337  S    
C162  H72   S    
C193  H145  S    
C282  H354  S    
C2    C5    S    
C173  H99   S    
C251  H281  S    
C86   C102  A    
C182  C183  S    
C7    C141  A    
C244  C245  S    
C69   C85   A    
C195  H149  S    
C182  H120  S    
C232  C233  S    
C59   O31   A    
C145  H33   S    
C146  C147  S    
C22   C30   A    
C64   O36   A    
O43   Zn3   S    
C149  H42   S    
C209  H183  S    
O55   C151  S    
C140  H20   S    
C275  C276  S    
C79   C124  S    
C155  H57   S    
C163  C164  S    
C119  O75   S    
C148  C149  S    
C29   H25   S    
C251  C252  S    
C139  H19   S    
C73   C126  S    
C242  H259  S    
C128  O84   S    
C252  H283  S    
C277  H341  S    
C31   H27   S    
C62   O52   A    
C221  H211  S    
C231  H234  S    
C264  H312  S    
C233  H239  S    
C71   C116  S    
O60   C166  S    
C176  C177  S    
C153  H52   S    
C224  H218  S    
C238  C239  S    
C10   C132  A    
C38   C46   S    
C114  C117  S    
C131  C139  A    
O83   C235  S    
C234  H240  S    
O62   C172  S    
C155  C156  S    
C12   C136  A    
C89   C105  A    
O75   C211  S    
C274  H335  S    
O56   C154  S    
C237  H248  S    
C212  H189  S    
C208  C209  S    
C177  H109  S    
O45   Zn7   S    
C25   C33   A    
C106  C109  A    
C53   O43   A    
C152  C153  S    
C261  H304  S    
C126  O82   S    
C260  H302  S    
C153  H53   S    
C82   C98   A    
O12   Zn14  S    
O99   C283  S    
C176  H106  S    
C207  H179  S    
O38   Zn4   S    
C192  H144  S    
O2    Zn12  S    
C249  H275  S    
C150  H44   S    
C55   O41   A    
C123  H11   S    
C145  C146  S    
C132  O88   S    
C225  H219  S    
C121  H9    S    
C269  C270  S    
C262  H307  S    
C171  H94   S    
O89   C253  S    
C278  C279  S    
C256  H293  S    
C134  O90   S    
O77   C217  S    
C186  H130  S    
C241  H258  S    
C204  H172  S    
C74   C125  S    
C58   O30   A    
C115  H3    S    
C156  H58   S    
C157  H61   S    
C168  H86   S    
C113  H1    S    
C118  H6    S    
C78   C121  S    
O48   Zn6   S    
O64   C178  S    
C30   H26   S    
C287  H365  S    
O22   Zn10  S    
C285  H359  S    
C246  H268  S    
C188  H133  S    
C197  H155  S    
C196  H153  S    
C66   C117  S    
C254  H287  S    
C154  H54   S    
C56   C84   S    
C172  H97   S    
C97   C102  A    
C195  H151  S    
O11   Zn13  S    
O5    Zn11  S    
C159  H66   S    
C99   C104  A    
C272  H329  S    
C194  H147  S    
C83   C99   A    
C227  H224  S    
C190  C191  S    
C194  H148  S    
C198  H157  S    
C122  O78   S    
C213  H191  S    
C149  C150  S    
O17   Zn5   S    
O74   C208  S    
C170  H92   S    
C19   C43   S    
C179  H112  S    
C76   C92   A    
C206  H176  S    
C258  H296  S    
C273  H331  S    
C13   C19   T    
C26   C44   A    
C200  H161  S    
C68   C84   A    
C14   C20   T    
C258  H298  S    
O90   C256  S    
C90   C106  A    
C257  H295  S    
C63   O35   A    
C116  H4    S    
C58   O48   A    
O96   C274  S    
C187  H131  S    
O20   Zn8   S    
O100  C286  S    
C204  H170  S    
C94   C110  A    
C100  C103  A    
C1    C6    S    
O23   Zn11  S    
C235  H244  S    
O19   Zn7   S    
C238  H250  S    
C270  H325  S    
C79   C95   A    
C280  H348  S    
O35   Zn15  S    
C134  C142  A    
C96   C112  A    
C162  H73   S    
C65   C81   A    
C50   O40   A    
C214  C215  S    
C188  C189  S    
C149  H43   S    
C211  H188  S    
C248  H274  S    
C2    O8    A    
C54   O44   A    
C265  C266  S    
C196  H152  S    
C160  H69   S    
C21   C41   A    
C60   C96   S    
C271  H328  S    
C210  H185  S    
C223  H216  S    
C36   H32   S    
C205  H174  S    
C191  H140  S    
C212  C213  S    
C234  H242  S    
C253  C254  S    
C229  H229  S    
C64   C92   S    
C181  H118  S    
C54   C82   S    
C267  H317  S    
C147  H38   S    
O92   C262  S    
O91   C259  S    
C202  H166  S    
C15   C17   T    
C215  H196  S    
C208  H181  S    
C202  H167  S    
C48   O18   A    
C141  H21   S    
C160  H68   S    
O32   Zn16  S    
C46   O16   A    
C185  H126  S    
C60   O46   A    
C179  H113  S    
C186  H128  S    
C174  H101  S    
C164  H78   S    
O4    Zn14  S    
C132  C140  A    
C205  C206  S    
C204  H171  S    
C133  C141  A    
C111  O67   S    
C53   C83   S    
O49   Zn5   S    
C236  C237  S    
C181  C182  S    
C114  O70   S    
C230  C231  S    
C200  C201  S    
C73   C89   A    
C200  H162  S    
C136  C144  A    
C154  H55   S    
C102  O58   S    
C239  C240  S    
C219  H207  S    
C268  H320  S    
C177  H108  S    
C228  H228  S    
C122  C125  S    
C68   C71   A    
C24   O96   S    
C281  H350  S    
C163  H76   S    
C245  C246  S    
C6    C140  A    
O13   Zn1   S    
C28   O100  S    
C179  C180  S    
O6    Zn12  S    
O34   Zn16  S    
O95   C271  S    
C27   C43   A    
C121  C126  S    
C151  H47   S    
C28   C36   A    
C278  H344  S    
C10   C130  A    
C29   C37   A    
C190  H138  S    
C184  H125  S    
C189  H135  S    
C8    C142  A    
C256  H292  S    
C225  H221  S    
C125  O81   S    
O67   C187  S    
C124  O80   S    
C215  C216  S    
C107  O63   S    
C150  H46   S    
O59   C163  S    
C264  H310  S    
C243  H263  S    
C166  C167  S    
C253  H286  S    
C248  H273  S    
C252  H284  S    
C231  H233  S    
C198  H156  S    
C183  H121  S    
C227  H225  S    
C64   O50   A    
C240  H254  S    
C236  H246  S    
O9    Zn15  S    
C136  O92   S    
C24   C42   A    
C98   C101  A    
C191  C192  S    
C213  H193  S    
C99   O55   S    
C216  H198  S    
C228  H226  S    
C203  H169  S    
C144  H24   S    
C34   C40   A    
C199  H160  S    
C207  H178  S    
C148  H40   S    
C280  C281  S    
C11   C135  A    
C11   C133  A    
C118  O74   S    
C101  O57   S    
C180  H116  S    
C169  H90   S    
C286  H363  S    
C66   C69   A    
C214  H194  S    
C57   O29   A    
C276  H338  S    
O94   C268  S    
C269  H323  S    
C232  H236  S    
C2    O6    A    
C154  C155  S    
C265  H313  S    
C245  H266  S    
O36   Zn14  S    
C108  O64   S    
O41   Zn1   S    
C26   C34   A    
C123  O79   S    
O78   C220  S    
C266  H316  S    
C203  C204  S    
C187  C188  S    
C202  C203  S    
O40   Zn2   S    
O87   C247  S    
C221  C222  S    
C121  O77   S    
C75   C128  S    
C32   C38   A    
C80   C96   A    
C33   H29   S    
C75   C80   A    
O52   Zn6   S    
C267  H319  S    
C51   O37   A    
C117  O73   S    
C201  H163  S    
C48   O20   A    
C193  H146  S    
C122  H10   S    
O30   Zn14  S    
C237  H249  S    
C185  C186  S    
C133  O89   S    
C72   C88   A    
C195  H150  S    
C230  H232  S    
C279  H346  S    
C126  H14   S    
C119  H7    S    
C145  H34   S    
C69   C114  S    
C234  H241  S    
C243  H261  S    
O84   C238  S    
C232  H237  S    
C98   O54   S    
C36   C40   A    
C114  H2    S    
C208  H180  S    
O3    Zn7   S    
C198  H158  S    
C26   O98   S    
C239  H252  S    
C268  C269  S    
C61   O33   A    
C159  H67   S    
C217  C218  S    
O97   C277  S    
C54   O26   A    
C189  H137  S    
C281  C282  S    
C148  H41   S    
C175  H104  S    
C6    C138  A    
C166  H83   S    
C217  H201  S    
O31   Zn15  S    
C254  C255  S    
C178  H110  S    
C244  H265  S    
C277  H342  S    
C151  C152  S    
C224  H217  S    
C284  C285  S    
O54   C148  S    
C137  H17   S    
C226  H223  S    
O73   C205  S    
C8    C144  A    
C108  C111  A    
C221  H210  S    
C282  H353  S    
O65   C181  S    
C51   O23   A    
C193  C194  S    
C45   O13   A    
C161  H70   S    
C115  C120  S    
C120  H8    S    
C21   O93   S    
C124  H12   S    
C263  H308  S    
C59   C93   S    
C168  H88   S    
C71   C87   A    
C165  H80   S    
C242  H260  S    
C70   C86   A    
C183  H123  S    
C127  H15   S    
C240  H256  S    
C85   C101  A    
O82   C232  S    
C128  H16   S    
C277  C278  S    
C261  H303  S    
C220  H208  S    
C250  C251  S    
C152  H50   S    
O93   C265  S    
C4    C7    S    
C159  H65   S    
C216  H200  S    
C167  H85   S    
O39   Zn1   S    
C127  O83   S    
C255  H289  S    
O1    Zn3   S    
C249  H276  S    
C274  H334  S    
C110  O66   S    
C56   O28   A    
C9    C129  A    
O51   Zn7   S    
C222  H212  S    
C225  H220  S    
C205  H173  S    
C116  C119  S    
C247  H272  S    
C218  C219  S    
C176  H105  S    
C58   C94   S    
C164  H77   S    
O71   C199  S    
C158  H64   S    
C112  O68   S    
C180  H114  S    
O7    Zn9   S    
O10   Zn16  S    
C186  H129  S    
C174  H100  S    
C123  C128  S    
C182  H119  S    
C81   C97   A    
C135  O91   S    
C35   C39   A    
C62   C90   S    
C161  H71   S    
C283  H355  S    
C59   O45   A    
C246  H270  S    
C157  H62   S    
C178  H111  S    
C220  C221  S    
C17   C41   S    
C206  C207  S    
C249  H277  S    
C50   C86   S    
C113  C118  S    
C222  H213  S    
C259  H299  S    
C263  C264  S    
C16   C18   T    
C275  H336  S    
C57   C95   S    
C93   C109  A    
C109  O65   S    
C251  H280  S    
C285  H361  S    
C218  H203  S    
C61   C91   S    
C162  H74   S    
