data_mof_unit_36031.cif
_audit_creation_date              2013-03-05T15:43:55-0500
_audit_creation_method            fapswitch 2.2
_symmetry_space_group_name_H-M    P1
_symmetry_Int_Tables_number       1
_space_group_crystal_system       triclinic
_cell_length_a                    15.900561
_cell_length_b                    10.957613
_cell_length_c                    9.739296
_cell_angle_alpha                 89.931134
_cell_angle_beta                  89.931145
_cell_angle_gamma                 90.719644
_cell_volume                      1696.76257975

loop_
_atom_site_label
_atom_site_type_symbol
_atom_site_description
_atom_site_fract_x
_atom_site_fract_y
_atom_site_fract_z
_atom_type_partial_charge
O1    O     O_R   0.500010 0.321960 0.617040 -0.552346
O2    O     O_R   0.499990 0.321920 0.382900 -0.554964
C1    C     C_R   0.498408 0.265442 0.499754 0.786458
O3    O     O_R   0.379090 0.500010 0.617050 -0.554024
O4    O     O_R   0.379060 0.499970 0.382910 -0.522077
C2    C     C_R   0.340140 0.499919 0.500038 0.854096
Cu1   Cu    Cu3+1 0.500020 0.500020 0.638630 1.012722
Cu2   Cu    Cu3+1 0.499980 0.499980 0.361370 1.058598
O5    O     O_R   0.500010 0.678080 0.617100 -0.570451
O6    O     O_R   0.499990 0.678040 0.382960 -0.545444
O7    O     O_R   0.620940 0.500030 0.617090 -0.573798
O8    O     O_R   0.620910 0.499990 0.382950 -0.573328
C3    C     C_R   0.500883 0.734483 0.499658 0.878078
C4    C     C_R   0.659881 0.499993 0.499913 0.777993
C5    C     C_3   0.970629 0.385915 0.533558 -0.281818
C6    C     C_3   0.027371 0.420555 0.409210 0.159103
H1    H     H_    0.947073 0.293207 0.560767 0.187403
C7    C     C_1   0.250810 0.500313 0.500152 -0.030750
C8    C     C_1   0.749260 0.499643 0.499697 -0.158228
C9    C     C_3   0.026869 0.469356 0.624574 0.311462
C10   C     C_3   0.084141 0.501647 0.501191 -0.155614
C11   C     C_3   0.971888 0.580162 0.592641 0.124104
C12   C     C_3   0.915926 0.499217 0.500267 -0.047573
C13   C     C_3   0.027927 0.612287 0.468720 0.244016
C14   C     C_3   0.972467 0.531341 0.376145 0.183833
C15   C     C_1   0.175536 0.500875 0.500463 0.139840
C16   C     C_1   0.824558 0.499341 0.499801 0.023990
C17   C     C_2   0.495489 0.934880 0.387182 0.395751
C18   C     C_2   0.510708 0.866092 0.498765 -0.401717
H2    H     H_    0.536002 0.908022 0.591346 0.148904
C19   C     C_2   0.515179 0.065715 0.393728 0.054073
C20   C     C_2   0.482799 0.134364 0.496851 0.091384
C21   C     C_2   0.455419 0.424391 0.921693 -0.111970
N1    N     N_2   0.499090 0.498660 0.846910 -0.311129
H3    H     H_    0.421427 0.350301 0.871938 0.219959
H4    H     H_    0.517374 0.579494 0.890959 0.230465
C22   C     C_2   0.444693 0.440768 0.074568 0.435881
N2    N     N_2   0.499070 0.498630 0.153040 -0.118204
N3    N     N_2   0.060151 0.334537 0.310540 -0.391403
H5    H     H_    0.110839 0.286904 0.347539 0.292206
C23   C     C_3   0.998036 0.256166 0.246050 -0.540414
H6    H     H_    0.028723 0.200856 0.165239 0.259825
H7    H     H_    0.948222 0.310968 0.196904 0.224929
H8    H     H_    0.969259 0.193463 0.323077 0.217068
N4    N     N_R   0.421845 0.084959 0.592490 0.110849
O9    O     O_R   0.424960 0.115498 0.721455 -0.328326
O10   O     O_R   0.356919 0.023284 0.548003 -0.278328
N5    N     N_R   0.368101 0.393497 0.132205 0.133720
O11   O     O_R   0.296652 0.428651 0.081761 -0.299556
O12   O     O_R   0.369524 0.295795 0.207923 -0.339525
N6    N     N_2   0.581135 0.508448 0.105388 -0.363195
H9    H     H_    0.601491 0.449658 0.029999 0.224436
C24   C     C_3   0.617691 0.630199 0.108144 -0.475569
H10   H     H_    0.683290 0.627433 0.069139 0.181115
H11   H     H_    0.619370 0.666783 0.213860 0.254603
H12   H     H_    0.581220 0.693736 0.043538 0.219263
N7    N     N_2   0.939948 0.565705 0.242954 -0.423327
H13   H     H_    0.891206 0.510343 0.209852 0.251783
C25   C     C_3   0.002374 0.590149 0.138176 -0.480133
H14   H     H_    0.970578 0.621978 0.043615 0.225232
H15   H     H_    0.037631 0.506165 0.113705 0.273423
H16   H     H_    0.046985 0.662654 0.172023 0.258798
N8    N     N_R   0.056355 0.735421 0.433779 0.129229
O13   O     O_R   0.001533 0.819363 0.407635 -0.345183
O14   O     O_R   0.136193 0.762094 0.428154 -0.306435
N9    N     N_2   0.939341 0.665540 0.692261 -0.410079
H17   H     H_    0.892228 0.719153 0.653157 0.271080
C26   C     C_3   0.001915 0.734891 0.767664 -0.551782
H18   H     H_    0.970597 0.787537 0.850066 0.216686
H19   H     H_    0.035220 0.800057 0.698589 0.262709
H20   H     H_    0.048239 0.673490 0.816124 0.254813
N10   N     N_R   0.054311 0.434927 0.761797 0.139678
O15   O     O_R   0.998761 0.405533 0.854563 -0.362639
O16   O     O_R   0.133892 0.431747 0.791935 -0.315603
N11   N     N_R   0.455942 0.885780 0.266354 0.158480
O17   O     O_R   0.380177 0.839899 0.273548 -0.267431
O18   O     O_R   0.495969 0.884528 0.149896 -0.375760
N12   N     N_2   0.579415 0.111955 0.304049 -0.450945
H21   H     H_    0.623121 0.170758 0.347186 0.235856
C27   C     C_3   0.554596 0.143165 0.165381 -0.436056
H22   H     H_    0.566922 0.241577 0.145941 0.188237
H23   H     H_    0.486726 0.124208 0.146838 0.275657
H24   H     H_    0.592412 0.089765 0.091482 0.227339

loop_
_geom_bond_atom_site_label_1
_geom_bond_atom_site_label_2
_geom_bond_distance
_ccdc_geom_bond_type
N9    C26   1.445970 S    
C10   C15   1.453370 S    
N8    O14   1.300177 A    
C6    C10   1.546164 S    
C20   N4    1.443411 S    
C7    C15   1.196995 T    
Cu1   Cu2   2.700319 S    
N3    C23   1.445316 S    
C24   H10   1.110437 S    
Cu1   O7    1.933856 S    
C22   N2    1.312497 D    
Cu2   N2    2.029126 S    
C3    C18   1.448618 S    
C17   C18   1.345721 D    
C27   H24   1.109388 S    
O4    C2    1.297142 A    
Cu2   O6    1.962660 S    
O7    C4    1.297721 A    
N12   C27   1.449197 S    
N7    C25   1.445183 S    
C5    C6    1.553203 S    
C5    H1    1.109969 S    
C23   H6    1.110181 S    
N4    O10   1.301715 A    
O5    C3    1.299421 A    
C11   N9    1.448284 S    
C21   H3    1.084712 S    
C26   H18   1.110054 S    
C12   C16   1.452837 S    
C8    C16   1.197331 T    
C5    C12   1.558817 S    
N9    H17   1.030810 S    
C25   H14   1.109136 S    
C23   H7    1.108718 S    
C14   N7    1.448160 S    
O3    Cu1   1.934555 S    
C24   H11   1.105562 S    
C5    C9    1.550717 S    
C2    C7    1.420452 S    
C25   H15   1.109569 S    
N6    H9    1.031829 S    
C13   C14   1.536703 S    
N10   O16   1.300218 A    
N3    H5    1.030853 S    
N12   H21   1.031870 S    
N10   O15   1.300160 A    
N2    N6    1.387283 S    
N4    O9    1.301073 A    
C21   C22   1.509609 S    
N6    C24   1.448817 S    
N11   O17   1.301332 A    
C18   H2    1.087699 S    
C19   C20   1.360121 D    
Cu2   O8    1.934558 S    
C21   N1    1.287670 D    
C22   N5    1.431217 S    
N11   O18   1.300090 A    
O3    C2    1.297675 A    
N5    O11   1.300888 A    
C9    C11   1.536754 S    
C13   N8    1.457343 S    
C23   H8    1.110963 S    
C11   C13   1.537211 S    
C19   N12   1.430593 S    
C24   H12   1.107652 S    
C6    C14   1.538145 S    
Cu1   O5    1.962098 S    
C25   H16   1.109087 S    
O1    Cu1   1.962661 S    
C4    C8    1.421229 S    
C17   C19   1.465065 S    
O2    Cu2   1.962099 S    
O8    C4    1.297419 A    
C27   H22   1.109606 S    
O6    C3    1.294600 A    
O4    Cu2   1.933853 S    
O2    C1    1.294871 A    
N7    H13   1.030470 S    
C26   H20   1.109277 S    
N5    O12   1.299704 A    
Cu1   N1    2.028573 S    
C27   H23   1.111441 S    
N1    H4    1.023650 S    
C12   C14   1.543347 S    
C1    C20   1.454832 S    
C6    N3    1.448062 S    
N8    O13   1.300327 A    
C9    C10   1.544917 S    
C26   H19   1.109685 S    
C10   C13   1.547812 S    
C11   C12   1.540091 S    
C9    N10   1.457104 S    
O1    C1    1.300140 A    
C17   N11   1.436829 S    
