data_mof_unit_8172.cif
_audit_creation_date              2013-03-05T16:02:02-0500
_audit_creation_method            fapswitch 2.2
_symmetry_space_group_name_H-M    P1
_symmetry_Int_Tables_number       1
_space_group_crystal_system       triclinic
_cell_length_a                    6.937781
_cell_length_b                    17.57287
_cell_length_c                    19.515059
_cell_angle_alpha                 108.385296
_cell_angle_beta                  89.96021
_cell_angle_gamma                 90.997927
_cell_volume                      2257.39858405

loop_
_atom_site_label
_atom_site_type_symbol
_atom_site_description
_atom_site_fract_x
_atom_site_fract_y
_atom_site_fract_z
_atom_type_partial_charge
O1    O     O_R   0.494330 0.415720 0.413720 -0.557540
O2    O     O_R   0.819330 0.430070 0.560210 -0.613046
O3    O     O_R   0.994320 0.584280 0.586280 -0.591180
C1    C     C_R   0.650291 0.415281 0.582098 0.925229
O4    O     O_R   0.823730 0.406300 0.412670 -0.598772
O5    O     O_R   0.998760 0.560340 0.437690 -0.603598
C2    C     C_R   0.653902 0.386341 0.382698 0.973537
O6    O     O_R   0.489890 0.439660 0.562310 -0.610173
O7    O     O_3   0.662340 0.550560 0.508380 -0.235641
V1    V     V_3+5 0.935370 0.490620 0.498450 1.216084
O8    O     O_R   0.328750 0.569930 0.439790 -0.530438
C3    C     C_R   0.161459 0.582547 0.416038 1.163575
O9    O     O_R   0.324340 0.593700 0.587330 -0.576286
C4    C     C_R   0.156177 0.619508 0.613398 0.987106
V2    V     V_3+5 0.435940 0.509380 0.501550 1.272806
O10   O     O_3   0.159100 0.449440 0.491620 -0.293775
H1    H     H_    0.349434 0.889504 0.586909 0.152209
C5    C     C_R   0.049083 0.592457 0.746430 -0.173416
C6    C     C_R   0.993784 0.576122 0.809118 -0.133540
C7    C     C_R   0.979924 0.637996 0.873946 -0.082611
C8    C     C_R   0.021114 0.716657 0.876543 -0.208932
C9    C     C_R   0.075107 0.735274 0.813676 0.108941
C10   C     C_R   0.089745 0.672002 0.746931 0.139207
C11   C     C_R   0.118331 0.815272 0.817151 -0.275176
C12   C     C_R   0.178573 0.832646 0.754486 0.115432
C13   C     C_R   0.195488 0.770034 0.687007 -0.067140
C14   C     C_R   0.148227 0.688441 0.682854 -0.299035
C15   C     C_R   0.219897 0.913281 0.758312 -0.154149
C16   C     C_R   0.283683 0.932755 0.698746 -0.212271
C17   C     C_R   0.302819 0.873275 0.633552 -0.144585
C18   C     C_R   0.257039 0.793404 0.626630 0.379071
H2    H     H_    0.061514 0.541725 0.697964 0.104762
H3    H     H_    0.963008 0.514992 0.807497 0.119174
H4    H     H_    0.938298 0.624997 0.922633 0.142263
H5    H     H_    0.011739 0.762588 0.928513 0.145894
H6    H     H_    0.202445 0.962850 0.807353 0.124698
H7    H     H_    0.315874 0.994461 0.702788 0.145550
C19   C     C_R   0.007943 0.615289 0.312561 -0.214757
C20   C     C_R   0.156710 0.628930 0.363947 -0.107703
C21   C     C_R   0.303372 0.685443 0.363853 -0.040878
C22   C     C_R   0.293769 0.732126 0.317417 0.081760
C23   C     C_R   0.141246 0.719261 0.267130 0.056076
C24   C     C_R   0.001284 0.658983 0.263436 0.149818
C25   C     C_R   0.434200 0.791468 0.320392 -0.173916
C26   C     C_R   0.420689 0.839058 0.275204 -0.205650
C27   C     C_R   0.268604 0.827290 0.225308 0.165760
C28   C     C_R   0.129952 0.766094 0.220018 -0.013869
C29   C     C_R   0.982983 0.750344 0.166868 -0.007615
C30   C     C_R   0.853429 0.685777 0.160915 -0.188821
C31   C     C_R   0.858810 0.642622 0.209919 -0.190003
C32   C     C_R   0.255469 0.874975 0.180027 -0.356387
C33   C     C_R   0.109271 0.861333 0.127533 -0.291849
C34   C     C_R   0.971552 0.798474 0.120399 0.449244
H8    H     H_    0.901036 0.568887 0.309563 0.178142
H9    H     H_    0.424608 0.693943 0.400303 0.190498
H10   H     H_    0.553587 0.801626 0.358178 0.146924
H11   H     H_    0.530860 0.884454 0.278612 0.118149
H12   H     H_    0.361138 0.922682 0.185182 0.150754
H13   H     H_    0.744951 0.668362 0.119129 0.146500
H14   H     H_    0.752134 0.595795 0.205438 0.155554
C35   C     C_R   0.785524 0.182442 0.866601 -0.267838
C36   C     C_R   0.622373 0.134632 0.869010 -0.137215
C37   C     C_R   0.463083 0.134483 0.824212 -0.250318
C38   C     C_R   0.467303 0.179460 0.776213 0.144350
C39   C     C_R   0.630131 0.228005 0.774740 0.032537
C40   C     C_R   0.789021 0.230141 0.820623 0.152491
C41   C     C_R   0.311509 0.176664 0.729544 -0.224400
C42   C     C_R   0.315591 0.222477 0.682446 -0.204529
C43   C     C_R   0.475249 0.272173 0.681310 0.149559
C44   C     C_R   0.633911 0.274559 0.727358 0.030063
C45   C     C_R   0.796504 0.323295 0.726008 0.146199
C46   C     C_R   0.951981 0.326301 0.772880 -0.225601
C47   C     C_R   0.948274 0.280160 0.819739 -0.210585
C48   C     C_R   0.479386 0.319208 0.634813 -0.268724
C49   C     C_R   0.642534 0.366917 0.632259 -0.127775
C50   C     C_R   0.800871 0.368104 0.677828 -0.253306
H15   H     H_    0.908022 0.183678 0.901430 0.140994
H16   H     H_    0.336128 0.098437 0.826020 0.130862
H17   H     H_    0.185636 0.139351 0.729754 0.142769
H18   H     H_    0.192951 0.219494 0.647277 0.143428
H19   H     H_    0.357313 0.317513 0.599667 0.140345
H20   H     H_    0.927175 0.404682 0.676379 0.129866
H21   H     H_    0.077553 0.363839 0.772849 0.140101
H22   H     H_    0.070933 0.283108 0.854890 0.143513
H23   H     H_    0.655929 0.134299 0.439239 0.118904
C51   C     C_R   0.593688 0.405625 0.236461 0.326924
C52   C     C_R   0.617966 0.416818 0.169001 -0.194083
C53   C     C_R   0.656335 0.352570 0.108216 -0.170683
C54   C     C_R   0.659015 0.275589 0.113165 -0.140900
C55   C     C_R   0.637725 0.262179 0.180560 0.110059
C56   C     C_R   0.623719 0.329096 0.244734 -0.033761
C57   C     C_R   0.626849 0.183268 0.184131 -0.279160
C58   C     C_R   0.630878 0.170681 0.252309 0.120212
C59   C     C_R   0.640450 0.237417 0.317034 0.128740
C60   C     C_R   0.637061 0.317085 0.313906 -0.282635
C61   C     C_R   0.629661 0.092169 0.257395 -0.179244
C62   C     C_R   0.639231 0.079622 0.324337 -0.101125
C63   C     C_R   0.648910 0.144486 0.387407 -0.103852
C64   C     C_R   0.649205 0.222540 0.384141 -0.161246
H24   H     H_    0.591740 0.474568 0.162414 0.141128
H25   H     H_    0.671395 0.361768 0.056146 0.138255
H26   H     H_    0.678176 0.226788 0.063537 0.102485
H27   H     H_    0.623341 0.039796 0.209769 0.087923
H28   H     H_    0.640001 0.019278 0.327388 0.108662
H29   H     H_    0.655353 0.270865 0.434836 0.092540
O11   O     O_R   0.775200 0.060470 0.937800 -0.593952
O12   O     O_R   0.441110 0.093720 0.087350 -0.584609
O13   O     O_R   0.266330 0.939630 0.062280 -0.619977
C65   C     C_R   0.610961 0.114372 0.116273 0.936795
O14   O     O_R   0.445750 0.069950 0.939820 -0.600353
O15   O     O_R   0.271000 0.915700 0.913700 -0.599769
C66   C     C_R   0.614858 0.085303 0.918384 0.954531
O16   O     O_R   0.770530 0.084400 0.086380 -0.593125
O17   O     O_3   0.602830 0.949510 0.991680 -0.289966
V3    V     V_3+5 0.329710 0.009370 0.001550 1.145728
O18   O     O_R   0.940990 0.906170 0.912570 -0.585225
C67   C     C_R   0.109311 0.881509 0.886776 0.922684
O19   O     O_R   0.936350 0.929940 0.060100 -0.594538
C68   C     C_R   0.103975 0.912932 0.080073 1.008321
V4    V     V_3+5 0.829160 0.990450 0.998310 1.157694
O20   O     O_3   0.105910 0.050480 0.008320 -0.270452
O21   O     O_3   0.847972 0.776821 0.061139 -0.665485
C69   C     C_3   0.655483 0.797469 0.082368 0.247693
H30   H     H_    0.626745 0.858988 0.081245 0.149062
H31   H     H_    0.623137 0.797014 0.138099 0.038736
C70   C     C_3   0.517157 0.737311 0.030388 -0.353628
H32   H     H_    0.566650 0.675215 0.021682 0.198639
H33   H     H_    0.371158 0.741888 0.054480 0.172710
C71   C     C_3   0.502564 0.751371 0.957344 -0.782459
H34   H     H_    0.425453 0.807701 0.963259 0.257748
H35   H     H_    0.420300 0.701079 0.919036 0.232180
H36   H     H_    0.647639 0.755017 0.934639 0.276011
N1    N     N_R   0.492126 0.465767 0.289680 0.210815
O22   O     O_R   0.314646 0.449605 0.302482 -0.445800
O23   O     O_R   0.549015 0.540222 0.306217 -0.485310
N2    N     N_R   0.266061 0.738864 0.556027 0.185019
O24   O     O_R   0.123590 0.738655 0.512786 -0.480392
O25   O     O_R   0.435829 0.717381 0.529448 -0.427221

loop_
_geom_bond_atom_site_label_1
_geom_bond_atom_site_label_2
_geom_bond_distance
_ccdc_geom_bond_type
C42   H18   1.083656 S    
C52   C53   1.384882 A    
C58   C59   1.427648 A    
V3    O20   1.711353 S    
C54   H26   1.082113 S    
C22   C23   1.409632 A    
C6    C7    1.388439 A    
C1    O6    1.301007 A    
C62   C63   1.389658 A    
C69   H30   1.109685 S    
O11   C66   1.301260 A    
C26   C27   1.403926 A    
V4    O20   2.153479 S    
C12   C15   1.419423 A    
C71   H35   1.109914 S    
C26   H11   1.081846 S    
C11   C67   1.486500 S    
C36   C37   1.409035 A    
O13   V3    1.999143 S    
C15   C16   1.381719 A    
C71   H34   1.107107 S    
C34   O21   1.389131 S    
O5    C3    1.301139 A    
C17   C18   1.397864 A    
C57   C65   1.488540 S    
C69   H31   1.112814 S    
V2    O10   2.153424 S    
C63   C64   1.393001 A    
C18   N2    1.410616 S    
O18   C67   1.297722 A    
C5    C6    1.393987 A    
O19   C68   1.296117 A    
C1    C49   1.485441 S    
H23   C63   1.082666 S    
O8    V2    1.993894 S    
C35   C40   1.407822 A    
C59   C60   1.421020 A    
C35   H15   1.084233 S    
C42   C43   1.403063 A    
C44   C45   1.409675 A    
O1    V2    2.013342 S    
C10   C14   1.426486 A    
C4    C14   1.508011 S    
O7    V1    2.162252 S    
C47   H22   1.083636 S    
C65   O16   1.291858 A    
C71   H36   1.108390 S    
C7    H4    1.082851 S    
C13   C18   1.427488 A    
C8    C9    1.414488 A    
H1    C17   1.083792 S    
O12   C65   1.302190 A    
O13   C68   1.301247 A    
C43   C44   1.413147 A    
C53   H25   1.082802 S    
O19   V4    1.993833 S    
O21   C69   1.417033 S    
C29   C34   1.424896 A    
C64   H29   1.081923 S    
C48   C49   1.407045 A    
C32   C33   1.404902 A    
C46   H21   1.083667 S    
C38   C41   1.404077 A    
C41   H17   1.083654 S    
C11   C12   1.412014 A    
N2    O25   1.299970 A    
C6    H3    1.082206 S    
C50   H20   1.083350 S    
C20   C21   1.409790 A    
O4    C2    1.307868 A    
C51   C52   1.400750 A    
N2    O24   1.299311 A    
C69   C70   1.535280 S    
C70   C71   1.525267 S    
C12   C13   1.431357 A    
C40   C47   1.403328 A    
C27   C32   1.400432 A    
C41   C42   1.399866 A    
C19   C20   1.403397 A    
O2    C1    1.297721 A    
C49   C50   1.409562 A    
C16   C17   1.376426 A    
O16   V4    2.019292 S    
C25   H10   1.083658 S    
C51   N1    1.422888 S    
C55   C57   1.410938 A    
C28   C29   1.415144 A    
C19   H8    1.080434 S    
C21   H9    1.079438 S    
C61   C62   1.393525 A    
C13   C14   1.442329 A    
C43   C48   1.406976 A    
C32   H12   1.084396 S    
C7    C8    1.391780 A    
O12   V3    1.998582 S    
C5    C10   1.418197 A    
O3    C4    1.301621 A    
C21   C22   1.403418 A    
C39   C40   1.413160 A    
O6    V2    1.995025 S    
O9    V2    2.017620 S    
N1    O22   1.300528 A    
C22   C25   1.402327 A    
C9    C11   1.412795 A    
C5    H2    1.080490 S    
C23   C24   1.409334 A    
C48   H19   1.084261 S    
O2    V1    2.002674 S    
C33   C34   1.420869 A    
C52   H24   1.080864 S    
C27   C28   1.409442 A    
C29   C30   1.410749 A    
C70   H33   1.109871 S    
O11   V4    1.995445 S    
O1    C2    1.296337 A    
C25   C26   1.397811 A    
C46   C47   1.400475 A    
O5    V1    1.999338 S    
O8    C3    1.298315 A    
C24   C31   1.397343 A    
O17   V3    2.162215 S    
C8    H5    1.081516 S    
C58   C61   1.414007 A    
C2    C60   1.503889 S    
C30   H13   1.077233 S    
O15   C67   1.293681 A    
C31   H14   1.079818 S    
C38   C39   1.409456 A    
C3    C20   1.490792 S    
O7    V2    1.705412 S    
C19   C24   1.405826 A    
O3    V1    2.002992 S    
V1    O10   1.711351 S    
C55   C56   1.426689 A    
C45   C50   1.403965 A    
C59   C64   1.415531 A    
C70   H32   1.110648 S    
C57   C58   1.416290 A    
C23   C28   1.417181 A    
C35   C36   1.407488 A    
O14   C66   1.297595 A    
C62   H28   1.080785 S    
C56   C60   1.433846 A    
C37   C38   1.403251 A    
C33   C68   1.487380 S    
O18   V4    2.017451 S    
O4    V1    1.998721 S    
C36   C66   1.485864 S    
C53   C54   1.386708 A    
C15   H6    1.080273 S    
C30   C31   1.396267 A    
C61   H27   1.082527 S    
C16   H7    1.081453 S    
N1    O23   1.299099 A    
C9    C10   1.425944 A    
O15   V3    2.003005 S    
C45   C46   1.404251 A    
C54   C55   1.414633 A    
O9    C4    1.302949 A    
O14   V3    2.002603 S    
O17   V4    1.703571 S    
C39   C44   1.414690 A    
C51   C56   1.422962 A    
C37   H16   1.083001 S    
