data_mof_unit_29186.cif
_audit_creation_date              2012-12-11T16:06:26-0500
_audit_creation_method            fapswitch 2.2
_symmetry_space_group_name_H-M    P1
_symmetry_Int_Tables_number       1
_space_group_crystal_system       triclinic
_cell_length_a                    7.196684
_cell_length_b                    14.65552
_cell_length_c                    15.654796
_cell_angle_alpha                 90.0
_cell_angle_beta                  89.999932
_cell_angle_gamma                 90.000025
_cell_volume                      1651.12927914

loop_
_atom_site_label
_atom_site_type_symbol
_atom_type_description
_atom_site_fract_x
_atom_site_fract_y
_atom_site_fract_z
_atom_type_partial_charge
O1    O     O_R   0.388780 0.834790 0.412340 -0.539391
O2    O     O_R   0.111220 0.165210 0.912340 -0.539390
O3    O     O_R   0.888780 0.665210 0.587660 -0.539390
O4    O     O_R   0.611220 0.334790 0.087660 -0.539390
O5    O     O_R   0.059040 0.845930 0.587040 -0.536695
O6    O     O_R   0.440960 0.154070 0.087040 -0.536698
O7    O     O_R   0.559040 0.654070 0.412960 -0.536696
O8    O     O_R   0.940960 0.345930 0.912960 -0.536695
C1    C     C_R   0.228041 0.868152 0.615232 0.635672
C2    C     C_R   0.271959 0.131848 0.115232 0.635671
C3    C     C_R   0.728041 0.631847 0.384768 0.635671
C4    C     C_R   0.771959 0.368152 0.884768 0.635671
O9    O     O_R   0.059070 0.845930 0.412970 -0.541183
O10   O     O_R   0.440930 0.154070 0.912970 -0.541183
O11   O     O_R   0.559070 0.654070 0.587030 -0.541183
O12   O     O_R   0.940930 0.345930 0.087030 -0.541182
O13   O     O_R   0.888760 0.665210 0.412340 -0.539229
O14   O     O_R   0.611240 0.334790 0.912340 -0.539229
O15   O     O_R   0.388760 0.834790 0.587660 -0.539229
O16   O     O_R   0.111240 0.165210 0.087660 -0.539228
C5    C     C_R   0.227477 0.866542 0.383508 0.653743
C6    C     C_R   0.272524 0.133458 0.883508 0.653742
C7    C     C_R   0.727476 0.633457 0.616492 0.653736
C8    C     C_R   0.772524 0.366543 0.116492 0.653734
O17   O     O_3   0.222280 0.690700 0.500000 -0.372370
O18   O     O_3   0.277720 0.309300 0.000000 -0.372369
O19   O     O_3   0.722280 0.809300 0.500000 -0.372370
O20   O     O_3   0.777720 0.190700 0.000000 -0.372370
V1    V     V_3+5 0.947430 0.761000 0.500000 1.362932
V2    V     V_3+5 0.552570 0.239000 0.000000 1.362929
V3    V     V_3+5 0.447430 0.739000 0.500000 1.362931
V4    V     V_3+5 0.052570 0.261000 0.000000 1.362932
C9    C     C_3   0.897648 0.585189 0.751364 -0.336130
C10   C     C_3   0.602343 0.414815 0.251360 -0.336129
C11   C     C_3   0.397639 0.914806 0.248632 -0.336151
C12   C     C_3   0.102363 0.085195 0.748631 -0.336144
H1    H     H_    0.033656 0.586804 0.717632 0.144121
H2    H     H_    0.466339 0.413202 0.217626 0.144123
H3    H     H_    0.533649 0.913176 0.282361 0.144110
H4    H     H_    0.966352 0.086821 0.782359 0.144114
H5    H     H_    0.873435 0.653760 0.779093 0.134896
H6    H     H_    0.626548 0.346244 0.279090 0.134896
H7    H     H_    0.373403 0.846239 0.220896 0.134906
H8    H     H_    0.126597 0.153763 0.720898 0.134900
C13   C     C_3   0.907316 0.514904 0.825136 -0.306972
C14   C     C_3   0.592675 0.485099 0.325133 -0.306973
C15   C     C_3   0.407324 0.985100 0.174867 -0.306965
C16   C     C_3   0.092685 0.014905 0.674863 -0.306969
H9    H     H_    0.879830 0.550501 0.886699 0.118560
H10   H     H_    0.620152 0.449502 0.386696 0.118562
H11   H     H_    0.379862 0.949510 0.113298 0.118557
H12   H     H_    0.120165 0.050497 0.613297 0.118557
H13   H     H_    0.049727 0.487027 0.831232 0.151215
H14   H     H_    0.450267 0.512980 0.331226 0.151216
H15   H     H_    0.549736 0.012983 0.168786 0.151221
H16   H     H_    0.950273 0.987026 0.668773 0.151218
H17   H     H_    0.902718 0.469452 0.610825 0.149926
H18   H     H_    0.597297 0.530551 0.110823 0.149922
H19   H     H_    0.402767 0.030538 0.389160 0.149936
H20   H     H_    0.097241 0.969460 0.889163 0.149936
C17   C     C_3   0.773871 0.466927 0.649535 -0.308008
C18   C     C_3   0.726141 0.533075 0.149535 -0.308007
C19   C     C_3   0.273894 0.033071 0.350465 -0.307997
C20   C     C_3   0.226106 0.966929 0.850464 -0.308006
C21   C     C_3   0.554136 0.558595 0.740170 -0.337710
C22   C     C_3   0.945859 0.441401 0.240173 -0.337710
C23   C     C_3   0.054132 0.941410 0.259836 -0.337698
C24   C     C_3   0.445870 0.058589 0.759836 -0.337704
C25   C     C_3   0.737652 0.562723 0.687802 0.097162
C26   C     C_3   0.762348 0.437278 0.187801 0.097162
C27   C     C_3   0.237653 0.937277 0.312198 0.097152
C28   C     C_3   0.262347 0.062723 0.812198 0.097157
H21   H     H_    0.435842 0.540315 0.697715 0.147638
H22   H     H_    0.064159 0.459680 0.197721 0.147636
H23   H     H_    0.935850 0.959701 0.302294 0.147632
H24   H     H_    0.564152 0.040300 0.802294 0.147636
H25   H     H_    0.523383 0.626889 0.767881 0.130747
H26   H     H_    0.976605 0.373106 0.267885 0.130745
H27   H     H_    0.023357 0.873115 0.232130 0.130743
H28   H     H_    0.476643 0.126883 0.732128 0.130746
C29   C     C_3   0.761321 0.438182 0.812478 0.098563
C30   C     C_3   0.738679 0.561818 0.312477 0.098561
C31   C     C_3   0.261321 0.061819 0.187523 0.098550
C32   C     C_3   0.238679 0.938182 0.687523 0.098559
C33   C     C_3   0.782966 0.392992 0.721476 0.047000
C34   C     C_3   0.717046 0.607010 0.221476 0.047001
C35   C     C_3   0.282961 0.107009 0.278525 0.046981
C36   C     C_3   0.217029 0.892992 0.778524 0.046988
C37   C     C_3   0.568137 0.487119 0.812954 -0.365481
C38   C     C_3   0.931858 0.512877 0.312957 -0.365482
C39   C     C_3   0.068139 0.012879 0.187045 -0.365475
C40   C     C_3   0.431865 0.987118 0.687048 -0.365480
H29   H     H_    0.545072 0.521367 0.875541 0.140642
H30   H     H_    0.954914 0.478627 0.375545 0.140641
H31   H     H_    0.045087 0.978624 0.124460 0.140643
H32   H     H_    0.454928 0.021370 0.624462 0.140644
H33   H     H_    0.454226 0.436524 0.805061 0.151083
H34   H     H_    0.045774 0.563469 0.305067 0.151081
H35   H     H_    0.954221 0.063472 0.194931 0.151080
H36   H     H_    0.545777 0.936522 0.694937 0.151082
H37   H     H_    0.660230 0.449326 0.604161 0.096465
H38   H     H_    0.839787 0.550673 0.104162 0.096467
H39   H     H_    0.160277 0.050672 0.395854 0.096459
H40   H     H_    0.339728 0.949327 0.895849 0.096461
H41   H     H_    0.655903 0.350249 0.713440 0.071878
H42   H     H_    0.844113 0.649749 0.213443 0.071880
H43   H     H_    0.155885 0.149743 0.286564 0.071896
H44   H     H_    0.344097 0.850254 0.786564 0.071889
C41   C     C_3   0.944960 0.323503 0.709818 -0.351822
C42   C     C_3   0.136679 0.362299 0.686643 -0.754018
H45   H     H_    0.149345 0.370142 0.616336 0.205554
H46   H     H_    0.163733 0.429078 0.716323 0.222769
H47   H     H_    0.246942 0.314228 0.707579 0.195513
H48   H     H_    0.958330 0.280588 0.767595 0.174932
H49   H     H_    0.905517 0.275424 0.657887 0.158004
C43   C     C_3   0.555057 0.676501 0.209816 -0.351824
C44   C     C_3   0.363340 0.637710 0.186633 -0.754017
H50   H     H_    0.350692 0.629862 0.116326 0.205555
H51   H     H_    0.336273 0.570932 0.216315 0.222769
H52   H     H_    0.253075 0.685784 0.207561 0.195512
H53   H     H_    0.541680 0.719414 0.267595 0.174932
H54   H     H_    0.594512 0.724583 0.157888 0.158005
C45   C     C_3   0.444940 0.176509 0.290179 -0.351841
C46   C     C_3   0.636660 0.137726 0.313373 -0.753926
H55   H     H_    0.649313 0.129908 0.383691 0.205530
H56   H     H_    0.663717 0.070928 0.283712 0.222753
H57   H     H_    0.746927 0.185799 0.292424 0.195503
H58   H     H_    0.458320 0.219413 0.232396 0.174935
H59   H     H_    0.405474 0.224597 0.342099 0.157999
C47   C     C_3   0.055041 0.823499 0.790179 -0.351830
C48   C     C_3   0.863320 0.862289 0.813358 -0.753975
H60   H     H_    0.850648 0.870115 0.883670 0.205541
H61   H     H_    0.836274 0.929080 0.783690 0.222762
H62   H     H_    0.753057 0.814220 0.792407 0.195510
H63   H     H_    0.041674 0.780587 0.732399 0.174933
H64   H     H_    0.094491 0.775417 0.842106 0.158001

loop_
_geom_bond_atom_site_label_1
_geom_bond_atom_site_label_2
_ccdc_geom_bond_type
C24   H28   S    
C31   C35   S    
H18   C18   S    
O1    C5    A    
O19   V1    S    
C9    C13   S    
C7    C25   S    
O3    C7    A    
C47   H63   S    
C10   H6    S    
C40   H32   S    
C48   H62   S    
C11   C15   S    
C8    C26   S    
C45   C46   S    
C22   C38   S    
O7    C3    A    
C18   C34   S    
C43   H54   S    
C5    C27   S    
C34   C43   S    
C46   H56   S    
C33   C41   S    
C44   H51   S    
O4    C8    A    
C17   C25   S    
C22   H22   S    
C2    C31   S    
O1    V3    S    
O13   V1    S    
C43   C44   S    
C18   C26   S    
O2    V4    S    
O3    V1    S    
C42   H45   S    
C14   C30   S    
C1    O15   A    
C2    O16   A    
O2    C6    A    
C10   C14   S    
C15   C31   S    
C11   H7    S    
C10   C26   S    
C9    C25   S    
C29   C37   S    
O11   C7    A    
O15   V3    S    
O12   C8    A    
C45   H59   S    
C34   H42   S    
O10   V2    S    
C33   H41   S    
C6    C28   S    
C38   H30   S    
O5    V1    S    
C3    C30   S    
C22   H26   S    
C47   H64   S    
O4    V2    S    
C21   H25   S    
C43   H53   S    
O8    V4    S    
C12   H4    S    
O7    V3    S    
C19   H39   S    
C21   H21   S    
O18   V4    S    
C15   H11   S    
C20   H40   S    
C30   C34   S    
C39   H31   S    
C9    H1    S    
C17   H37   S    
C16   C32   S    
C37   H33   S    
C24   C28   S    
C11   H3    S    
O5    C1    A    
C13   H9    S    
O8    C4    A    
C14   H14   S    
C23   C39   S    
O9    C5    A    
C24   H24   S    
O11   V3    S    
C42   H47   S    
C17   C33   S    
C41   H48   S    
C46   H57   S    
O14   V2    S    
O6    V2    S    
C19   C27   S    
C44   H52   S    
C23   H23   S    
C48   H60   S    
C40   H36   S    
C15   H15   S    
O16   V4    S    
O9    V1    S    
C16   H16   S    
C3    O13   A    
C19   C35   S    
C10   H2    S    
O17   V3    S    
C13   C29   S    
C32   C36   S    
C48   H61   S    
O6    C2    A    
H17   C17   S    
C21   C37   S    
O12   V4    S    
C31   C39   S    
C14   H10   S    
H19   C19   S    
C30   C38   S    
H20   C20   S    
C9    H5    S    
O10   C6    A    
O20   V2    S    
C47   C48   S    
C11   C27   S    
C44   H50   S    
C35   C45   S    
C45   H58   S    
C22   C26   S    
C21   C25   S    
C24   C40   S    
C20   C36   S    
C4    C29   S    
C12   C16   S    
C23   C27   S    
C20   C28   S    
C37   H29   S    
C42   H46   S    
C12   H8    S    
C41   H49   S    
C1    C32   S    
C13   H13   S    
C36   H44   S    
C16   H12   S    
C35   H43   S    
C4    O14   A    
C36   C47   S    
C32   C40   S    
C39   H35   S    
C41   C42   S    
C38   H34   S    
C23   H27   S    
C29   C33   S    
C12   C28   S    
C46   H55   S    
C18   H38   S    
