data_mof_unit_11038.cif
_audit_creation_date              2013-03-05T15:46:33-0500
_audit_creation_method            fapswitch 2.2
_symmetry_space_group_name_H-M    P1
_symmetry_Int_Tables_number       1
_space_group_crystal_system       triclinic
_cell_length_a                    10.163599
_cell_length_b                    10.702134
_cell_length_c                    10.572783
_cell_angle_alpha                 90.097385
_cell_angle_beta                  92.168141
_cell_angle_gamma                 79.906219
_cell_volume                      1131.40024416

loop_
_atom_site_label
_atom_site_type_symbol
_atom_site_description
_atom_site_fract_x
_atom_site_fract_y
_atom_site_fract_z
_atom_type_partial_charge
O1    O     O_R   0.568940 0.489660 0.307530 -0.545925
O2    O     O_R   0.431060 0.510340 0.692470 -0.580234
O3    O     O_R   0.348880 0.522640 0.340350 -0.616057
O4    O     O_R   0.651120 0.477360 0.659650 -0.612177
C1    C     C_R   0.447549 0.512975 0.265310 0.951900
C2    C     C_R   0.552352 0.495720 0.734251 0.884076
O5    O     O_R   0.610030 0.300280 0.483580 -0.605925
O6    O     O_R   0.389970 0.699720 0.516420 -0.623057
O7    O     O_R   0.389970 0.333270 0.516400 -0.605426
O8    O     O_R   0.610030 0.666730 0.483600 -0.630258
C3    C     C_R   0.507455 0.261613 0.523242 0.880603
C4    C     C_R   0.497198 0.742907 0.495791 0.828570
Zn1   Zn    Zn3+2 0.646940 0.477980 0.478080 1.046224
Zn2   Zn    Zn3+2 0.353060 0.522020 0.521920 1.035462
H1    H     H_    0.147518 0.180654 0.786613 0.212515
H2    H     H_    0.903057 0.845204 0.307017 0.188194
C5    C     C_R   0.763252 0.076493 0.504399 -0.108831
C6    C     C_R   0.264283 0.932061 0.595915 -0.155834
C7    C     C_R   0.860087 0.008277 0.428127 0.424119
C8    C     C_R   0.175866 0.009167 0.675288 0.355358
C9    C     C_R   0.831567 0.899833 0.368095 -0.208765
C10   C     C_R   0.211845 0.120175 0.723710 -0.176972
C11   C     C_R   0.711693 0.858472 0.388492 -0.220675
C12   C     C_R   0.328678 0.157383 0.687359 -0.181839
C13   C     C_R   0.613398 0.925589 0.467489 0.095837
C14   C     C_R   0.415101 0.082355 0.604592 0.091597
C15   C     C_R   0.634409 0.043377 0.512143 0.017755
C16   C     C_R   0.391667 0.962002 0.567534 0.021893
C17   C     C_R   0.495186 0.880216 0.501858 -0.171350
C18   C     C_R   0.524070 0.127673 0.557175 -0.199343
H3    H     H_    0.789027 0.155778 0.557554 0.200816
H4    H     H_    0.225768 0.854690 0.552626 0.232901
H5    H     H_    0.698124 0.774693 0.338352 0.190951
H6    H     H_    0.352221 0.245258 0.725440 0.174327
C19   C     C_2   0.426636 0.538919 0.130132 -0.417981
C20   C     C_2   0.573450 0.508811 0.869068 -0.390053
C21   C     C_2   0.511795 0.599836 0.069585 0.208390
C22   C     C_2   0.502778 0.606309 0.931747 0.226010
H7    H     H_    0.637961 0.431868 0.919910 0.168448
H8    H     H_    0.346856 0.502804 0.078421 0.173045
H9    H     H_    0.886645 0.568488 0.588148 0.175018
H10   H     H_    0.111662 0.444428 0.401364 0.186069
N1    N     N_2   0.157300 0.551390 0.551120 -0.024995
N2    N     N_2   0.842700 0.448610 0.448880 -0.012910
C23   C     C_2   0.073149 0.497578 0.483278 0.009493
C24   C     C_2   0.925779 0.509097 0.510227 0.005595
N3    N     N_R   0.985131 0.050328 0.409707 0.220126
O9    O     O_R   0.073725 0.987151 0.337099 -0.396804
O10   O     O_R   0.010143 0.154052 0.462409 -0.393946
N4    N     N_R   0.049761 0.975227 0.706623 0.213532
O11   O     O_R   0.972606 0.043398 0.785764 -0.386936
O12   O     O_R   0.009299 0.877705 0.654695 -0.385377
N5    N     N_2   0.439463 0.721909 0.870087 -0.305040
H11   H     H_    0.430109 0.726132 0.772903 0.257001
C25   C     C_3   0.340027 0.807171 0.937989 -0.615999
H12   H     H_    0.304335 0.893661 0.880781 0.228257
H13   H     H_    0.383910 0.837848 0.028029 0.221173
H14   H     H_    0.253896 0.760084 0.957805 0.278579
N6    N     N_2   0.602298 0.665919 0.137836 -0.281445
H15   H     H_    0.552956 0.734996 0.195452 0.193933
C26   C     C_3   0.709225 0.705033 0.069148 -0.611535
H16   H     H_    0.779621 0.741948 0.135903 0.229395
H17   H     H_    0.668029 0.781300 0.000066 0.233248
H18   H     H_    0.766656 0.622790 0.019372 0.272504
N7    N     N_R   0.877435 0.401855 0.329288 0.312812
O13   O     O_R   0.826061 0.306429 0.286319 -0.314174
O14   O     O_R   0.921913 0.473932 0.247673 -0.413625
N8    N     N_R   0.124741 0.581866 0.675701 0.301926
O15   O     O_R   0.181210 0.667182 0.732865 -0.348933
O16   O     O_R   0.075495 0.502206 0.745382 -0.405228

loop_
_geom_bond_atom_site_label_1
_geom_bond_atom_site_label_2
_geom_bond_distance
_ccdc_geom_bond_type
C26   H18   1.110844 S    
N4    O12   1.300483 A    
H9    C24   1.084123 S    
H2    C9    1.082621 S    
C4    C17   1.467382 S    
C13   C15   1.393652 A    
N1    C23   1.304787 D    
C14   C16   1.402865 A    
N3    O9    1.301685 A    
O6    C4    1.282101 A    
O7    Zn2   1.990046 S    
O3    C1    1.292049 A    
C25   H12   1.105369 S    
C25   H13   1.109546 S    
N4    O11   1.301686 A    
C6    C16   1.429697 A    
N6    H15   1.029911 S    
N3    O10   1.301330 A    
O2    C2    1.277009 A    
N5    H11   1.028649 S    
Zn1   N2    1.994907 S    
C15   C18   1.408016 A    
O5    C3    1.272345 A    
O7    C3    1.300698 A    
C12   C14   1.410877 A    
C22   N5    1.435835 S    
N2    N7    1.394088 S    
C21   N6    1.429354 S    
O3    Zn2   1.918559 S    
O8    C4    1.295948 A    
C8    N4    1.442250 S    
O1    C1    1.278481 A    
C1    C19   1.456901 S    
O4    C2    1.287885 A    
C16   C17   1.444181 A    
C5    C7    1.399322 A    
C21   C22   1.457745 S    
C2    C20   1.443633 S    
C14   C18   1.394376 A    
C7    N3    1.440538 S    
N5    C25   1.448730 S    
C9    C11   1.391424 A    
C13   C17   1.431599 A    
C26   H16   1.107268 S    
O2    Zn2   1.937384 S    
C10   C12   1.384587 A    
N6    C26   1.450489 S    
C6    H4    1.071046 S    
H10   C23   1.082944 S    
C19   H8    1.086913 S    
C20   C22   1.347146 D    
C5    C15   1.420568 A    
C23   C24   1.518968 S    
O5    Zn1   2.003231 S    
C11   C13   1.421676 A    
O1    Zn1   1.937382 S    
C6    C8    1.409797 A    
N8    O16   1.303716 A    
N7    O13   1.299760 A    
N8    O15   1.297655 A    
C25   H14   1.110418 S    
O4    Zn1   1.918560 S    
C26   H17   1.110892 S    
N1    N8    1.394458 S    
O6    Zn2   2.003232 S    
N2    C24   1.304393 D    
C19   C21   1.350954 D    
C7    C9    1.391162 A    
C20   H7    1.087432 S    
H1    C10   1.082491 S    
C12   H6    1.083561 S    
C5    H3    1.081483 S    
N7    O14   1.303059 A    
C3    C18   1.457502 S    
C8    C10   1.394021 A    
Zn2   N1    1.994909 S    
C11   H5    1.067778 S    
O8    Zn1   1.990047 S    
