data_mof_unit_41950.cif
_audit_creation_date              2012-12-11T16:48:26-0500
_audit_creation_method            fapswitch 2.2
_symmetry_space_group_name_H-M    P1
_symmetry_Int_Tables_number       1
_space_group_crystal_system       triclinic
_cell_length_a                    17.3902
_cell_length_b                    24.520032
_cell_length_c                    15.001051
_cell_angle_alpha                 90.344764
_cell_angle_beta                  125.941841
_cell_angle_gamma                 90.014354
_cell_volume                      5178.59902084

loop_
_atom_site_label
_atom_site_type_symbol
_atom_type_description
_atom_site_fract_x
_atom_site_fract_y
_atom_site_fract_z
_atom_type_partial_charge
Br1   Br    Br    0.472738 0.226621 0.804270 -0.479061
Br2   Br    Br    0.691300 0.677843 0.236972 -0.554277
Br3   Br    Br    0.756215 0.179714 0.783474 -0.543494
Br4   Br    Br    0.200732 0.181473 0.235254 -0.537963
Br5   Br    Br    0.462821 0.211624 0.098816 -0.505021
Br6   Br    Br    0.974000 0.723080 0.812868 -0.501586
Br7   Br    Br    0.784212 0.873968 0.196624 -0.493588
Br8   Br    Br    0.621203 0.415100 0.513734 -0.501612
Br9   Br    Br    0.391001 0.331362 0.507697 -0.454611
Br10  Br    Br    0.123957 0.834168 0.500692 -0.500681
Br11  Br    Br    0.891758 0.911662 0.499439 -0.444296
Br12  Br    Br    0.240951 0.668902 0.767423 -0.550644
C1    C     C_R   0.339691 0.353193 0.904532 -0.106421
C2    C     C_R   0.435985 0.497405 0.634551 0.058455
C3    C     C_R   0.057144 0.847147 0.910027 -0.104640
C4    C     C_R   0.360887 0.324636 0.993436 0.155615
C5    C     C_R   0.619253 0.317152 0.001208 0.110346
C6    C     C_R   0.814089 0.858627 0.997192 0.101830
C7    C     C_R   0.116946 0.816539 0.003896 0.113465
C8    C     C_1   0.852266 0.292405 0.289701 0.115166
C9    C     C_1   0.119559 0.309983 0.753425 0.132976
C10   C     C_1   0.353456 0.795855 0.292520 0.121558
C11   C     C_1   0.596352 0.813080 0.693642 0.105876
C12   C     C_R   0.065917 0.998459 0.367219 0.069447
C13   C     C_R   0.044596 0.998480 0.719314 0.058659
C14   C     C_R   0.200998 0.496716 0.631317 0.109789
C15   C     C_R   0.824600 0.498624 0.277180 0.086711
C16   C     C_R   0.677409 0.997465 0.667254 0.115919
C17   C     C_R   0.299053 0.998370 0.367355 0.099892
C18   C     C_2   0.978366 0.454267 0.361043 -0.102617
C19   C     C_2   0.077194 0.451606 0.459499 -0.079009
C20   C     C_2   0.425403 0.954203 0.532838 -0.091392
C21   C     C_R   0.645404 0.348321 0.090953 -0.149057
C22   C     C_2   0.528100 0.958290 0.609453 -0.119329
C23   C     C_2   0.927048 0.499967 0.335345 -0.158464
C24   C     C_2   0.128038 0.496547 0.512892 -0.179758
C25   C     C_2   0.375574 0.999283 0.483705 -0.176201
C26   C     C_2   0.575599 0.995669 0.593936 -0.159688
C27   C     C_R   0.297622 0.712596 0.106565 0.090103
C28   C     C_R   0.627841 0.753624 0.894972 0.122027
C29   C     C_R   0.791615 0.206434 0.106193 0.119996
C30   C     C_R   0.155881 0.271185 0.972086 0.171075
C31   C     C_R   0.262083 0.683300 0.010098 0.027234
C32   C     C_R   0.813751 0.871758 0.907700 -0.107684
C33   C     C_R   0.638407 0.739907 0.991565 0.001992
C34   C     C_R   0.755264 0.176211 0.010512 0.020305
C35   C     C_R   0.186681 0.219207 0.012167 0.022379
C36   C     C_R   0.163936 0.683242 0.927088 -0.196159
C37   C     C_R   0.684069 0.777048 0.080056 -0.191653
C38   C     C_R   0.658324 0.180083 0.924038 -0.192326
C39   C     C_R   0.279825 0.202723 0.055758 -0.222108
C40   C     C_R   0.605035 0.222879 0.924161 0.363913
C41   C     C_R   0.337865 0.236286 0.045488 0.346641
C42   C     C_R   0.107443 0.722928 0.929443 0.330528
C43   C     C_R   0.144661 0.848586 0.092606 -0.147382
C44   C     C_R   0.732388 0.822049 0.078393 0.328795
C45   C     C_R   0.651659 0.261710 0.010834 -0.070545
C46   C     C_R   0.300426 0.285421 0.989366 -0.093524
C47   C     C_R   0.151896 0.761923 0.015570 -0.081592
C48   C     C_R   0.737166 0.828848 0.988491 -0.101600
C49   C     C_R   0.412082 0.633702 0.092135 -0.159765
C50   C     C_R   0.557581 0.650353 0.909182 -0.154328
C51   C     C_R   0.904225 0.124634 0.092575 -0.139012
C52   C     C_R   0.062506 0.149758 0.911022 -0.178464
C53   C     C_R   0.740568 0.248543 0.107148 0.095576
C54   C     C_R   0.327127 0.651848 0.001733 0.000982
C55   C     C_R   0.211697 0.303633 0.958251 0.024900
C56   C     C_R   0.243223 0.751248 0.110365 0.058309
C57   C     C_R   0.677454 0.797393 0.892980 0.081473
C58   C     C_3   0.828633 0.282936 0.179144 -0.193863
C59   C     C_3   0.126922 0.326589 0.852777 -0.175653
C60   C     C_3   0.327929 0.788440 0.180591 -0.162329
C61   C     C_3   0.589669 0.817392 0.786848 -0.183101
C62   C     C_3   0.387205 0.745320 0.175348 -0.480997
C63   C     C_3   0.536466 0.770053 0.790344 -0.487385
C64   C     C_3   0.884291 0.236203 0.176911 -0.488983
C65   C     C_R   0.615290 0.683664 0.999823 0.021781
C66   C     C_3   0.065376 0.291144 0.870914 -0.478916
C67   C     C_R   0.405776 0.444881 0.475613 0.055754
C68   C     C_R   0.422366 0.445951 0.396811 -0.020743
C69   C     C_R   0.088323 0.947580 0.611708 -0.024132
C70   C     C_R   0.101685 0.946989 0.529941 0.053288
C71   C     C_R   0.401178 0.494291 0.519893 0.054638
C72   C     C_R   0.425270 0.495248 0.352614 0.098072
C73   C     C_R   0.085696 0.996568 0.658129 0.090375
C74   C     C_R   0.101575 0.996337 0.482932 0.049890
C75   C     C_R   0.381597 0.542233 0.458974 -0.155204
C76   C     C_R   0.819614 0.143626 0.002100 0.007839
C77   C     C_R   0.393153 0.542595 0.374345 -0.170291
C78   C     C_R   0.112809 0.044632 0.632201 -0.151237
C79   C     C_R   0.119644 0.044680 0.543653 -0.144075
C80   C     C_3   0.487597 0.397728 0.443698 0.083039
C81   C     C_3   0.466585 0.395103 0.528107 0.072549
C82   C     C_3   0.044491 0.895530 0.480604 0.072725
C83   C     C_3   0.025965 0.897729 0.567307 0.101461
C84   C     C_R   0.486937 0.452852 0.254427 -0.049106
C85   C     C_R   0.450399 0.452994 0.697914 -0.145296
C86   C     C_R   0.050878 0.953761 0.303048 -0.130007
C87   C     C_R   0.124314 0.180005 0.004195 0.022606
C88   C     C_R   0.019677 0.953314 0.752374 -0.042374
C89   C     C_R   0.247781 0.542774 0.692943 -0.075376
C90   C     C_R   0.768760 0.544520 0.249754 -0.073964
C91   C     C_R   0.732378 0.043737 0.713314 -0.105221
C92   C     C_R   0.253998 0.043977 0.305301 -0.097480
C93   C     C_R   0.495178 0.543885 0.266140 -0.090095
C94   C     C_R   0.452988 0.543904 0.697183 -0.098367
C95   C     C_R   0.049087 0.044333 0.304244 -0.109053
C96   C     C_R   0.015837 0.044732 0.746564 -0.096233
C97   C     C_R   0.246631 0.452379 0.697850 -0.122987
C98   C     C_R   0.466597 0.497650 0.292560 0.060736
C99   C     C_R   0.767349 0.453128 0.250108 -0.084377
C100  C     C_R   0.734888 0.952841 0.714127 -0.104883
C101  C     C_R   0.252936 0.953259 0.302009 -0.103064
C102  C     C_R   0.318848 0.634770 0.908223 0.310634
C103  C     C_R   0.644522 0.652488 0.092068 0.282756
C104  C     C_R   0.816796 0.132793 0.909030 0.289668
C105  C     C_R   0.149568 0.150308 0.093597 0.307916
C106  C     C_R   0.432322 0.350848 0.088560 -0.128329
C107  C     C_R   0.559240 0.348361 0.908286 -0.073184
C108  C     C_R   0.903496 0.872709 0.091218 -0.066866
H1    H     H_    0.292755 0.342059 0.818569 0.121432
H2    H     H_    0.683331 0.771925 0.150561 0.223910
H3    H     H_    0.626237 0.152744 0.853751 0.186987
H4    H     H_    0.304970 0.162566 0.091035 0.175928
H5    H     H_    0.829606 0.320594 0.138845 0.147617
H6    H     H_    0.117809 0.371088 0.857959 0.153131
H7    H     H_    0.323809 0.827248 0.140012 0.154057
H8    H     H_    0.565240 0.857958 0.794279 0.148208
H9    H     H_    0.415111 0.758438 0.128442 0.212970
H10   H     H_    0.482044 0.782761 0.802947 0.213338
H11   H     H_    0.915552 0.246175 0.132116 0.214309
H12   H     H_    0.678354 0.334197 0.173933 0.130905
H13   H     H_    0.023387 0.315263 0.891245 0.208383
H14   H     H_    0.440530 0.725584 0.255537 0.197906
H15   H     H_    0.510895 0.739116 0.723808 0.193398
H16   H     H_    0.933928 0.215785 0.257466 0.198002
H17   H     H_    0.024309 0.258612 0.808013 0.197061
H18   H     H_    0.369279 0.580596 0.484512 0.125882
H19   H     H_    0.387166 0.580923 0.335341 0.122164
H20   H     H_    0.117978 0.083162 0.670921 0.129024
H21   H     H_    0.127994 0.083393 0.516025 0.134219
H22   H     H_    0.460090 0.362200 0.386366 0.152990
H23   H     H_    0.758811 0.862831 0.823351 0.105949
H24   H     H_    0.530169 0.401619 0.614082 0.152993
H25   H     H_    0.979707 0.900255 0.395267 0.182823
H26   H     H_    0.056482 0.862966 0.625472 0.155979
H27   H     H_    0.444779 0.644491 0.176483 0.131875
H28   H     H_    0.512850 0.662500 0.823936 0.131147
H29   H     H_    0.930601 0.127448 0.177928 0.129837
H30   H     H_    0.025760 0.162380 0.826444 0.129311
H31   H     H_    0.474399 0.410714 0.261076 0.102128
H32   H     H_    0.427727 0.411579 0.670365 0.146683
H33   H     H_    0.074104 0.912636 0.330695 0.137842
H34   H     H_    0.178599 0.835634 0.176495 0.117762
H35   H     H_    0.034212 0.911127 0.747762 0.105005
H36   H     H_    0.241757 0.582102 0.657776 0.155030
H37   H     H_    0.792193 0.586164 0.259024 0.155226
H38   H     H_    0.709456 0.084511 0.684926 0.172364
H39   H     H_    0.265025 0.084590 0.338348 0.167371
H40   H     H_    0.498742 0.584585 0.295299 0.103673
H41   H     H_    0.436776 0.585555 0.668840 0.094506
H42   H     H_    0.067443 0.085953 0.333716 0.106580
H43   H     H_    0.023874 0.086749 0.732466 0.099886
H44   H     H_    0.238662 0.410372 0.671405 0.108178
H45   H     H_    0.959715 0.539247 0.370424 0.146391
H46   H     H_    0.787800 0.410806 0.261199 0.096030
H47   H     H_    0.716006 0.911267 0.685152 0.115876
H48   H     H_    0.261246 0.911404 0.328328 0.102434
H49   H     H_    0.469312 0.336310 0.172023 0.139443
H50   H     H_    0.519192 0.335761 0.823077 0.163885
H51   H     H_    0.931613 0.865784 0.176163 0.152353
H52   H     H_    0.015865 0.833284 0.825519 0.161489
H53   H     H_    0.943237 0.415498 0.324636 0.124487
H54   H     H_    0.100485 0.412012 0.498389 0.132832
H55   H     H_    0.396100 0.913804 0.501301 0.139641
H56   H     H_    0.108882 0.535947 0.473192 0.142010
H57   H     H_    0.565446 0.927448 0.672501 0.125743
H58   H     H_    0.404932 0.039060 0.521084 0.158005
H59   H     H_    0.539899 0.026549 0.530520 0.155204
H60   H     H_    0.132573 0.655170 0.858076 0.198779
N1    N     N_R   0.395410 0.396350 0.944340 -0.053470
N2    N     N_R   0.474920 0.471030 0.794350 -0.044522
N3    N     N_R   0.025080 0.971030 0.205650 -0.044280
N4    N     N_R   0.974920 0.971030 0.794350 -0.046309
N5    N     N_R   0.320260 0.527820 0.794570 -0.053420
N6    N     N_R   0.679740 0.527820 0.205430 -0.038839
N7    N     N_R   0.820260 0.027820 0.794570 -0.051662
N8    N     N_R   0.179740 0.027820 0.205430 -0.048040
N9    N     N_R   0.524590 0.527840 0.205200 -0.040278
N10   N     N_R   0.475410 0.527840 0.794800 -0.042913
N11   N     N_R   0.024590 0.027840 0.205200 -0.041065
N12   N     N_R   0.604590 0.396350 0.055660 -0.050801
N13   N     N_R   0.975410 0.027840 0.794800 -0.043594
N14   N     N_R   0.320750 0.471000 0.795020 -0.053434
N15   N     N_R   0.679250 0.471000 0.204980 -0.047911
N16   N     N_R   0.820750 0.971000 0.795020 -0.050562
N17   N     N_R   0.179250 0.971000 0.204980 -0.052222
N18   N     N_R   0.393620 0.602490 0.942710 -0.077503
N19   N     N_R   0.606380 0.602490 0.057290 -0.076582
N20   N     N_R   0.893620 0.102490 0.942710 -0.071061
N21   N     N_R   0.106380 0.102490 0.057290 -0.079473
N22   N     N_R   0.451720 0.396350 0.057510 -0.056136
N23   N     N_R   0.895410 0.896350 0.944340 -0.045450
N24   N     N_R   0.548280 0.396350 0.942490 -0.053280
N25   N     N_R   0.951720 0.896350 0.057510 -0.055315
N26   N     N_R   0.048280 0.896350 0.942490 -0.057860
N27   N     N_1   0.870923 0.299914 0.376611 -0.067752
N28   N     N_1   0.113367 0.296902 0.675168 -0.076511
N29   N     N_1   0.373473 0.801741 0.380416 -0.083446
N30   N     N_1   0.601454 0.809678 0.620281 -0.060766
N31   N     N_R   0.104590 0.896350 0.055660 -0.048479
N32   N     N_R   0.449930 0.602500 0.055880 -0.055176
N33   N     N_R   0.550070 0.602500 0.944120 -0.062773
N34   N     N_R   0.949930 0.102500 0.055880 -0.055905
N35   N     N_R   0.050070 0.102500 0.944120 -0.061576
N36   N     N_R   0.525080 0.471030 0.205650 -0.048003
Ni1   Ni    Ni4+2 0.435420 0.434270 0.870230 0.223941
Ni2   Ni    Ni4+2 0.564580 0.434270 0.129770 0.244778
Ni3   Ni    Ni4+2 0.935420 0.934270 0.870230 0.253105
Ni4   Ni    Ni4+2 0.064580 0.934270 0.129770 0.219381
Ni5   Ni    Ni4+2 0.563430 0.564580 0.128740 0.275999
Ni6   Ni    Ni4+2 0.436570 0.564580 0.871260 0.230310
Ni7   Ni    Ni4+2 0.063430 0.064580 0.128740 0.248825
Ni8   Ni    Ni4+2 0.936570 0.064580 0.871260 0.256521

loop_
_geom_bond_atom_site_label_1
_geom_bond_atom_site_label_2
_ccdc_geom_bond_type
C43   H34   S    
C71   C75   A    
C93   C98   A    
N25   Ni4   S    
C76   C104  A    
N3    Ni4   S    
C70   C82   S    
C41   C46   A    
C6    C108  A    
N7    N16   A    
C27   C56   A    
C50   C65   A    
N1    N22   A    
N12   Ni2   S    
N5    N14   A    
C68   C72   A    
N35   Ni8   S    
C101  H48   S    
C69   C70   A    
C64   H16   S    
C85   N2    A    
C16   C100  A    
C36   C42   A    
C25   H58   S    
N23   N25   A    
C90   N6    A    
C18   C23   D    
C9    C59   S    
C21   N12   A    
C12   C86   A    
C108  N25   A    
Br7   C44   S    
C9    N28   T    
Br5   C41   S    
N18   Ni6   S    
N36   Ni2   S    
C67   C81   S    
C4    C106  A    
Br3   C104  S    
N10   Ni6   S    
C14   C89   A    
C18   C19   S    
C104  N20   A    
C64   H11   S    
C63   H15   S    
C27   C62   S    
C93   H40   S    
N7    Ni8   S    
Br10  C82   S    
C7    C43   A    
N4    N13   A    
C10   N29   T    
C48   C57   A    
C35   C87   S    
C62   H9    S    
N33   Ni6   S    
C94   H41   S    
C86   N3    A    
C100  N16   A    
C52   N35   A    
N26   N31   A    
N13   Ni8   S    
N21   N35   A    
C77   H19   S    
C32   N23   A    
N20   N34   A    
C29   C34   A    
C59   H6    S    
C57   C61   S    
N19   Ni5   S    
C33   C37   A    
C35   C39   A    
N17   Ni4   S    
C80   H22   S    
C31   C36   A    
C18   H53   S    
Br12  C102  S    
C63   H10   S    
N32   Ni5   S    
C82   H25   S    
C86   H33   S    
C15   C99   A    
C50   H28   S    
C6    C48   S    
C39   H4    S    
C61   C63   S    
C8    C58   S    
C106  N22   A    
C83   H26   S    
C5    C21   A    
C2    C71   S    
C11   C61   S    
C105  N21   A    
C49   C54   A    
C90   H37   S    
C10   C60   S    
C96   H43   S    
N14   Ni1   S    
C34   C76   S    
C42   C47   A    
C52   C87   A    
C28   C33   A    
C92   N8    A    
C20   H55   S    
C28   C57   A    
C38   H3    S    
C60   H7    S    
C55   C59   S    
N20   Ni8   S    
C93   N9    A    
N6    N15   A    
C91   N7    A    
C60   C62   S    
Br9   C81   S    
C40   C45   A    
C12   C95   A    
C29   C53   A    
C89   H36   S    
C7    C47   S    
C70   C74   A    
C84   H31   S    
C84   C98   A    
C72   C98   S    
C44   C48   A    
C17   C92   A    
C52   H30   S    
C39   C41   A    
C49   N32   A    
C20   C22   S    
C68   C80   S    
C3    C7    A    
N31   Ni4   S    
N9    N36   A    
C6    C32   A    
C47   C56   A    
C87   C105  A    
C51   C76   A    
C1    H1    S    
Br2   C103  S    
C13   C88   A    
C38   C40   A    
C95   H42   S    
C16   C26   S    
C56   C60   S    
C13   C73   S    
N12   N24   A    
C97   N14   A    
C108  H51   S    
C99   H46   S    
C4    C46   S    
C20   C25   D    
C14   C97   A    
C81   H24   S    
Br8   C80   S    
C88   H35   S    
C14   C24   S    
N6    Ni5   S    
Br6   C42   S    
C1    N1    A    
N5    Ni6   S    
C75   C77   A    
C58   C64   S    
C30   C55   A    
C50   N33   A    
Br4   C105  S    
N4    Ni3   S    
C72   C77   A    
C94   N10   A    
C75   H18   S    
C95   N11   A    
C37   C44   A    
C66   H17   S    
N11   Ni7   S    
C36   H60   S    
N16   Ni3   S    
N18   N32   A    
C21   H12   S    
C2    C85   A    
Br11  C83   S    
C17   C101  A    
C26   H59   S    
C54   C102  A    
C22   C26   D    
Br1   C40   S    
C107  N24   A    
C45   C53   A    
C97   H44   S    
N3    N11   A    
C27   C31   A    
C73   C78   A    
C91   H38   S    
C24   H56   S    
C11   N30   T    
N26   Ni3   S    
C61   H8    S    
C99   N15   A    
C34   C38   A    
C15   C90   A    
C30   C66   S    
C84   N36   A    
C28   C63   S    
N23   Ni3   S    
N24   Ni1   S    
C74   C79   A    
C15   C23   S    
N22   Ni2   S    
N21   Ni7   S    
N19   N33   A    
C49   H27   S    
C29   C64   S    
N1    Ni1   S    
C92   H39   S    
C100  H47   S    
C16   C91   A    
C78   C79   A    
C103  N19   A    
N8    N17   A    
C32   H23   S    
C69   C83   S    
C37   H2    S    
C62   H14   S    
C80   C81   S    
C23   H45   S    
C85   H32   S    
C3    H52   S    
C106  H49   S    
N9    Ni5   S    
C30   C35   A    
C59   C66   S    
C51   N34   A    
C58   H5    S    
C82   C83   S    
C88   N4    A    
C66   H13   S    
C3    N26   A    
N34   Ni7   S    
C5    C107  A    
C107  H50   S    
C43   N31   A    
C67   C68   A    
C67   C71   A    
N8    Ni7   S    
C46   C55   A    
C2    C94   A    
C13   C96   A    
N2    Ni1   S    
C89   N5    A    
C102  N18   A    
C1    C4    A    
C17   C25   S    
C101  N17   A    
C19   C24   D    
C22   H57   S    
C33   C65   S    
C78   H20   S    
N2    N10   A    
C8    N27   T    
C51   H29   S    
C96   N13   A    
C65   C103  A    
C12   C74   S    
N15   Ni2   S    
C69   C73   A    
C53   C58   S    
C31   C54   S    
C5    C45   S    
C79   H21   S    
C19   H54   S    
