data_mof_unit_40571.cif
_audit_creation_date              2012-12-10T21:02:58-0500
_audit_creation_method            fapswitch 2.2
_symmetry_space_group_name_H-M    P1
_symmetry_Int_Tables_number       1
_space_group_crystal_system       triclinic
_cell_length_a                    15.845385
_cell_length_b                    15.027483
_cell_length_c                    19.11976
_cell_angle_alpha                 90.719861
_cell_angle_beta                  91.172064
_cell_angle_gamma                 89.53386
_cell_volume                      4551.27248984

loop_
_atom_site_label
_atom_site_type_symbol
_atom_type_description
_atom_site_fract_x
_atom_site_fract_y
_atom_site_fract_z
_atom_type_partial_charge
C1    C     C_R   0.338505 0.500524 0.502280 0.897705
C2    C     C_R   0.661315 0.500148 0.497391 0.894863
C3    C     C_1   0.823527 0.506586 0.479626 -0.044934
C4    C     C_1   0.174874 0.505867 0.513661 -0.037032
C5    C     C_1   0.249867 0.502560 0.509304 -0.206626
C6    C     C_1   0.749136 0.502477 0.487054 -0.224969
C7    C     C_R   0.436199 0.952629 0.464831 -0.048584
C8    C     C_R   0.565742 0.046344 0.537254 -0.039025
C9    C     C_R   0.559778 0.952082 0.543604 -0.056299
C10   C     C_R   0.430370 0.047362 0.471964 -0.041873
C11   C     C_R   0.498575 0.904754 0.503448 -0.062630
C12   C     C_R   0.498795 0.095043 0.503977 -0.050865
C13   C     C_1   0.499688 0.806977 0.501720 0.086597
C14   C     C_1   0.500184 0.192924 0.502198 0.067188
C15   C     C_R   0.507894 0.499375 0.364777 0.874218
C16   C     C_R   0.492957 0.500577 0.634933 0.891778
C17   C     C_R   0.555826 0.580184 0.257345 -0.051434
C18   C     C_R   0.465695 0.423142 0.748625 -0.057953
C19   C     C_R   0.479776 0.584737 0.747273 -0.057887
C20   C     C_R   0.535570 0.418060 0.249394 -0.069709
C21   C     C_R   0.565562 0.583376 0.184101 0.103972
C22   C     C_R   0.476542 0.424512 0.822334 0.117678
C23   C     C_R   0.497047 0.586967 0.819485 0.104947
C24   C     C_R   0.549505 0.421358 0.176587 0.112423
C25   C     C_R   0.555622 0.504623 0.144676 0.000559
C26   C     C_R   0.499578 0.505760 0.855848 0.001198
C27   C     C_R   0.531362 0.498953 0.289322 -0.226521
C28   C     C_R   0.480583 0.502285 0.711365 -0.227899
C29   C     C_R   0.515379 0.507872 0.930778 0.307398
C30   C     C_R   0.543264 0.509501 0.069579 0.308176
C31   C     C_R   0.956019 0.589133 0.481229 -0.055994
C32   C     C_R   0.040808 0.428377 0.513513 -0.052739
C33   C     C_R   0.043110 0.589788 0.496945 -0.058358
C34   C     C_R   0.956873 0.426653 0.488642 -0.045457
C35   C     C_R   0.913397 0.507531 0.478170 0.030862
C36   C     C_R   0.084875 0.509165 0.512420 0.013677
N1    N     N_R   0.609147 0.502312 0.025794 -0.191410
N2    N     N_R   0.449924 0.516898 0.974645 -0.196819
N3    N     N_R   0.595309 0.501943 0.957017 -0.190744
N4    N     N_R   0.463737 0.517791 0.043234 -0.183024
N5    N     N_1   0.500000 0.270550 0.500000 -0.086065
N6    N     N_1   0.500000 0.729450 0.500000 -0.078182
O1    O     O_R   0.378020 0.573650 0.500020 -0.605827
O2    O     O_R   0.621980 0.426350 0.499980 -0.611883
O3    O     O_R   0.621980 0.573650 0.499980 -0.611889
O4    O     O_R   0.378020 0.426350 0.500020 -0.606001
O5    O     O_R   0.499990 0.573690 0.398140 -0.596201
O6    O     O_R   0.500010 0.426310 0.601860 -0.599244
O7    O     O_R   0.500010 0.573690 0.601860 -0.604383
O8    O     O_R   0.499990 0.426310 0.398140 -0.608395
Zn1   Zn    Zn3+2 0.500000 0.598370 0.500000 0.985264
Zn2   Zn    Zn3+2 0.500000 0.401630 0.500000 0.976162
C37   C     C_R   0.582342 0.658339 0.300739 0.175828
C38   C     C_R   0.537474 0.739409 0.298625 -0.131832
C39   C     C_R   0.568418 0.813729 0.335274 -0.130207
C40   C     C_R   0.639718 0.805802 0.378801 -0.150282
C41   C     C_R   0.680126 0.723420 0.385778 -0.112297
C42   C     C_R   0.653662 0.650808 0.345129 -0.116541
H1    H     H_    0.480466 0.745757 0.266808 0.124312
H2    H     H_    0.537194 0.877477 0.330379 0.133479
H3    H     H_    0.662431 0.863130 0.408149 0.122072
H4    H     H_    0.731893 0.715494 0.422680 0.162647
H5    H     H_    0.687783 0.588253 0.348984 0.108021
C43   C     C_R   0.425625 0.345912 0.711145 0.157744
C44   C     C_R   0.350501 0.359561 0.671960 -0.134588
C45   C     C_R   0.314797 0.290133 0.632537 -0.087162
C46   C     C_R   0.350755 0.205128 0.634616 -0.110694
C47   C     C_R   0.424174 0.190173 0.674486 -0.177804
C48   C     C_R   0.462794 0.260649 0.711113 -0.158372
H6    H     H_    0.321003 0.424807 0.670246 0.100037
H7    H     H_    0.259549 0.302606 0.600002 0.162988
H8    H     H_    0.322339 0.151152 0.604708 0.132885
H9    H     H_    0.452531 0.124398 0.675409 0.128046
H10   H     H_    0.521796 0.248665 0.738748 0.133595
C49   C     C_R   0.433088 0.660210 0.714932 0.183676
C50   C     C_R   0.473258 0.738113 0.694039 -0.110073
C51   C     C_R   0.425264 0.808461 0.666283 -0.148784
C52   C     C_R   0.337868 0.800803 0.657962 -0.127872
C53   C     C_R   0.297982 0.722991 0.678005 -0.132770
C54   C     C_R   0.345219 0.652933 0.706020 -0.170557
H11   H     H_    0.541017 0.744211 0.699360 0.139725
H12   H     H_    0.455223 0.869258 0.651290 0.138481
H13   H     H_    0.301133 0.855320 0.636342 0.121960
H14   H     H_    0.230389 0.716892 0.672940 0.132200
H15   H     H_    0.313150 0.593306 0.721913 0.117869
C55   C     C_R   0.532031 0.328890 0.282082 0.163625
C56   C     C_R   0.601575 0.297380 0.321630 -0.108037
C57   C     C_R   0.606568 0.207749 0.340260 -0.144248
C58   C     C_R   0.544532 0.148249 0.317030 -0.143827
C59   C     C_R   0.475371 0.179018 0.277535 -0.183712
C60   C     C_R   0.467220 0.269575 0.262782 -0.143422
H16   H     H_    0.652732 0.341653 0.336366 0.126290
H17   H     H_    0.659418 0.183760 0.371291 0.126414
H18   H     H_    0.549642 0.078564 0.330270 0.127126
H19   H     H_    0.426781 0.133200 0.260057 0.137018
H20   H     H_    0.412493 0.292672 0.233382 0.128084
C61   C     C_3   0.594303 0.667815 0.147725 -0.400370
C62   C     C_3   0.690342 0.675133 0.150258 -0.851258
H21   H     H_    0.714208 0.680193 0.205108 0.260212
H22   H     H_    0.719428 0.616009 0.124611 0.263856
H23   H     H_    0.709660 0.735636 0.122143 0.243280
H24   H     H_    0.573033 0.669553 0.092140 0.208721
H25   H     H_    0.565850 0.728707 0.170178 0.197845
C63   C     C_3   0.459234 0.342410 0.866023 -0.407416
C64   C     C_3   0.540660 0.294408 0.888522 -0.875081
H26   H     H_    0.525157 0.228223 0.909775 0.246246
H27   H     H_    0.583428 0.284890 0.843815 0.253176
H28   H     H_    0.574655 0.332458 0.930113 0.273639
H29   H     H_    0.423102 0.361270 0.913117 0.208358
H30   H     H_    0.417467 0.294563 0.838056 0.209528
C65   C     C_3   0.510344 0.675668 0.857694 -0.399597
C66   C     C_3   0.427718 0.715048 0.884532 -0.848181
H31   H     H_    0.384720 0.733247 0.840445 0.264884
H32   H     H_    0.395334 0.667150 0.918278 0.270341
H33   H     H_    0.441309 0.776233 0.915768 0.240848
H34   H     H_    0.555607 0.668261 0.902352 0.209015
H35   H     H_    0.540450 0.724253 0.823112 0.196406
C67   C     C_3   0.564903 0.336792 0.132709 -0.390226
C68   C     C_3   0.486991 0.307618 0.089856 -0.848864
H36   H     H_    0.427779 0.322714 0.117662 0.253889
H37   H     H_    0.484436 0.341510 0.038765 0.269755
H38   H     H_    0.490471 0.234890 0.079167 0.242503
H39   H     H_    0.618003 0.347509 0.096780 0.204473
H40   H     H_    0.587197 0.280515 0.165324 0.213611
C69   C     C_R   0.086341 0.676591 0.505764 0.160099
C70   C     C_R   0.097404 0.712502 0.573386 -0.160965
C71   C     C_R   0.119202 0.801881 0.582765 -0.156884
C72   C     C_R   0.130673 0.855707 0.524860 -0.119360
C73   C     C_R   0.121098 0.820157 0.457361 -0.116781
C74   C     C_R   0.099651 0.730655 0.447694 -0.146200
H41   H     H_    0.084738 0.672556 0.618700 0.112476
H42   H     H_    0.125266 0.830038 0.634982 0.119352
H43   H     H_    0.145619 0.925219 0.532488 0.106512
H44   H     H_    0.129091 0.862299 0.412519 0.139896
H45   H     H_    0.089569 0.704593 0.395154 0.117670
C75   C     C_R   0.918202 0.341937 0.463902 0.138515
C76   C     C_R   0.845612 0.308107 0.494545 -0.118339
C77   C     C_R   0.803268 0.236384 0.463184 -0.126937
C78   C     C_R   0.836277 0.193605 0.404376 -0.139694
C79   C     C_R   0.909429 0.225628 0.374436 -0.141337
C80   C     C_R   0.949095 0.300745 0.403035 -0.183002
H46   H     H_    0.820087 0.339162 0.541021 0.134597
H47   H     H_    0.744379 0.214512 0.484218 0.159562
H48   H     H_    0.804672 0.136382 0.381460 0.115769
H49   H     H_    0.934346 0.193486 0.328194 0.125858
H50   H     H_    0.003807 0.327193 0.377590 0.120745
C81   C     C_R   0.911801 0.674185 0.465197 0.146950
C82   C     C_R   0.903884 0.701653 0.395413 -0.182315
C83   C     C_R   0.878220 0.788726 0.380195 -0.141920
C84   C     C_R   0.859027 0.848317 0.434450 -0.137072
C85   C     C_R   0.865475 0.820909 0.503942 -0.150712
C86   C     C_R   0.891887 0.734172 0.519387 -0.137598
H51   H     H_    0.920969 0.656849 0.353117 0.126368
H52   H     H_    0.873327 0.810014 0.326395 0.132895
H53   H     H_    0.839114 0.915639 0.422649 0.117995
H54   H     H_    0.851417 0.867383 0.545884 0.141809
H55   H     H_    0.900096 0.714755 0.573464 0.118344
C87   C     C_R   0.072671 0.354907 0.558696 0.132922
C88   C     C_R   0.087374 0.268533 0.532606 -0.133519
C89   C     C_R   0.106938 0.199080 0.578446 -0.151630
C90   C     C_R   0.113591 0.215511 0.650374 -0.133783
C91   C     C_R   0.101317 0.301602 0.676684 -0.152793
C92   C     C_R   0.080891 0.370935 0.631179 -0.166317
H56   H     H_    0.083061 0.254588 0.477282 0.132853
H57   H     H_    0.116571 0.132269 0.558523 0.130106
H58   H     H_    0.128939 0.161689 0.685621 0.127358
H59   H     H_    0.106899 0.314499 0.732395 0.132522
H60   H     H_    0.069374 0.436882 0.652643 0.125547
C93   C     C_R   0.349823 0.093062 0.448505 0.112982
C94   C     C_R   0.348978 0.170154 0.407398 -0.144390
C95   C     C_R   0.273399 0.204573 0.379751 -0.133198
C96   C     C_R   0.197308 0.162412 0.392426 -0.119493
C97   C     C_R   0.196361 0.087852 0.435069 -0.150548
C98   C     C_R   0.271668 0.054766 0.464294 -0.148310
H61   H     H_    0.406250 0.203461 0.395080 0.163060
H62   H     H_    0.274127 0.263172 0.347419 0.128465
H63   H     H_    0.139030 0.187906 0.369626 0.114104
H64   H     H_    0.137185 0.055565 0.445398 0.118861
H65   H     H_    0.269476 0.997290 0.497665 0.116038
C99   C     C_R   0.614026 0.904817 0.596789 0.111927
C100  C     C_R   0.614608 0.934692 0.666929 -0.137762
C101  C     C_R   0.663737 0.891199 0.717714 -0.146357
C102  C     C_R   0.712450 0.817050 0.699303 -0.145838
C103  C     C_R   0.712639 0.786823 0.629977 -0.140040
C104  C     C_R   0.664786 0.831099 0.578772 -0.150033
H66   H     H_    0.576062 0.991144 0.682431 0.119317
H67   H     H_    0.663346 0.914477 0.771501 0.129507
H68   H     H_    0.749827 0.782847 0.738781 0.126803
H69   H     H_    0.750041 0.729069 0.615849 0.135528
H70   H     H_    0.667674 0.807674 0.525338 0.133349
C105  C     C_R   0.644408 0.090680 0.564578 0.114554
C106  C     C_R   0.641280 0.163040 0.611749 -0.167900
C107  C     C_R   0.715209 0.196522 0.642976 -0.155520
C108  C     C_R   0.793223 0.157518 0.628131 -0.112049
C109  C     C_R   0.797595 0.086117 0.580872 -0.125721
C110  C     C_R   0.723955 0.053843 0.548381 -0.159856
H71   H     H_    0.581890 0.192523 0.625662 0.144541
H72   H     H_    0.711831 0.252082 0.679417 0.132450
H73   H     H_    0.850334 0.183161 0.652684 0.133454
H74   H     H_    0.858103 0.056432 0.568735 0.130733
H75   H     H_    0.728752 0.998727 0.511591 0.117451
C111  C     C_R   0.381103 0.904621 0.412259 0.115004
C112  C     C_R   0.377282 0.933736 0.342573 -0.144625
C113  C     C_R   0.332448 0.885493 0.291333 -0.151089
C114  C     C_R   0.291553 0.807185 0.308845 -0.145726
C115  C     C_R   0.293645 0.778333 0.377956 -0.116810
C116  C     C_R   0.335626 0.828243 0.429890 -0.132353
H76   H     H_    0.411159 0.992421 0.327485 0.116451
H77   H     H_    0.330837 0.907934 0.237756 0.126825
H78   H     H_    0.258167 0.768916 0.268904 0.125561
H79   H     H_    0.262240 0.717440 0.391428 0.142412
H80   H     H_    0.333812 0.806225 0.483533 0.140231

loop_
_geom_bond_atom_site_label_1
_geom_bond_atom_site_label_2
_ccdc_geom_bond_type
C96   H63   S    
C16   C28   S    
C7    C10   A    
C91   H59   S    
C95   C96   A    
C4    C36   S    
C49   C50   A    
C70   C71   A    
C11   C13   S    
C93   C94   A    
C55   C56   A    
C65   C66   S    
C15   O5    A    
C76   H46   S    
C3    C6    T    
O1    Zn1   S    
C72   C73   A    
C16   O6    A    
C66   H32   S    
C61   C62   S    
C41   C42   A    
C59   H19   S    
C97   C98   A    
C40   C41   A    
C10   C93   S    
C7    C11   A    
C64   H27   S    
C67   H39   S    
C54   H15   S    
C69   C70   A    
C1    C5    S    
C32   C36   A    
C46   H8    S    
C7    C111  S    
C77   H47   S    
C88   C89   A    
C80   H50   S    
C53   H14   S    
C1    O4    A    
C15   O8    A    
C94   C95   A    
O3    Zn1   S    
C8    C105  S    
C44   H6    S    
O4    Zn2   S    
C42   H5    S    
C33   C36   A    
C22   C63   S    
C103  C104  A    
C106  H71   S    
C34   C35   A    
C23   C26   A    
C58   H18   S    
C67   C68   S    
C13   N6    T    
C51   H12   S    
C60   H20   S    
C71   H42   S    
C52   H13   S    
C1    O1    A    
C81   C82   A    
C2    O2    A    
C47   C48   A    
O7    Zn1   S    
C43   C44   A    
C20   C55   S    
C113  H77   S    
C61   H24   S    
O8    Zn2   S    
C93   C98   A    
C31   C33   A    
C65   H34   S    
C114  C115  A    
C34   C75   S    
C49   C54   A    
N5    Zn2   S    
C90   H58   S    
C8    C12   A    
N6    Zn1   S    
C38   H1    S    
C31   C81   S    
C57   C58   A    
O2    Zn2   S    
C108  C109  A    
C76   C77   A    
C39   H2    S    
C2    C6    S    
C72   H43   S    
C115  H79   S    
C63   C64   S    
C100  H66   S    
C90   C91   A    
C32   C87   S    
C94   H61   S    
C68   H37   S    
C2    O3    A    
C64   H28   S    
C111  C112  A    
C46   C47   A    
C17   C27   A    
C20   C24   A    
C111  C116  A    
C104  H70   S    
C29   N2    A    
C18   C28   A    
C24   C25   A    
C63   H30   S    
C77   C78   A    
C56   H16   S    
C57   H17   S    
C115  C116  A    
C8    C9    A    
O5    Zn1   S    
C109  C110  A    
C41   H4    S    
C47   H9    S    
C51   C52   A    
C17   C21   A    
C105  C106  A    
C30   N1    A    
C32   C34   A    
C100  C101  A    
C19   C23   A    
C83   H52   S    
C102  C103  A    
C75   C80   A    
C21   C61   S    
C78   H48   S    
C15   C27   S    
C108  H73   S    
C88   H56   S    
C3    C35   S    
C85   C86   A    
C29   N3    A    
C39   C40   A    
C33   C69   S    
C30   N4    A    
C48   H10   S    
C67   H40   S    
C85   H54   S    
C79   C80   A    
C68   H36   S    
C19   C28   A    
C9    C11   A    
C61   H25   S    
C9    C99   S    
C10   C12   A    
C45   H7    S    
C26   C29   S    
C14   N5    T    
C87   C92   A    
C114  H78   S    
C74   H45   S    
C12   C14   S    
C107  C108  A    
C62   H22   S    
C84   H53   S    
C110  H75   S    
C87   C88   A    
C116  H80   S    
C53   C54   A    
C82   H51   S    
C71   C72   A    
C17   C37   S    
C16   O7    A    
C23   C65   S    
C96   C97   A    
C78   C79   A    
C101  H67   S    
C109  H74   S    
C95   H62   S    
C68   H38   S    
C25   C30   S    
C21   C25   A    
C38   C39   A    
C18   C22   A    
C24   C67   S    
C105  C110  A    
C4    C5    T    
C50   H11   S    
C37   C42   A    
C37   C38   A    
C107  H72   S    
C20   C27   A    
C91   C92   A    
C62   H23   S    
C43   C48   A    
C64   H26   S    
C79   H49   S    
C73   C74   A    
C84   C85   A    
C65   H35   S    
C55   C60   A    
C106  C107  A    
C89   H57   S    
C81   C86   A    
C70   H41   S    
C92   H60   S    
N1    N3    A    
C102  H68   S    
C89   C90   A    
N2    N4    A    
C50   C51   A    
C52   C53   A    
C18   C43   S    
C59   C60   A    
C63   H29   S    
C97   H64   S    
C31   C35   A    
C19   C49   S    
C86   H55   S    
C112  H76   S    
C66   H31   S    
C82   C83   A    
C44   C45   A    
C99   C104  A    
C69   C74   A    
C73   H44   S    
O6    Zn2   S    
C113  C114  A    
C56   C57   A    
C62   H21   S    
C22   C26   A    
C45   C46   A    
C40   H3    S    
C75   C76   A    
C112  C113  A    
C58   C59   A    
C83   C84   A    
C98   H65   S    
C103  H69   S    
C66   H33   S    
C99   C100  A    
C101  C102  A    
