data_mof_unit_36314.cif
_audit_creation_date              2012-12-11T15:54:46-0500
_audit_creation_method            fapswitch 2.2
_symmetry_space_group_name_H-M    P1
_symmetry_Int_Tables_number       1
_space_group_crystal_system       triclinic
_cell_length_a                    6.96731
_cell_length_b                    14.562923
_cell_length_c                    16.09584
_cell_angle_alpha                 89.728804
_cell_angle_beta                  89.852808
_cell_angle_gamma                 90.041442
_cell_volume                      1633.13060759

loop_
_atom_site_label
_atom_site_type_symbol
_atom_type_description
_atom_site_fract_x
_atom_site_fract_y
_atom_site_fract_z
_atom_type_partial_charge
O1    O     O_R   0.638180 0.333920 0.163320 -0.521803
O2    O     O_R   0.361820 0.666080 0.836680 -0.532515
O3    O     O_R   0.308470 0.344960 0.336080 -0.527552
O4    O     O_R   0.691530 0.655040 0.663920 -0.520209
O5    O     O_R   0.138140 0.166110 0.336680 -0.554701
O6    O     O_R   0.861860 0.833890 0.663320 -0.540554
C1    C     C_R   0.477379 0.366277 0.365682 0.800021
C2    C     C_R   0.523033 0.631819 0.635958 0.790991
O7    O     O_R   0.308460 0.344950 0.163930 -0.544817
O8    O     O_R   0.691540 0.655050 0.836070 -0.566294
O9    O     O_R   0.138140 0.166100 0.163310 -0.521229
O10   O     O_R   0.861860 0.833900 0.836690 -0.519717
C3    C     C_R   0.477688 0.367538 0.135547 0.736087
C4    C     C_R   0.522211 0.632219 0.864309 0.714228
O11   O     O_R   0.638180 0.333930 0.336700 -0.514280
O12   O     O_R   0.361820 0.666070 0.663300 -0.513379
O13   O     O_3   0.471670 0.191340 0.250000 -0.374522
O14   O     O_3   0.528330 0.808660 0.750000 -0.366614
V1    V     V_3+5 0.196830 0.260900 0.250000 1.528367
V2    V     V_3+5 0.803170 0.739100 0.750000 1.497626
O15   O     O_R   0.808420 0.155070 0.163920 -0.552653
O16   O     O_R   0.191580 0.844930 0.836080 -0.551253
C5    C     C_R   0.978367 0.132495 0.135383 0.703663
C6    C     C_R   0.022226 0.866220 0.865566 0.695511
O17   O     O_R   0.808420 0.155080 0.336070 -0.505908
O18   O     O_R   0.191580 0.844920 0.663930 -0.520576
C7    C     C_R   0.974930 0.136216 0.367348 0.767907
C8    C     C_R   0.023268 0.865814 0.634817 0.824176
V3    V     V_3+5 0.696830 0.239130 0.250000 1.549621
V4    V     V_3+5 0.303170 0.760870 0.750000 1.533039
O19   O     O_3   0.971850 0.308690 0.250010 -0.358670
O20   O     O_3   0.028150 0.691310 0.749990 -0.371484
H1    H     H_    0.186388 0.843500 0.254877 0.156145
H2    H     H_    0.718591 0.141001 0.740442 0.175495
C9    C     C_R   0.788102 0.165012 0.532749 0.442958
C10   C     C_R   0.140479 0.821738 0.463886 0.498239
C11   C     C_R   0.723351 0.183948 0.612932 0.584662
C12   C     C_R   0.185785 0.799251 0.382020 0.634375
C13   C     C_R   0.766771 0.125193 0.678123 -0.267241
C14   C     C_R   0.157616 0.862559 0.318620 -0.320862
C15   C     C_R   0.867068 0.044581 0.663158 -0.247757
C16   C     C_R   0.087959 0.949671 0.336624 -0.266529
C17   C     C_R   0.927599 0.020956 0.581887 -0.000307
C18   C     C_R   0.048615 0.976602 0.419047 0.019130
C19   C     C_R   0.898630 0.084964 0.515737 -0.112544
C20   C     C_R   0.069791 0.910750 0.484270 -0.133454
C21   C     C_R   0.013122 0.934326 0.566400 -0.100632
C22   C     C_R   0.976399 0.065825 0.435470 -0.088582
H3    H     H_    0.894550 0.000661 0.716181 0.140658
H4    H     H_    0.056494 0.994594 0.284969 0.121218
C23   C     C_R   0.177770 0.969637 0.970150 -0.302329
C24   C     C_R   0.825356 0.028877 0.030590 -0.312535
H5    H     H_    0.315695 0.949972 0.945824 0.218601
H6    H     H_    0.687904 0.054780 0.049400 0.215680
C25   C     C_R   0.171103 0.028913 0.038640 0.487922
C26   C     C_R   0.832175 0.959420 0.970649 0.492448
C27   C     C_R   0.992500 0.063024 0.067417 -0.216877
C28   C     C_R   0.010034 0.933060 0.935585 -0.216996
C29   C     C_R   0.322527 0.464712 0.477252 0.500327
C30   C     C_R   0.680611 0.517521 0.537596 0.494945
C31   C     C_R   0.336057 0.533418 0.537701 -0.165371
C32   C     C_R   0.667332 0.459869 0.467997 -0.198242
H7    H     H_    0.205859 0.561269 0.563625 0.232889
H8    H     H_    0.797182 0.433073 0.440918 0.217785
C33   C     C_R   0.514212 0.561079 0.569043 -0.239020
C34   C     C_R   0.488562 0.432522 0.436451 -0.209415
C35   C     C_R   0.352830 0.434713 0.002918 -0.275821
C36   C     C_R   0.645472 0.565782 0.997700 -0.344312
H9    H     H_    0.243800 0.381650 0.002818 0.151271
H10   H     H_    0.758699 0.616688 0.996985 0.135111
C37   C     C_R   0.361548 0.497905 0.936269 0.466596
C38   C     C_R   0.634972 0.503670 0.064705 0.470208
C39   C     C_R   0.510417 0.563719 0.933119 -0.185729
C40   C     C_R   0.488379 0.436667 0.067311 -0.186134
O21   O     O_3   0.239910 0.488337 0.868988 -0.560034
C41   C     C_3   0.051993 0.512144 0.893109 -0.162895
H11   H     H_    0.959203 0.511415 0.837258 0.152029
H12   H     H_    0.047046 0.582737 0.919267 0.124654
H13   H     H_    0.991267 0.461590 0.937962 0.134274
O22   O     O_3   0.773540 0.506745 0.125903 -0.552188
C42   C     C_3   0.714560 0.570145 0.186741 -0.194682
H14   H     H_    0.824200 0.571749 0.236578 0.184146
H15   H     H_    0.576021 0.549187 0.215865 0.125268
H16   H     H_    0.703280 0.640772 0.160413 0.125635
F1    F     F_    0.731866 0.224053 0.472572 -0.698916
F2    F     F_    0.161592 0.754242 0.521432 -0.671079
F3    F     F_    0.615397 0.259744 0.627305 -0.696194
F4    F     F_    0.251796 0.714062 0.363709 -0.664201
O23   O     O_3   0.341943 0.053657 0.075493 -0.549040
C43   C     C_3   0.378554 0.991733 0.141411 -0.207687
H17   H     H_    0.353094 0.918706 0.124245 0.101791
H18   H     H_    0.291166 0.009863 0.195989 0.142519
H19   H     H_    0.530187 0.998101 0.161062 0.146717
O24   O     O_3   0.662653 0.918363 0.946912 -0.544898
C44   C     C_3   0.635368 0.839267 0.996819 -0.217252
H20   H     H_    0.632975 0.856242 0.064094 0.113679
H21   H     H_    0.748494 0.787081 0.985121 0.114398
H22   H     H_    0.495324 0.807692 0.980962 0.138848
O25   O     O_3   0.146974 0.424341 0.464072 -0.546725
C45   C     C_3   0.139763 0.343492 0.512875 -0.187313
H23   H     H_    0.182973 0.355341 0.578605 0.135853
H24   H     H_    0.229266 0.288063 0.485709 0.154796
H25   H     H_    0.990620 0.319227 0.514121 0.186955
O26   O     O_3   0.857628 0.530272 0.573959 -0.536609
C46   C     C_3   0.871020 0.471005 0.643602 -0.152060
H26   H     H_    0.764825 0.488531 0.692651 0.117889
H27   H     H_    0.851245 0.398051 0.625931 0.170065
H28   H     H_    0.015912 0.478093 0.671226 0.143774

loop_
_geom_bond_atom_site_label_1
_geom_bond_atom_site_label_2
_ccdc_geom_bond_type
C7    C22   S    
C37   O21   S    
C8    C21   S    
O13   V3    S    
C44   H20   S    
C41   H13   S    
O4    C2    A    
V1    O19   S    
C42   H14   S    
C44   H22   S    
C13   C15   A    
C26   O24   S    
C46   H27   S    
O9    V1    S    
C9    C11   A    
C41   H12   S    
O3    C1    A    
C29   C34   A    
O12   V4    S    
C29   O25   S    
C30   C32   A    
C31   H7    S    
O7    C3    A    
C32   H8    S    
O5    C7    A    
O7    V1    S    
O6    C8    A    
O8    V2    S    
O3    V1    S    
O14   V4    S    
V4    O20   S    
C35   C37   A    
C14   C16   A    
C2    C33   S    
C2    O12   A    
V3    O19   S    
C15   C17   A    
C16   C18   A    
O2    C4    A    
C15   H3    S    
O26   C46   S    
C42   H15   S    
C24   H6    S    
O11   V3    S    
O17   V3    S    
C46   H28   S    
C29   C31   A    
H1    C14   S    
C32   C34   A    
H2    C13   S    
C4    C39   S    
C41   H11   S    
C38   C40   A    
O8    C4    A    
C35   C40   A    
C1    O11   A    
C18   C20   A    
C23   C25   A    
C10   F2    S    
C36   C39   A    
O15   V3    S    
C45   H25   S    
C38   O22   S    
C12   F4    S    
C23   H5    S    
O21   C41   S    
C43   H18   S    
O25   C45   S    
C36   C38   A    
O10   V2    S    
O1    V3    S    
C23   C28   A    
C10   C20   A    
C17   C19   A    
C16   H4    S    
C36   H10   S    
C30   C33   A    
O18   V4    S    
C25   C27   A    
O16   C6    A    
O1    C3    A    
C10   C12   A    
C9    C19   A    
C42   H16   S    
C43   H19   S    
C37   C39   A    
C45   H24   S    
V2    O20   S    
C19   C22   A    
C5    C27   S    
C20   C21   A    
O16   V4    S    
C11   F3    S    
O22   C42   S    
C44   H21   S    
O5    V1    S    
O17   C7    A    
O6    V2    S    
C46   H26   S    
O10   C6    A    
O18   C8    A    
O2    V4    S    
O15   C5    A    
C11   C13   A    
C18   C22   A    
C1    C34   S    
C12   C14   A    
C9    F1    S    
C43   H17   S    
O9    C5    A    
C45   H23   S    
O13   V1    S    
C26   C28   A    
O14   V2    S    
O24   C44   S    
C25   O23   S    
C24   C27   A    
O4    V2    S    
C31   C33   A    
C3    C40   S    
C6    C28   S    
C35   H9    S    
O23   C43   S    
C30   O26   S    
C17   C21   A    
C24   C26   A    
