data_mof_unit_34997.cif
_audit_creation_date              2012-12-10T19:06:43-0500
_audit_creation_method            fapswitch 2.2
_symmetry_space_group_name_H-M    P1
_symmetry_Int_Tables_number       1
_space_group_crystal_system       triclinic
_cell_length_a                    13.038337
_cell_length_b                    13.617098
_cell_length_c                    16.580074
_cell_angle_alpha                 89.127006
_cell_angle_beta                  93.720827
_cell_angle_gamma                 94.878673
_cell_volume                      2926.71055951

loop_
_atom_site_label
_atom_site_type_symbol
_atom_type_description
_atom_site_fract_x
_atom_site_fract_y
_atom_site_fract_z
_atom_type_partial_charge
C1    C     C_R   0.480813 0.314867 0.501417 0.899818
C2    C     C_2   0.963567 0.469516 0.480142 0.398309
C3    C     C_1   0.852853 0.478995 0.484637 0.131336
C4    C     C_1   0.147158 0.521063 0.515380 0.131499
C5    C     C_R   0.484107 0.503025 0.346875 0.844966
C6    C     C_R   0.516523 0.501195 0.653090 0.841296
C7    C     C_R   0.473403 0.528995 0.262038 -0.017546
C8    C     C_R   0.534771 0.525384 0.737679 -0.021894
C9    C     C_R   0.524041 0.479314 0.205728 -0.201422
C10   C     C_R   0.470070 0.482412 0.794393 -0.204904
C11   C     C_R   0.521812 0.512006 0.126073 -0.135921
C12   C     C_R   0.519227 0.685100 0.498786 0.894412
C13   C     C_R   0.482055 0.514220 0.873747 -0.135068
C14   C     C_R   0.473531 0.597770 0.103100 0.137974
C15   C     C_R   0.555241 0.592855 0.895941 0.135764
C16   C     C_R   0.420742 0.645923 0.159414 -0.189832
C17   C     C_R   0.621571 0.634082 0.839234 -0.187181
C18   C     C_R   0.419838 0.610997 0.238570 -0.190623
C19   C     C_R   0.612013 0.599701 0.760424 -0.182293
C20   C     C_2   0.475980 0.634153 0.018906 -0.103072
C21   C     C_2   0.563799 0.628862 0.979765 -0.103516
C22   C     C_R   0.667977 0.641246 0.023796 0.130661
C23   C     C_1   0.535204 0.788180 0.495656 -0.181587
C24   C     C_R   0.744777 0.578306 0.008865 -0.171156
C25   C     C_R   0.841774 0.590595 0.050333 -0.135030
C26   C     C_R   0.863190 0.665559 0.107040 -0.099769
C27   C     C_R   0.787679 0.728503 0.122343 -0.137633
C28   C     C_R   0.690646 0.716689 0.080917 -0.128018
C29   C     C_R   0.377429 0.658386 0.974500 0.129663
C30   C     C_R   0.282967 0.605637 0.989930 -0.174651
C31   C     C_R   0.191629 0.628382 0.947554 -0.134949
C32   C     C_R   0.193480 0.703744 0.889424 -0.096817
C33   C     C_R   0.286642 0.756739 0.873699 -0.135777
C34   C     C_1   0.465328 0.211799 0.506710 -0.181524
C35   C     C_R   0.378125 0.734519 0.916070 -0.125331
C36   C     C_R   0.366719 0.961712 0.543838 0.152358
C37   C     C_R   0.334627 0.977309 0.621547 -0.144579
C38   C     C_R   0.248956 0.921365 0.649612 -0.164872
C39   C     C_R   0.194369 0.849962 0.600220 -0.080569
C40   C     C_R   0.224800 0.834950 0.522392 -0.101500
C41   C     C_R   0.310185 0.890963 0.493981 -0.149026
C42   C     C_R   0.636782 0.038328 0.464066 0.149895
C43   C     C_R   0.672518 0.020803 0.387869 -0.146515
C44   C     C_R   0.759814 0.075751 0.361499 -0.159285
C45   C     C_2   0.543534 0.979814 0.491604 -0.031289
C46   C     C_R   0.812461 0.148057 0.411104 -0.082328
C47   C     C_R   0.778386 0.165046 0.487437 -0.104718
C48   C     C_R   0.691373 0.110033 0.514167 -0.147998
C49   C     C_2   0.459096 0.020348 0.515018 -0.033246
C50   C     C_1   0.457602 0.124401 0.511414 -0.039458
C51   C     C_1   0.543793 0.875642 0.493120 -0.040284
C52   C     C_2   0.036452 0.530585 0.519883 0.396384
F1    F     F_    0.992552 0.395978 0.434248 -0.698742
F2    F     F_    0.007486 0.604126 0.565786 -0.701013
H1    H     H_    0.565240 0.415796 0.223474 0.142771
H2    H     H_    0.900322 0.541785 0.038620 0.129204
H3    H     H_    0.938308 0.674876 0.139117 0.128747
H4    H     H_    0.804393 0.786656 0.166223 0.129602
H5    H     H_    0.633306 0.766643 0.093136 0.126073
H6    H     H_    0.279984 0.546030 0.033902 0.138808
H7    H     H_    0.119380 0.587287 0.959607 0.129753
H8    H     H_    0.122724 0.721079 0.856564 0.132636
H9    H     H_    0.288003 0.815184 0.828716 0.127494
H10   H     H_    0.449531 0.776810 0.903406 0.127727
H11   H     H_    0.376695 0.031890 0.660675 0.125968
H12   H     H_    0.410525 0.424806 0.777193 0.139746
H13   H     H_    0.225023 0.933223 0.709746 0.127831
H14   H     H_    0.128315 0.806500 0.622154 0.171492
H15   H     H_    0.182189 0.779935 0.484052 0.148126
H16   H     H_    0.332453 0.879006 0.433327 0.127186
H17   H     H_    0.632168 0.965355 0.348615 0.127504
H18   H     H_    0.786539 0.062385 0.302511 0.134971
H19   H     H_    0.879855 0.190674 0.390517 0.177025
H20   H     H_    0.819533 0.220716 0.525975 0.148171
H21   H     H_    0.666570 0.123284 0.573842 0.129539
H22   H     H_    0.661749 0.634114 0.716317 0.156021
H23   H     H_    0.381336 0.650562 0.282354 0.143082
H24   H     H_    0.382018 0.711147 0.142429 0.140673
H25   H     H_    0.679190 0.693667 0.855643 0.144061
H26   H     H_    0.432917 0.478549 0.917639 0.134497
H27   H     H_    0.559359 0.471256 0.082541 0.134308
H28   H     H_    0.729410 0.518984 0.965876 0.137403
N1    N     N_1   0.235630 0.515160 0.512550 -0.094941
N2    N     N_1   0.764370 0.484840 0.487450 -0.095036
O1    O     O_R   0.402910 0.365220 0.504590 -0.597013
O2    O     O_R   0.597090 0.634780 0.495410 -0.599880
O3    O     O_R   0.572660 0.355490 0.496530 -0.602728
O4    O     O_R   0.427340 0.644510 0.503470 -0.604858
O5    O     O_R   0.405090 0.505430 0.388710 -0.608775
O6    O     O_R   0.594910 0.494570 0.611290 -0.611344
O7    O     O_R   0.574840 0.495690 0.380650 -0.598438
O8    O     O_R   0.425160 0.504310 0.619350 -0.597139
Zn1   Zn    Zn3+2 0.386660 0.506500 0.505380 0.988967
Zn2   Zn    Zn3+2 0.613340 0.493500 0.494620 0.987366

loop_
_geom_bond_atom_site_label_1
_geom_bond_atom_site_label_2
_ccdc_geom_bond_type
C1    O3    A    
C39   H14   S    
C31   H7    S    
C25   H2    S    
C11   H27   S    
C12   C23   S    
C26   C27   A    
C29   C30   A    
C4    C52   S    
C19   H22   S    
N2    Zn2   S    
C30   C31   A    
C11   C14   A    
C45   C51   S    
N1    Zn1   S    
O3    Zn2   S    
C17   H25   S    
C7    C9    A    
C24   H28   S    
O2    Zn2   S    
C17   C19   A    
C46   C47   A    
O1    Zn1   S    
C47   C48   A    
C52   F2    S    
C37   H11   S    
C10   C13   A    
C35   H10   S    
C9    H1    S    
C16   H24   S    
C13   H26   S    
C22   C28   A    
C21   C22   S    
C48   H21   S    
C36   C41   A    
C44   C46   A    
C1    C34   S    
O6    Zn2   S    
C20   C29   S    
C10   H12   S    
C1    O1    A    
C34   C50   T    
C8    C19   A    
C40   H15   S    
C12   O4    A    
C14   C20   S    
C24   C25   A    
C39   C40   A    
C5    C7    S    
C6    C8    S    
C25   C26   A    
C6    O6    A    
C27   H4    S    
C30   H6    S    
C42   C45   S    
C43   C44   A    
C37   C38   A    
C23   C51   T    
C31   C32   A    
C45   C49   D    
C33   H9    S    
C7    C18   A    
C42   C48   A    
C38   H13   S    
C9    C11   A    
C5    O7    A    
C2    C52   D    
C8    C10   A    
C40   C41   A    
C13   C15   A    
C14   C16   A    
C42   C43   A    
C3    N2    T    
C28   H5    S    
C15   C17   A    
O4    Zn1   S    
C36   C37   A    
C43   H17   S    
C47   H20   S    
C2    F1    S    
C29   C35   A    
C12   O2    A    
C32   C33   A    
C2    C3    S    
C32   H8    S    
O7    Zn2   S    
C38   C39   A    
C4    N1    T    
C18   H23   S    
C6    O8    A    
O8    Zn1   S    
C33   C35   A    
C44   H18   S    
C22   C24   A    
O5    Zn1   S    
C26   H3    S    
C15   C21   S    
C20   C21   D    
C16   C18   A    
C49   C50   S    
C27   C28   A    
C46   H19   S    
C5    O5    A    
C36   C49   S    
C41   H16   S    
