data_mof_unit_61044.cif
_audit_creation_date              2012-12-10T19:23:44-0500
_audit_creation_method            fapswitch 2.2
_symmetry_space_group_name_H-M    P1
_symmetry_Int_Tables_number       1
_space_group_crystal_system       triclinic
_cell_length_a                    44.568102
_cell_length_b                    38.843688
_cell_length_c                    21.608095
_cell_angle_alpha                 90.000051
_cell_angle_beta                  60.738975
_cell_angle_gamma                 90.0
_cell_volume                      32634.5564409

loop_
_atom_site_label
_atom_site_type_symbol
_atom_type_description
_atom_site_fract_x
_atom_site_fract_y
_atom_site_fract_z
_atom_type_partial_charge
Br1   Br    Br    0.290346 0.436344 0.292291 -0.527798
Br2   Br    Br    0.028345 0.683326 0.095159 -0.448036
Br3   Br    Br    0.471650 0.183326 0.904849 -0.448005
Br4   Br    Br    0.528349 0.183326 0.095151 -0.448032
Br5   Br    Br    0.971879 0.597396 0.904260 -0.457572
Br6   Br    Br    0.028120 0.597395 0.095741 -0.457558
Br7   Br    Br    0.471875 0.097395 0.904267 -0.457500
Br8   Br    Br    0.528124 0.097396 0.095733 -0.457557
Br9   Br    Br    0.709654 0.436343 0.707709 -0.527797
Br10  Br    Br    0.790346 0.936345 0.292296 -0.527800
Br11  Br    Br    0.209651 0.936351 0.707699 -0.527802
Br12  Br    Br    0.500540 0.682129 0.134127 -0.512732
Br13  Br    Br    0.499460 0.682127 0.865869 -0.512732
Br14  Br    Br    0.000536 0.182128 0.134133 -0.512730
Br15  Br    Br    0.999465 0.182128 0.865867 -0.512731
Br16  Br    Br    0.971655 0.683326 0.904842 -0.448040
C1    C     C_R   0.067244 0.499967 0.433034 0.867950
C2    C     C_R   0.971611 0.484334 0.249354 0.034576
C3    C     C_R   0.232253 0.972744 0.729248 0.280466
C4    C     C_R   0.285922 0.497524 0.217916 0.020411
C5    C     C_R   0.714078 0.497524 0.782080 0.020411
C6    C     C_R   0.785922 0.997524 0.217917 0.020412
C7    C     C_R   0.214078 0.997522 0.782095 0.020421
C8    C     C_R   0.158387 0.468283 0.339326 -0.191643
C9    C     C_R   0.841612 0.468284 0.660672 -0.191607
C10   C     C_R   0.658387 0.968283 0.339332 -0.191641
C11   C     C_R   0.341614 0.968279 0.660664 -0.191858
C12   C     C_R   0.122715 0.468633 0.372894 -0.194656
C13   C     C_R   0.528390 0.984344 0.750642 0.034576
C14   C     C_R   0.877284 0.468634 0.627105 -0.194659
C15   C     C_R   0.622715 0.968633 0.372900 -0.194657
C16   C     C_R   0.377286 0.968630 0.627090 -0.194654
C17   C     C_R   0.104782 0.499769 0.397262 -0.028892
C18   C     C_R   0.895217 0.499769 0.602738 -0.028903
C19   C     C_R   0.604782 0.999769 0.397264 -0.028903
C20   C     C_R   0.395218 0.999767 0.602724 -0.028850
C21   C     C_R   0.122971 0.530536 0.387973 -0.192421
C22   C     C_R   0.877029 0.530537 0.612028 -0.192414
C23   C     C_R   0.622971 0.030537 0.387972 -0.192421
C24   C     C_R   0.471611 0.984333 0.249354 0.034576
C25   C     C_R   0.377027 0.030533 0.612010 -0.192488
C26   C     C_R   0.158690 0.530193 0.354105 -0.189887
C27   C     C_R   0.841311 0.530194 0.645892 -0.189908
C28   C     C_R   0.658690 0.030193 0.354104 -0.189887
C29   C     C_R   0.341309 0.030188 0.645890 -0.189763
C30   C     C_R   0.176562 0.499069 0.329506 0.119586
C31   C     C_R   0.823438 0.499070 0.670489 0.119563
C32   C     C_R   0.676562 0.999069 0.329509 0.119586
C33   C     C_R   0.323438 0.999065 0.670496 0.119736
C34   C     C_R   1.000000 0.432813 0.000000 0.824234
C35   C     C_R   0.027216 0.485737 0.687847 -0.241356
C36   C     C_R   0.500000 0.932814 0.999999 0.824227
C37   C     C_R   0.940339 0.559560 0.720025 -0.060851
C38   C     C_R   0.059673 0.559544 0.279977 -0.060877
C39   C     C_R   0.440291 0.059484 0.719959 -0.060964
C40   C     C_R   0.559670 0.059547 0.279980 -0.060871
C41   C     C_R   0.000124 0.498887 0.879489 0.890478
C42   C     C_R   0.999876 0.498887 0.120511 0.890478
C43   C     C_R   0.500124 0.998888 0.879489 0.890475
C44   C     C_R   0.499876 0.998887 0.120511 0.890474
C45   C     C_R   0.000000 0.567049 0.000000 1.032840
C46   C     C_R   0.972782 0.485741 0.312155 -0.241353
C47   C     C_R   0.500000 0.067049 0.000000 1.032836
C48   C     C_R   0.500000 0.432587 1.000000 0.873403
C49   C     C_R   0.000000 0.932587 1.000000 0.873402
C50   C     C_R   0.432732 0.500007 0.067405 0.872772
C51   C     C_R   0.567268 0.500007 0.932595 0.872773
C52   C     C_R   0.932732 0.000007 0.067405 0.872772
C53   C     C_R   0.067268 0.000007 0.932596 0.872769
C54   C     C_R   0.500000 0.567184 0.000000 0.909711
C55   C     C_R   0.000000 0.067184 1.000000 0.909711
C56   C     C_R   0.500259 0.622925 0.055901 -0.212760
C57   C     C_R   0.527217 0.985753 0.687843 -0.241324
C58   C     C_R   0.499740 0.622924 0.944097 -0.212759
C59   C     C_R   0.000258 0.122924 0.055904 -0.212759
C60   C     C_R   0.999743 0.122925 0.944096 -0.212760
C61   C     C_R   0.500267 0.658715 0.056141 0.260395
C62   C     C_R   0.499733 0.658714 0.943856 0.260393
C63   C     C_R   0.000266 0.158715 0.056144 0.260395
C64   C     C_R   0.999735 0.158715 0.943855 0.260395
C65   C     C_R   0.500000 0.676662 0.999998 -0.068969
C66   C     C_R   0.000000 0.176662 0.000000 -0.068969
C67   C     C_R   0.500000 0.604832 1.000000 -0.150426
C68   C     C_R   0.472783 0.985741 0.312154 -0.241356
C69   C     C_R   0.000000 0.104832 1.000000 -0.150426
C70   C     C_R   0.468767 0.731837 0.029865 -0.095750
C71   C     C_R   0.531234 0.731836 0.970125 -0.095750
C72   C     C_R   0.968766 0.231836 0.029879 -0.095751
C73   C     C_R   0.031234 0.231836 0.970123 -0.095750
C74   C     C_R   0.939622 0.527079 0.749049 0.051468
C75   C     C_R   0.060385 0.527067 0.250944 0.051461
C76   C     C_R   0.439592 0.027036 0.749088 0.051475
C77   C     C_R   0.560383 0.027070 0.250944 0.051466
C78   C     C_R   0.968746 0.267599 0.029885 -0.178006
C79   C     C_R   0.998892 0.500096 0.686723 -0.070316
C80   C     C_R   0.031254 0.267599 0.970118 -0.178008
C81   C     C_R   0.468747 0.767600 0.029869 -0.178008
C82   C     C_R   0.531255 0.767599 0.970118 -0.178006
C83   C     C_R   1.000000 0.285621 0.000002 0.125567
C84   C     C_R   0.500001 0.785622 0.999992 0.125565
C85   C     C_R   0.500000 0.714051 0.999997 0.180867
C86   C     C_R   0.000000 0.214051 0.000000 0.180867
C87   C     C_R   0.020020 0.341098 0.022606 -0.167476
C88   C     C_R   0.979979 0.341098 0.977399 -0.167474
C89   C     C_R   0.520019 0.841098 0.022604 -0.167471
C90   C     C_R   0.001109 0.500096 0.313277 -0.070311
C91   C     C_R   0.479985 0.841098 0.977381 -0.167474
C92   C     C_R   0.019061 0.376992 0.026494 0.118074
C93   C     C_R   0.980938 0.376992 0.973510 0.118065
C94   C     C_R   0.519060 0.876992 0.026493 0.118076
C95   C     C_R   0.480942 0.876992 0.973496 0.118097
C96   C     C_R   1.000000 0.395238 0.000001 -0.165174
C97   C     C_R   0.500001 0.895238 0.999997 -0.165172
C98   C     C_R   1.000000 0.323247 0.000002 0.016104
C99   C     C_R   0.500002 0.823247 0.999992 0.016104
C100  C     C_R   0.502644 0.376737 0.053354 -0.183972
C101  C     C_R   0.498885 0.000098 0.686729 -0.070309
C102  C     C_R   0.497356 0.376737 0.946645 -0.183972
C103  C     C_R   0.002642 0.876737 0.053357 -0.183973
C104  C     C_R   0.997358 0.876737 0.946643 -0.183973
C105  C     C_R   0.502716 0.340942 0.053209 -0.166975
C106  C     C_R   0.497284 0.340942 0.946791 -0.166975
C107  C     C_R   0.002714 0.840942 0.053211 -0.166978
C108  C     C_R   0.997286 0.840942 0.946789 -0.166977
C109  C     C_R   0.500000 0.323101 1.000000 0.102189
C110  C     C_R   1.000000 0.823101 0.000000 0.102192
C111  C     C_R   0.908624 0.508602 0.782713 -0.219338
C112  C     C_R   0.932756 0.499967 0.566966 0.867948
C113  C     C_R   0.501109 0.000096 0.313277 -0.070311
C114  C     C_R   0.091379 0.508586 0.217268 -0.219358
C115  C     C_R   0.408598 0.008557 0.782860 -0.219536
C116  C     C_R   0.591379 0.008592 0.217267 -0.219365
C117  C     C_R   0.500000 0.394896 1.000000 -0.040040
C118  C     C_R   0.000000 0.894896 1.000000 -0.040040
C119  C     C_R   0.469208 0.267402 0.044148 0.141568
C120  C     C_R   0.530792 0.267402 0.955852 0.141568
C121  C     C_R   0.969207 0.767402 0.044144 0.141568
C122  C     C_R   0.030793 0.767402 0.955856 0.141569
C123  C     C_R   0.969709 0.731462 0.043652 -0.125596
C124  C     C_R   0.970720 0.513112 0.748170 0.001272
C125  C     C_R   0.030291 0.731462 0.956348 -0.125596
C126  C     C_R   0.469709 0.231462 0.043655 -0.125597
C127  C     C_R   0.530290 0.231461 0.956344 -0.125595
C128  C     C_R   1.000000 0.713720 0.000000 0.141210
C129  C     C_R   0.500000 0.213720 1.000000 0.141208
C130  C     C_R   0.500000 0.285513 1.000000 0.003885
C131  C     C_R   0.000000 0.785513 0.000000 0.003885
C132  C     C_R   0.987717 0.658324 0.960257 0.248626
C133  C     C_R   0.012283 0.658324 0.039744 0.248625
C134  C     C_R   0.487715 0.158324 0.960260 0.248620
C135  C     C_R   0.029283 0.513108 0.251827 0.001284
C136  C     C_R   0.512285 0.158324 0.039740 0.248625
C137  C     C_R   0.987652 0.622291 0.960350 0.191881
C138  C     C_R   0.012348 0.622291 0.039650 0.191878
C139  C     C_R   0.487650 0.122291 0.960353 0.191877
C140  C     C_R   0.512350 0.122292 0.039647 0.191882
C141  C     C_R   1.000000 0.604442 0.000000 -0.286839
C142  C     C_R   0.500000 0.104442 0.000000 -0.286846
C143  C     C_R   1.000000 0.676174 0.000000 -0.165215
C144  C     C_R   0.500000 0.176174 0.000000 -0.165218
C145  C     C_R   0.878473 0.522364 0.787195 0.249416
C146  C     C_R   0.470707 0.013101 0.748186 0.001343
C147  C     C_R   0.121534 0.522340 0.212782 0.249390
C148  C     C_R   0.378435 0.022276 0.787321 0.249281
C149  C     C_R   0.621533 0.022346 0.212785 0.249399
C150  C     C_R   0.879707 0.554723 0.757067 -0.123566
C151  C     C_R   0.120306 0.554695 0.242921 -0.123497
C152  C     C_R   0.379657 0.054594 0.757057 -0.123085
C153  C     C_R   0.620303 0.054700 0.242928 -0.123492
C154  C     C_R   0.971597 0.511599 0.811134 -0.181075
C155  C     C_R   0.028405 0.511595 0.188864 -0.181076
C156  C     C_R   0.471589 0.011589 0.811145 -0.181079
C157  C     C_R   0.529282 0.013109 0.251827 0.001284
C158  C     C_R   0.528405 0.011596 0.188864 -0.181078
C159  C     C_3   0.079139 0.389619 0.829206 -0.423746
C160  C     C_3   0.093960 0.357946 0.782122 -0.848960
C161  C     C_3   0.920856 0.389625 0.170797 -0.423743
C162  C     C_3   0.906036 0.357951 0.217881 -0.848965
C163  C     C_3   0.579155 0.889642 0.829191 -0.423730
C164  C     C_3   0.593973 0.857967 0.782111 -0.848963
C165  C     C_3   0.420855 0.889627 0.170793 -0.423738
C166  C     C_3   0.406036 0.857953 0.217874 -0.848962
C167  C     C_3   0.038309 0.394567 0.059797 -0.408734
C168  C     C_R   0.091850 0.480491 0.704105 -0.227147
C169  C     C_3   0.028425 0.380126 0.133310 -0.883946
C170  C     C_3   0.961690 0.394566 0.940207 -0.408730
C171  C     C_3   0.971571 0.380124 0.866696 -0.883944
C172  C     C_3   0.538305 0.894566 0.059802 -0.408735
C173  C     C_3   0.528419 0.880124 0.133317 -0.883946
C174  C     C_3   0.461698 0.894567 0.940186 -0.408753
C175  C     C_3   0.471589 0.880130 0.866666 -0.883948
C176  C     C_3   0.435393 0.285341 0.091594 -0.416859
C177  C     C_3   0.426833 0.283909 0.169096 -0.812790
C178  C     C_3   0.564607 0.285341 0.908405 -0.416861
C179  C     C_R   0.908148 0.480496 0.295898 -0.227151
C180  C     C_3   0.573167 0.283908 0.830904 -0.812786
C181  C     C_3   0.935392 0.785341 0.091586 -0.416861
C182  C     C_3   0.926829 0.783909 0.169090 -0.812790
C183  C     C_3   0.064608 0.785341 0.908414 -0.416863
C184  C     C_3   0.073171 0.783908 0.830911 -0.812792
C185  C     C_3   0.845120 0.502679 0.823942 -0.440858
C186  C     C_3   0.819664 0.519976 0.893426 -0.844673
C187  C     C_3   0.154884 0.502650 0.176023 -0.440820
C188  C     C_3   0.180351 0.519964 0.106566 -0.844675
C189  C     C_3   0.345092 0.002575 0.824148 -0.440797
C190  C     C_R   0.591855 0.980509 0.704085 -0.227163
C191  C     C_3   0.319521 0.020052 0.893314 -0.844256
C192  C     C_3   0.654884 0.002657 0.176028 -0.440861
C193  C     C_3   0.680355 0.019976 0.106585 -0.844685
C194  C     C_3   0.155879 0.480084 0.650545 -0.411915
C195  C     C_3   0.186785 0.461433 0.647514 -0.857904
C196  C     C_3   0.844120 0.480091 0.349460 -0.411914
C197  C     C_3   0.813213 0.461442 0.352493 -0.857903
C198  C     C_3   0.655884 0.980105 0.650509 -0.411914
C199  C     C_3   0.686793 0.961457 0.647469 -0.857900
C200  C     C_3   0.344119 0.980090 0.349466 -0.411911
C201  C     C_R   0.408148 0.980495 0.295901 -0.227154
C202  C     C_3   0.313212 0.961441 0.352499 -0.857901
C203  C     C_R   0.121000 0.464519 0.700106 0.182002
C204  C     C_R   0.567244 0.999967 0.433035 0.867972
C205  C     C_R   0.878998 0.464525 0.299899 0.182004
C206  C     C_R   0.621007 0.964540 0.700078 0.182010
C207  C     C_R   0.378997 0.964525 0.299902 0.182004
C208  C     C_R   0.116524 0.434975 0.741684 -0.135364
C209  C     C_R   0.883472 0.434982 0.258321 -0.135368
C210  C     C_R   0.616535 0.934997 0.741657 -0.135377
C211  C     C_R   0.383472 0.934982 0.258322 -0.135370
C212  C     C_R   0.083546 0.421568 0.785922 0.186574
C213  C     C_R   0.916450 0.421573 0.214082 0.186572
C214  C     C_R   0.583559 0.921588 0.785903 0.186561
C215  C     C_R   0.432756 0.999967 0.566960 0.867964
C216  C     C_R   0.416450 0.921574 0.214081 0.186572
C217  C     C_R   0.054766 0.438256 0.789805 -0.162080
C218  C     C_R   0.945231 0.438260 0.210198 -0.162070
C219  C     C_R   0.554776 0.938273 0.789790 -0.162041
C220  C     C_R   0.445231 0.938261 0.210197 -0.162065
C221  C     C_R   0.999027 0.500029 0.620883 0.889549
C222  C     C_R   0.000973 0.500029 0.379117 0.889550
C223  C     C_R   0.499021 0.000029 0.620889 0.889549
C224  C     C_R   0.500973 0.000029 0.379117 0.889544
C225  C     C_R   0.058736 0.467694 0.749050 0.089793
C226  C     C_R   0.000239 0.497804 0.812759 -0.097886
C227  C     C_R   0.941262 0.467698 0.250953 0.089793
C228  C     C_R   0.558742 0.967710 0.749036 0.089793
C229  C     C_R   0.441261 0.967698 0.250953 0.089793
C230  C     C_R   0.376818 0.495369 0.068699 -0.184368
C231  C     C_R   0.623182 0.495369 0.931300 -0.184369
C232  C     C_R   0.876818 0.995368 0.068699 -0.184368
C233  C     C_R   0.123181 0.995364 0.931305 -0.184365
C234  C     C_R   0.341071 0.494547 0.105508 -0.157591
C235  C     C_R   0.658929 0.494548 0.894490 -0.157592
C236  C     C_R   0.841071 0.994546 0.105509 -0.157593
C237  C     C_R   0.999760 0.497804 0.187241 -0.097888
C238  C     C_R   0.158928 0.994542 0.894500 -0.157594
C239  C     C_R   0.323423 0.498094 0.179389 0.142589
C240  C     C_R   0.676577 0.498094 0.820608 0.142592
C241  C     C_R   0.823422 0.998093 0.179390 0.142591
C242  C     C_R   0.176578 0.998094 0.820620 0.142590
C243  C     C_R   0.341567 0.503187 0.216240 -0.105647
C244  C     C_R   0.658432 0.503187 0.783758 -0.105649
C245  C     C_R   0.841567 0.003188 0.216240 -0.105646
C246  C     C_R   0.158434 0.003194 0.783767 -0.105644
C247  C     C_R   0.377272 0.503837 0.179618 -0.178089
C248  C     C_R   0.500239 0.997806 0.812759 -0.097889
C249  C     C_R   0.622727 0.503836 0.820381 -0.178087
C250  C     C_R   0.877272 0.003838 0.179618 -0.178089
C251  C     C_R   0.122729 0.003844 0.820386 -0.178087
C252  C     C_R   0.395144 0.499807 0.105618 -0.043531
C253  C     C_R   0.604856 0.499807 0.894382 -0.043531
C254  C     C_R   0.895144 0.999807 0.105618 -0.043530
C255  C     C_R   0.104856 0.999808 0.894385 -0.043529
C256  C     C_R   0.268091 0.522448 0.201774 -0.222987
C257  C     C_R   0.731908 0.522449 0.798220 -0.222983
C258  C     C_R   0.768091 0.022447 0.201774 -0.222990
C259  C     C_R   0.499760 0.997804 0.187241 -0.097890
C260  C     C_R   0.231911 0.022439 0.798248 -0.223043
C261  C     C_R   0.232398 0.523085 0.238461 -0.181700
C262  C     C_R   0.767602 0.523087 0.761532 -0.181719
C263  C     C_R   0.732398 0.023084 0.238461 -0.181698
C264  C     C_R   0.267604 0.023074 0.761560 -0.181592
C265  C     C_R   0.214183 0.498754 0.291690 0.052909
C266  C     C_R   0.785816 0.498756 0.708305 0.052913
C267  C     C_R   0.714183 0.998754 0.291692 0.052911
C268  C     C_R   0.285817 0.998749 0.708320 0.052907
C269  C     C_R   0.910533 0.573149 0.723520 -0.179638
C270  C     C_R   0.028388 0.484331 0.750648 0.034572
C271  C     C_R   0.089483 0.573124 0.276479 -0.179668
C272  C     C_R   0.410475 0.073028 0.723428 -0.179832
C273  C     C_R   0.589479 0.073128 0.276486 -0.179668
C274  C     C_R   0.231977 0.473602 0.307490 -0.207505
C275  C     C_R   0.768023 0.473603 0.692506 -0.207500
C276  C     C_R   0.731977 0.973603 0.307493 -0.207507
C277  C     C_R   0.268022 0.973602 0.692513 -0.207553
C278  C     C_R   0.267746 0.472743 0.270755 0.280459
C279  C     C_R   0.732254 0.472743 0.729243 0.280457
C280  C     C_R   0.767746 0.972744 0.270757 0.280458
H1    H     H_    0.856794 0.565639 0.759505 0.133828
H2    H     H_    0.970764 0.428424 0.175681 0.121383
H3    H     H_    0.549977 0.021895 0.141206 0.193269
H4    H     H_    0.048356 0.475354 0.639515 0.146396
H5    H     H_    0.951642 0.475360 0.360488 0.146392
H6    H     H_    0.548360 0.975378 0.639506 0.146385
H7    H     H_    0.451642 0.975359 0.360487 0.146391
H8    H     H_    0.094939 0.503144 0.672201 0.143195
H9    H     H_    0.905060 0.503149 0.327802 0.143196
H10   H     H_    0.594941 0.003161 0.672181 0.143199
H11   H     H_    0.405060 0.003148 0.327806 0.143194
H12   H     H_    0.081443 0.354209 0.749006 0.268027
H13   H     H_    0.529244 0.928436 0.824312 0.121379
H14   H     H_    0.122151 0.360674 0.747140 0.255736
H15   H     H_    0.089090 0.334798 0.815909 0.254756
H16   H     H_    0.091878 0.393317 0.861921 0.207894
H17   H     H_    0.051523 0.384637 0.865827 0.224089
H18   H     H_    0.918553 0.354214 0.250994 0.268027
H19   H     H_    0.877845 0.360680 0.252865 0.255738
H20   H     H_    0.910904 0.334804 0.184093 0.254756
H21   H     H_    0.908116 0.393324 0.138085 0.207893
H22   H     H_    0.948472 0.384643 0.134174 0.224088
H23   H     H_    0.581452 0.854227 0.749006 0.268023
H24   H     H_    0.470764 0.928425 0.175677 0.121385
H25   H     H_    0.622163 0.860695 0.747120 0.255739
H26   H     H_    0.589106 0.834821 0.815902 0.254756
H27   H     H_    0.591900 0.893343 0.861896 0.207889
H28   H     H_    0.551540 0.884661 0.865823 0.224083
H29   H     H_    0.418553 0.854214 0.250988 0.268025
H30   H     H_    0.377844 0.860681 0.252858 0.255736
H31   H     H_    0.410905 0.834806 0.184084 0.254756
H32   H     H_    0.408114 0.893327 0.138082 0.207891
H33   H     H_    0.448471 0.884646 0.134168 0.224085
H34   H     H_    0.000122 0.377140 0.165902 0.265205
H35   H     H_    0.390056 0.492259 0.011612 0.160909
H36   H     H_    0.040763 0.354737 0.128720 0.262845
H37   H     H_    0.037428 0.397899 0.161107 0.254595
H38   H     H_    0.066399 0.391109 0.024369 0.210619
H39   H     H_    0.033254 0.422570 0.066828 0.218991
H40   H     H_    0.999875 0.377136 0.834103 0.265205
H41   H     H_    0.959232 0.354735 0.871289 0.262843
H42   H     H_    0.962569 0.397897 0.838898 0.254596
H43   H     H_    0.933600 0.391109 0.975637 0.210621
H44   H     H_    0.966746 0.422569 0.933173 0.218989
H45   H     H_    0.500116 0.877138 0.165904 0.265206
H46   H     H_    0.609945 0.492260 0.988387 0.160908
H47   H     H_    0.540757 0.854735 0.128727 0.262844
H48   H     H_    0.537420 0.897897 0.161118 0.254596
H49   H     H_    0.566396 0.891108 0.024378 0.210622
H50   H     H_    0.533251 0.922569 0.066833 0.218984
H51   H     H_    0.499893 0.877148 0.834082 0.265208
H52   H     H_    0.459255 0.854740 0.871247 0.262846
H53   H     H_    0.462588 0.897904 0.838868 0.254590
H54   H     H_    0.433608 0.891107 0.975605 0.210616
H55   H     H_    0.466750 0.922571 0.933163 0.218988
H56   H     H_    0.424181 0.256796 0.187385 0.263130
H57   H     H_    0.890056 0.992258 0.011612 0.160909
H58   H     H_    0.447350 0.296695 0.175793 0.260168
H59   H     H_    0.402146 0.297455 0.202594 0.257432
H60   H     H_    0.435639 0.312664 0.076414 0.225559
H61   H     H_    0.414478 0.272672 0.085990 0.217190
H62   H     H_    0.575819 0.256795 0.812614 0.263130
H63   H     H_    0.552650 0.296694 0.824206 0.260169
H64   H     H_    0.597853 0.297454 0.797405 0.257432
H65   H     H_    0.564361 0.312664 0.923585 0.225559
H66   H     H_    0.585522 0.272672 0.914009 0.217189
H67   H     H_    0.924176 0.756796 0.187380 0.263129
H68   H     H_    0.109941 0.992249 0.988391 0.160908
H69   H     H_    0.947345 0.796695 0.175791 0.260169
H70   H     H_    0.902142 0.797455 0.202585 0.257433
H71   H     H_    0.935638 0.812664 0.076406 0.225559
H72   H     H_    0.914478 0.772672 0.085979 0.217189
H73   H     H_    0.075824 0.756795 0.812620 0.263129
H74   H     H_    0.052655 0.796695 0.824209 0.260169
H75   H     H_    0.097858 0.797454 0.797415 0.257432
H76   H     H_    0.064362 0.812664 0.923594 0.225559
H77   H     H_    0.085522 0.772672 0.914021 0.217189
H78   H     H_    0.830822 0.521851 0.929391 0.269098
H79   H     H_    0.327148 0.490879 0.076614 0.140464
H80   H     H_    0.813001 0.546163 0.883348 0.254423
H81   H     H_    0.795706 0.504471 0.919930 0.253428
H82   H     H_    0.833623 0.501090 0.788679 0.222860
H83   H     H_    0.849616 0.475889 0.835607 0.207673
H84   H     H_    0.169191 0.521894 0.070613 0.269112
H85   H     H_    0.187040 0.546128 0.116696 0.254379
H86   H     H_    0.204293 0.504439 0.080023 0.253434
H87   H     H_    0.166373 0.501035 0.211299 0.222855
H88   H     H_    0.150385 0.475867 0.164315 0.207656
H89   H     H_    0.330633 0.022313 0.929326 0.269145
H90   H     H_    0.672853 0.490880 0.923383 0.140463
H91   H     H_    0.312739 0.046094 0.882740 0.254000
H92   H     H_    0.295637 0.004442 0.920025 0.253402
H93   H     H_    0.333695 0.000748 0.788729 0.222883
H94   H     H_    0.349581 0.975866 0.836272 0.207572
H95   H     H_    0.669200 0.021908 0.070622 0.269123
H96   H     H_    0.687040 0.046140 0.116727 0.254377
H97   H     H_    0.704300 0.004454 0.080046 0.253435
H98   H     H_    0.666369 0.001036 0.211309 0.222871
H99   H     H_    0.650387 0.975878 0.164305 0.207668
H100  H     H_    0.185160 0.461578 0.700473 0.254871
H101  H     H_    0.827148 0.990878 0.076615 0.140463
H102  H     H_    0.188169 0.434543 0.628801 0.262188
H103  H     H_    0.210795 0.474900 0.609579 0.262679
H104  H     H_    0.159286 0.480637 0.596035 0.214756
H105  H     H_    0.156133 0.507147 0.667009 0.214219
H106  H     H_    0.814837 0.461586 0.299534 0.254871
H107  H     H_    0.811828 0.434551 0.371205 0.262189
H108  H     H_    0.789203 0.474909 0.390428 0.262678
H109  H     H_    0.840713 0.480644 0.403971 0.214755
H110  H     H_    0.843866 0.507154 0.332996 0.214220
H111  H     H_    0.685173 0.961603 0.700424 0.254872
H112  H     H_    0.143222 0.565604 0.240481 0.133834
H113  H     H_    0.172849 0.990869 0.923395 0.140461
H114  H     H_    0.688176 0.934566 0.628760 0.262190
H115  H     H_    0.710801 0.974924 0.609528 0.262680
H116  H     H_    0.659287 0.980658 0.596002 0.214755
H117  H     H_    0.656139 0.007169 0.666971 0.214221
H118  H     H_    0.314835 0.961587 0.299541 0.254870
H119  H     H_    0.311828 0.934550 0.371210 0.262189
H120  H     H_    0.289203 0.974908 0.390437 0.262679
H121  H     H_    0.340714 0.980642 0.403976 0.214754
H122  H     H_    0.343865 0.007154 0.333004 0.214218
H123  H     H_    0.328043 0.506660 0.273268 0.155389
H124  H     H_    0.671956 0.506658 0.726729 0.155388
H125  H     H_    0.828043 0.006661 0.273269 0.155388
H126  H     H_    0.171960 0.006671 0.726740 0.155388
H127  H     H_    0.390830 0.507603 0.209205 0.162927
H128  H     H_    0.609169 0.507602 0.790794 0.162928
H129  H     H_    0.890830 0.007604 0.209205 0.162927
H130  H     H_    0.109172 0.007614 0.790798 0.162923
H131  H     H_    0.281885 0.541534 0.161004 0.153944
H132  H     H_    0.356740 0.065474 0.759452 0.133875
H133  H     H_    0.718115 0.541536 0.838989 0.153945
H134  H     H_    0.781885 0.041532 0.161002 0.153944
H135  H     H_    0.218118 0.041523 0.839025 0.153937
H136  H     H_    0.219000 0.542282 0.224730 0.140327
H137  H     H_    0.781000 0.542284 0.775262 0.140338
H138  H     H_    0.718999 0.042280 0.224729 0.140332
H139  H     H_    0.281004 0.042267 0.775297 0.140303
H140  H     H_    0.218058 0.454654 0.348466 0.166466
H141  H     H_    0.781942 0.454653 0.651531 0.166464
H142  H     H_    0.718058 0.954655 0.348471 0.166466
H143  H     H_    0.643218 0.065610 0.240493 0.133836
H144  H     H_    0.281940 0.954656 0.651529 0.166480
H145  H     H_    0.911255 0.598133 0.700665 0.146401
H146  H     H_    0.088766 0.598105 0.299341 0.146398
H147  H     H_    0.411185 0.097983 0.700479 0.146367
H148  H     H_    0.588761 0.098109 0.299351 0.146399
H149  H     H_    0.171811 0.444091 0.319632 0.145808
H150  H     H_    0.828188 0.444091 0.680365 0.145805
H151  H     H_    0.671811 0.944090 0.319641 0.145808
H152  H     H_    0.328191 0.944086 0.680356 0.145828
H153  H     H_    0.109234 0.444570 0.379263 0.162394
H154  H     H_    0.138348 0.422058 0.740194 0.147752
H155  H     H_    0.890765 0.444570 0.620737 0.162391
H156  H     H_    0.609234 0.944569 0.379271 0.162396
H157  H     H_    0.390769 0.944567 0.620720 0.162419
H158  H     H_    0.109651 0.554847 0.406659 0.159840
H159  H     H_    0.890350 0.554848 0.593343 0.159847
H160  H     H_    0.609651 0.054847 0.406655 0.159844
H161  H     H_    0.390347 0.054843 0.593320 0.159807
H162  H     H_    0.172362 0.554172 0.347332 0.137843
H163  H     H_    0.827639 0.554173 0.652665 0.137850
H164  H     H_    0.672362 0.054172 0.347329 0.137842
H165  H     H_    0.861648 0.422065 0.259811 0.147752
H166  H     H_    0.327635 0.054167 0.652668 0.137797
H167  H     H_    0.500455 0.609352 0.099484 0.196182
H168  H     H_    0.499545 0.609350 0.900515 0.196183
H169  H     H_    0.000452 0.109351 0.099487 0.196183
H170  H     H_    0.999548 0.109351 0.900513 0.196183
H171  H     H_    0.444581 0.718000 0.053138 0.146004
H172  H     H_    0.555419 0.717998 0.946854 0.146004
H173  H     H_    0.944581 0.217999 0.053157 0.146004
H174  H     H_    0.055420 0.217999 0.946844 0.146004
H175  H     H_    0.944428 0.281207 0.053776 0.132668
H176  H     H_    0.638361 0.922082 0.740163 0.147753
H177  H     H_    0.055572 0.281208 0.946227 0.132668
H178  H     H_    0.444430 0.781208 0.053753 0.132668
H179  H     H_    0.555573 0.781207 0.946233 0.132669
H180  H     H_    0.035355 0.326765 0.040103 0.157060
H181  H     H_    0.964644 0.326764 0.959902 0.157061
H182  H     H_    0.535352 0.826764 0.040106 0.157059
H183  H     H_    0.464651 0.826766 0.959877 0.157055
H184  H     H_    0.963875 0.574457 0.695298 0.157261
H185  H     H_    0.036140 0.574445 0.304712 0.157270
H186  H     H_    0.463820 0.074389 0.695164 0.157319
H187  H     H_    0.361647 0.922067 0.259812 0.147752
H188  H     H_    0.536136 0.074447 0.304716 0.157269
H189  H     H_    0.504786 0.390142 0.094967 0.162134
H190  H     H_    0.495214 0.390142 0.905033 0.162134
H191  H     H_    0.004783 0.890142 0.094971 0.162133
H192  H     H_    0.995217 0.890142 0.905029 0.162134
H193  H     H_    0.504951 0.327119 0.094307 0.147867
H194  H     H_    0.495049 0.327119 0.905692 0.147868
H195  H     H_    0.004947 0.827119 0.094312 0.147866
H196  H     H_    0.995053 0.827119 0.905688 0.147866
H197  H     H_    0.946386 0.717172 0.077039 0.159258
H198  H     H_    0.029232 0.428421 0.824323 0.121385
H199  H     H_    0.053614 0.717172 0.922961 0.159257
H200  H     H_    0.446387 0.217172 0.077045 0.159257
H201  H     H_    0.553613 0.217172 0.922954 0.159258
H202  H     H_    0.907986 0.483710 0.805984 0.135005
H203  H     H_    0.092012 0.483697 0.193990 0.135003
H204  H     H_    0.407975 0.983692 0.806211 0.134962
H205  H     H_    0.592014 0.983703 0.193987 0.135001
H206  H     H_    0.950025 0.521900 0.858792 0.193271
H207  H     H_    0.049978 0.521893 0.141205 0.193267
H208  H     H_    0.450014 0.021879 0.858809 0.193254
O1    O     O_R   0.050910 0.528730 0.449120 -0.622917
O2    O     O_R   0.550920 0.499990 0.000830 -0.623655
O3    O     O_R   0.949080 0.999990 0.999170 -0.623656
O4    O     O_R   0.050920 0.999990 0.000830 -0.623657
O5    O     O_R   0.500000 0.550830 0.051830 -0.621225
O6    O     O_R   0.500000 0.550830 0.948170 -0.621226
O7    O     O_R   0.000000 0.050830 0.051830 -0.621225
O8    O     O_R   0.000000 0.050830 0.948170 -0.621227
O9    O     O_R   0.050890 0.471250 0.449130 -0.627151
O10   O     O_R   0.949110 0.471250 0.550870 -0.627148
O11   O     O_R   0.550890 0.971250 0.449130 -0.627146
O12   O     O_R   0.949090 0.528730 0.550880 -0.622910
O13   O     O_R   0.449110 0.971250 0.550870 -0.627153
O14   O     O_R   1.000000 0.528730 0.591620 -0.627307
O15   O     O_R   0.000000 0.528730 0.408380 -0.627313
O16   O     O_R   0.500000 0.028730 0.591620 -0.627360
O17   O     O_R   0.500000 0.028730 0.408380 -0.627314
O18   O     O_R   0.999980 0.471250 0.591630 -0.618672
O19   O     O_R   0.000020 0.471250 0.408370 -0.618669
O20   O     O_R   0.499980 0.971250 0.591630 -0.618651
O21   O     O_R   0.500020 0.971250 0.408370 -0.618671
O22   O     O_R   0.971250 0.449060 0.028730 -0.633255
O23   O     O_R   0.550910 0.028730 0.449120 -0.622904
O24   O     O_R   0.028750 0.449060 0.971270 -0.633252
O25   O     O_R   0.471250 0.949060 0.028730 -0.633253
O26   O     O_R   0.528750 0.949060 0.971270 -0.633259
O27   O     O_R   0.971250 0.499970 0.937120 -0.626433
O28   O     O_R   0.028750 0.499970 0.062880 -0.626434
O29   O     O_R   0.471250 0.999970 0.937120 -0.626440
O30   O     O_R   0.528750 0.999970 0.062880 -0.626431
O31   O     O_R   0.028730 0.499980 0.879660 -0.609147
O32   O     O_R   0.971270 0.499980 0.120340 -0.609148
O33   O     O_R   0.528730 0.999980 0.879660 -0.609150
O34   O     O_R   0.449090 0.028730 0.550880 -0.622941
O35   O     O_R   0.471270 0.999980 0.120340 -0.609148
O36   O     O_R   0.971250 0.550880 0.028740 -0.590666
O37   O     O_R   0.028750 0.550880 0.971260 -0.590668
O38   O     O_R   0.471250 0.050880 0.028740 -0.590667
O39   O     O_R   0.528750 0.050880 0.971260 -0.590665
O40   O     O_R   0.499970 0.449010 0.051630 -0.622258
O41   O     O_R   0.500030 0.449010 0.948370 -0.622258
O42   O     O_R   0.999970 0.949010 0.051630 -0.622259
O43   O     O_R   0.000030 0.949010 0.948370 -0.622258
O44   O     O_R   0.449080 0.499920 0.102620 -0.620971
O45   O     O_R   0.550920 0.499920 0.897380 -0.620973
O46   O     O_R   0.949080 0.999920 0.102620 -0.620971
O47   O     O_R   0.050920 0.999920 0.897380 -0.620967
O48   O     O_R   0.449080 0.499990 0.999170 -0.623656
Zn1   Zn    Zn3+2 0.000000 0.538370 0.500000 0.952574
Zn2   Zn    Zn3+2 0.500010 0.499910 0.930920 0.971846
Zn3   Zn    Zn3+2 0.999990 0.999910 0.069080 0.971844
Zn4   Zn    Zn3+2 0.000010 0.999910 0.930920 0.971849
Zn5   Zn    Zn3+2 0.500000 0.038370 0.500000 0.952534
Zn6   Zn    Zn3+2 0.000000 0.461610 0.500000 0.963215
Zn7   Zn    Zn3+2 0.500000 0.961610 0.500000 0.963224
Zn8   Zn    Zn3+2 0.961610 0.499970 0.038370 0.985103
Zn9   Zn    Zn3+2 0.038390 0.499970 0.961630 0.985105
Zn10  Zn    Zn3+2 0.461610 0.999970 0.038370 0.985102
Zn11  Zn    Zn3+2 0.538390 0.999970 0.961630 0.985103
Zn12  Zn    Zn3+2 0.499990 0.499910 0.069080 0.971846

loop_
_geom_bond_atom_site_label_1
_geom_bond_atom_site_label_2
_ccdc_geom_bond_type
C2    C227  S    
C178  C180  S    
C89   C94   A    
C38   H185  S    
O17   Zn5   S    
C44   C259  S    
C172  H50   S    
C274  H140  S    
C230  H35   S    
C58   C67   A    
C217  H198  S    
C199  H111  S    
C21   H158  S    
C147  C187  S    
Br1   C278  S    
C4    C239  S    
C241  C245  A    
C41   O31   A    
C201  C229  A    
C243  C247  A    
C109  C130  S    
C43   O29   A    
O9    Zn6   S    
C164  H26   S    
O12   Zn1   S    
C80   C83   A    
C205  C209  A    
C194  H104  S    
C175  H51   S    
C213  C218  A    
C24   C68   A    
O16   Zn5   S    
C59   H169  S    
C263  H138  S    
C261  C265  A    
C198  C206  S    
C224  O17   A    
C119  C126  A    
C164  H25   S    
C260  C264  A    
C244  H124  S    
C263  C267  A    
C272  H147  S    
C243  H123  S    
C171  H41   S    
O38   Zn10  S    
C162  H20   S    
C183  C184  S    
C139  C142  A    
C184  H75   S    
C113  C157  A    
O4    Zn3   S    
C196  C205  S    
C162  H19   S    
C208  C212  A    
C169  H36   S    
C35   H4    S    
C223  O20   A    
C235  H90   S    
C149  C153  A    
C40   C77   A    
C199  H115  S    
C236  H101  S    
C100  C105  A    
C51   O2    A    
C148  C152  A    
C57   C101  A    
C231  H46   S    
C187  H88   S    
C179  H9    S    
C125  C128  A    
C179  C205  A    
C107  C110  A    
C100  C117  A    
C182  H70   S    
C38   C271  A    
C36   C97   S    
C277  H144  S    
C177  H56   S    
C159  C212  S    
C52   O46   A    
C156  C248  A    
C3    C7    A    
C41   C226  S    
O6    Zn2   S    
C31   C266  S    
C184  H74   S    
C37   C269  A    
C159  C160  S    
C152  H132  S    
C119  C130  A    
C55   O7    A    
C76   C115  A    
C95   C97   A    
C37   H184  S    
C126  H200  S    
C188  H85   S    
C168  H8    S    
C191  H92   S    
C173  H48   S    
C121  C181  S    
C12   C17   A    
C45   O37   A    
C276  H142  S    
C132  C137  A    
C183  H77   S    
C80   H177  S    
C238  H113  S    
C177  H59   S    
C150  H1    S    
C167  H38   S    
C53   O4    A    
O27   Zn8   S    
C46   H5    S    
C211  H187  S    
C257  C262  A    
C150  C269  A    
C122  C125  A    
C196  H110  S    
C72   C86   A    
C110  C131  S    
C127  H201  S    
C8    H149  S    
C46   C90   A    
C103  C107  A    
C267  C276  A    
C33   C268  S    
O3    Zn4   S    
C163  H28   S    
C8    C30   A    
C48   O40   A    
C73   C80   A    
C140  C142  A    
O46   Zn3   S    
C82   H179  S    
C5    C240  S    
C235  C240  A    
C115  C148  A    
C271  H146  S    
C77   C157  S    
C42   O28   A    
C119  C176  S    
C166  H31   S    
C45   O36   A    
C22   C27   A    
C204  O11   A    
C196  C197  S    
C101  C223  S    
C251  H130  S    
C81   H178  S    
C25   C29   A    
C172  C173  S    
C161  H22   S    
C170  C171  S    
C27   C31   A    
C60   C69   A    
C120  C130  A    
C28   C32   A    
C35   C79   A    
C221  O18   A    
C171  H40   S    
C201  C207  A    
C174  C175  S    
C186  H80   S    
C114  H203  S    
C35   C270  A    
C50   O48   A    
C83   C98   S    
C24   C229  S    
C222  O15   A    
C44   O35   A    
O37   Zn9   S    
O10   Zn6   S    
O2    Zn12  S    
O13   Zn7   S    
C94   C172  S    
C189  H93   S    
C107  H195  S    
O41   Zn2   S    
C16   C20   A    
C200  C202  S    
C183  H76   S    
C120  C127  A    
C105  H193  S    
C27   H163  S    
C207  C211  A    
C260  H135  S    
C25   H161  S    
C21   C26   A    
C186  H81   S    
C135  C155  A    
C197  H106  S    
C54   O5    A    
C102  C106  A    
C70   C81   A    
O34   Zn5   S    
C203  C208  A    
C190  H10   S    
O40   Zn12  S    
C36   O25   A    
C245  C250  A    
C77   C116  A    
C180  H63   S    
C170  H43   S    
C122  C183  S    
O48   Zn2   S    
C218  H2    S    
C242  C246  A    
C102  H190  S    
C230  C252  A    
C40   C273  A    
O29   Zn10  S    
C59   C69   A    
C189  C191  S    
Br4   C136  S    
C181  H72   S    
C72   C78   A    
C103  C118  A    
C14   C18   A    
C258  C263  A    
O32   Zn8   S    
C136  C140  A    
C276  C280  A    
C87   C98   A    
C116  C149  A    
C193  H96   S    
C64   C66   A    
C246  C251  A    
O21   Zn7   S    
C22   H159  S    
C220  H24   S    
C84   C99   S    
C210  C214  A    
C194  C203  S    
C185  H83   S    
C191  H89   S    
O33   Zn11  S    
C105  C109  A    
O28   Zn9   S    
C153  C273  A    
C100  H189  S    
C123  H197  S    
C192  H99   S    
C215  O34   A    
C74   C111  A    
C233  H68   S    
Br12  C61   S    
C264  H139  S    
O1    Zn1   S    
C66   C86   S    
C58   H168  S    
Br14  C63   S    
C212  C217  A    
C200  H122  S    
C178  H66   S    
C245  H125  S    
C134  C139  A    
C202  H120  S    
C15   H156  S    
C186  H78   S    
C116  H205  S    
C188  H84   S    
C112  O12   A    
Br9   C279  S    
C81   C84   A    
C108  C110  A    
C179  C227  A    
Br13  C62   S    
C153  H143  S    
C3    C277  A    
C47   O38   A    
C274  C278  A    
C91   C95   A    
C89   C99   A    
C8    C12   A    
O39   Zn11  S    
C5    C257  A    
C63   C66   A    
C36   O26   A    
C23   C28   A    
C231  C235  A    
C101  C146  A    
C159  H17   S    
C167  H39   S    
C197  H108  S    
C103  H191  S    
C9    H150  S    
C49   O43   A    
C106  C109  A    
C125  H199  S    
C44   O30   A    
C111  H202  S    
C59   C63   A    
C190  C206  A    
C240  C244  A    
O11   Zn7   S    
C56   H167  S    
C104  C118  A    
C174  H54   S    
C181  C182  S    
C178  H65   S    
C232  C236  A    
C146  C156  A    
C70   H171  S    
C18   C112  S    
C198  H116  S    
C11   C33   A    
C234  H79   S    
C224  O21   A    
C4    C278  A    
C175  H53   S    
C5    C279  A    
C6    C280  A    
C136  C144  A    
C165  C166  S    
C121  C123  A    
Br11  C3    S    
C16   H157  S    
C166  H29   S    
C134  C144  A    
C52   O3    A    
Br10  C280  S    
C42   O32   A    
C187  H87   S    
O20   Zn7   S    
O31   Zn9   S    
C165  C216  S    
C88   H181  S    
C13   C248  A    
C26   C30   A    
C60   H170  S    
O45   Zn2   S    
C249  C253  A    
C226  C270  A    
C151  C271  A    
C221  O14   A    
C165  H32   S    
C251  C255  A    
C151  H112  S    
C152  C272  A    
O36   Zn8   S    
C7    C242  S    
C257  H133  S    
C192  C193  S    
C202  H118  S    
C160  H15   S    
C10   H151  S    
C160  H12   S    
C188  H86   S    
C9    C31   A    
C49   C118  S    
O35   Zn10  S    
C10   C32   A    
C265  C274  A    
C71   C82   A    
C191  H91   S    
C74   C124  S    
C233  C238  A    
C6    C241  S    
C172  H49   S    
C196  H109  S    
C177  H58   S    
C126  C129  A    
C20   C25   A    
C1    C17   S    
C262  H137  S    
C32   C267  S    
C180  H62   S    
O26   Zn11  S    
C12   H153  S    
C247  C252  A    
C55   O8    A    
C60   C64   A    
O24   Zn9   S    
C138  C141  A    
C210  H176  S    
C65   C85   S    
C24   C259  A    
C232  H57   S    
C17   C21   A    
C92   C96   A    
C132  C143  A    
C175  H52   S    
C169  H34   S    
C195  H102  S    
C19   C23   A    
C23   H160  S    
C29   H166  S    
C45   C141  S    
C7    C260  A    
C158  C259  A    
C29   C33   A    
C104  H192  S    
C214  C219  A    
C128  C143  S    
C54   C67   S    
Br6   C138  S    
C192  H98   S    
C30   C265  S    
C39   H186  S    
C82   C84   A    
C15   C19   A    
C161  H21   S    
O7    Zn3   S    
C89   H182  S    
C162  H18   S    
C169  H37   S    
C6    C258  A    
C50   C252  S    
C76   C146  S    
C9    C14   A    
C247  H127  S    
C48   C117  S    
Br3   C134  S    
C124  C154  A    
C90   C135  A    
C92   C167  S    
C11   C16   A    
C220  C229  A    
C121  C131  A    
C190  C228  A    
C34   O24   A    
C53   O47   A    
O8    Zn4   S    
C182  H69   S    
C93   C170  S    
C275  H141  S    
C173  H47   S    
C47   O39   A    
C87   H180  S    
C200  C207  S    
C38   C75   A    
C193  H97   S    
C62   C65   A    
C20   C215  S    
C13   C228  S    
C269  H145  S    
C41   O27   A    
C137  C141  A    
C209  C213  A    
C219  C228  A    
C56   C67   A    
C40   H188  S    
C163  C164  S    
C51   C253  S    
C266  C275  A    
Br7   C139  S    
C95   C174  S    
C161  C162  S    
C90   C222  S    
C37   C74   A    
C206  C210  A    
O19   Zn6   S    
C163  H27   S    
C236  C241  A    
C244  C249  A    
C1    O9    A    
C165  H33   S    
C180  H64   S    
C155  H207  S    
C112  O10   A    
C114  C147  A    
C187  C188  S    
C246  H126  S    
C256  C261  A    
C73   C86   A    
C185  C186  S    
C233  C255  A    
C275  C279  A    
C14   H155  S    
C216  C220  A    
C133  C138  A    
C19   C204  S    
C51   O45   A    
C208  H154  S    
C75   C114  A    
C157  C158  A    
C250  H129  S    
C181  H71   S    
C79   C124  A    
C39   C76   A    
C78   C83   A    
C145  C185  S    
C195  H100  S    
C106  H194  S    
C193  H95   S    
C148  C189  S    
C167  C169  S    
C79   C221  S    
C88   C93   A    
C231  C253  A    
C223  O16   A    
C26   H162  S    
C13   C57   A    
C11   H152  S    
C238  C242  A    
C68   C113  A    
C176  H60   S    
C158  H3    S    
C42   C237  S    
C185  H82   S    
C71   H172  S    
C120  C178  S    
C55   C69   S    
C168  C203  A    
O14   Zn1   S    
O18   Zn6   S    
C168  C225  A    
C87   C92   A    
C61   C65   A    
C225  C270  S    
C4    C256  A    
C58   C62   A    
C145  C150  A    
O44   Zn12  S    
C218  C227  A    
C261  H136  S    
Br2   C133  S    
C201  H11   S    
C211  C216  A    
C199  H114  S    
C10   C15   A    
C111  C145  A    
C71   C85   A    
C160  H14   S    
C54   O6    A    
C1    O1    A    
C91   H183  S    
C182  H67   S    
C2    C237  A    
C239  C243  A    
C34   O22   A    
C189  H94   S    
C108  H196  S    
C43   C248  S    
C194  H105  S    
C250  C254  A    
C93   C96   A    
C28   H164  S    
C129  C144  S    
C198  C199  S    
C154  H206  S    
O22   Zn8   S    
C197  H107  S    
C73   H174  S    
C49   O42   A    
C147  C151  A    
C52   C254  S    
C56   C61   A    
C53   C255  S    
C68   H7    S    
C123  C128  A    
Br15  C64   S    
C122  C131  A    
C155  C237  A    
O5    Zn12  S    
C34   C96   S    
C232  C254  A    
C174  H55   S    
C163  C214  S    
C195  H103  S    
O43   Zn4   S    
C133  C143  A    
C94   C97   A    
C91   C99   A    
C78   H175  S    
C102  C117  A    
C219  H13   S    
C88   C98   A    
C258  H134  S    
C217  C225  A    
C222  O19   A    
C115  H204  S    
C113  C224  S    
C176  H61   S    
C198  H117  S    
O23   Zn5   S    
C202  H119  S    
C230  C234  A    
C234  C239  A    
C127  C129  A    
C204  O23   A    
C209  H165  S    
C18   C22   A    
C184  H73   S    
C154  C226  A    
C249  H128  S    
O42   Zn3   S    
C264  C268  A    
O25   Zn10  S    
C171  H42   S    
O47   Zn4   S    
C170  H44   S    
C166  H30   S    
Br16  C132  S    
C176  C177  S    
C159  H16   S    
C43   O33   A    
C50   O44   A    
C75   C135  S    
C215  O13   A    
C256  H131  S    
C173  H45   S    
C268  C277  A    
Br5   C137  S    
C39   C272  A    
C273  H148  S    
O15   Zn1   S    
Br8   C140  S    
C149  C192  S    
C72   H173  S    
C200  H121  S    
C194  C195  S    
C262  C266  A    
C57   H6    S    
C161  C213  S    
C156  H208  S    
C48   O41   A    
C2    C46   A    
C47   C142  S    
C70   C85   A    
C104  C108  A    
O30   Zn11  S    
C164  H23   S    
