data_mof_unit_34089.cif
_audit_creation_date              2012-12-10T20:30:15-0500
_audit_creation_method            fapswitch 2.2
_symmetry_space_group_name_H-M    P1
_symmetry_Int_Tables_number       1
_space_group_crystal_system       triclinic
_cell_length_a                    9.887941
_cell_length_b                    10.694134
_cell_length_c                    13.102351
_cell_angle_alpha                 90.222008
_cell_angle_beta                  69.548262
_cell_angle_gamma                 90.114502
_cell_volume                      1298.14014046

loop_
_atom_site_label
_atom_site_type_symbol
_atom_type_description
_atom_site_fract_x
_atom_site_fract_y
_atom_site_fract_z
_atom_type_partial_charge
C1    C     C_R   0.502042 0.739807 0.496305 0.878151
C2    C     C_R   0.433969 0.498540 0.984486 0.087044
C3    C     C_R   0.450689 0.452266 0.879877 0.074097
C4    C     C_R   0.537961 0.464916 0.031074 0.091573
C5    C     C_R   0.643010 0.372009 0.981090 0.180978
C6    C     C_R   0.646946 0.316960 0.883613 -0.217315
C7    C     C_R   0.552350 0.356723 0.833305 -0.208949
C8    C     C_R   0.540932 0.521891 0.126022 -0.233737
C9    C     C_R   0.732482 0.384437 0.130954 -0.204897
C10   C     C_R   0.368534 0.505896 0.822492 -0.112702
C11   C     C_R   0.411078 0.935392 0.448965 0.132326
C12   C     C_R   0.419708 0.498248 0.704327 0.864726
C13   C     C_R   0.512824 0.870938 0.479685 -0.105851
C14   C     C_R   0.630424 0.935605 0.490990 -0.209957
C15   C     C_R   0.629056 0.064536 0.492804 -0.210649
C16   C     C_R   0.509515 0.128319 0.484347 -0.067206
C17   C     C_R   0.407013 0.062960 0.454356 0.017878
C18   C     C_3   0.245054 0.067183 0.490020 -0.261977
C19   C     C_3   0.250237 0.924145 0.482179 -0.107059
C20   C     C_R   0.907047 0.596367 0.546717 0.172168
C21   C     C_R   0.954233 0.412516 0.443324 -0.109244
C22   C     C_R   0.098519 0.413270 0.442458 -0.028134
C23   C     C_R   0.500858 0.259997 0.498259 0.878401
C24   C     C_R   0.046873 0.593186 0.550772 0.093569
C25   C     C_3   0.992065 0.632128 0.668731 -0.263351
C26   C     C_3   0.842212 0.641937 0.661012 -0.501437
C27   C     C_R   0.580396 0.498222 0.295786 0.854057
C28   C     C_R   0.741097 0.333929 0.030650 -0.204767
C29   C     C_R   0.628850 0.475874 0.179633 -0.043026
C30   C     C_R   0.256287 0.588942 0.874724 -0.169637
C31   C     C_R   0.225507 0.619922 0.983360 -0.131671
C32   C     C_R   0.314433 0.577161 0.037809 -0.204231
H1    H     H_    0.799683 0.346721 0.173350 0.149791
H2    H     H_    0.716096 0.112908 0.508696 0.174577
H3    H     H_    0.206651 0.113880 0.429587 0.142774
H4    H     H_    0.201491 0.876440 0.562045 0.152913
H5    H     H_    0.920313 0.340251 0.399469 0.131926
H6    H     H_    0.173375 0.342115 0.397379 0.123955
H7    H     H_    0.036757 0.723687 0.681914 0.129855
H8    H     H_    0.761018 0.576159 0.714257 0.235921
H9    H     H_    0.724728 0.244417 0.845295 0.177764
H10   H     H_    0.803717 0.739996 0.664488 0.187168
H11   H     H_    0.820406 0.261973 0.993913 0.148122
H12   H     H_    0.469254 0.597801 0.164468 0.136668
H13   H     H_    0.197613 0.635143 0.829851 0.167511
H14   H     H_    0.286016 0.606092 0.121621 0.132723
H15   H     H_    0.136948 0.682539 0.023956 0.156434
H16   H     H_    0.559044 0.311514 0.757623 0.175207
H17   H     H_    0.717662 0.887740 0.506649 0.166201
N1    N     N_R   0.856940 0.500860 0.500710 -0.094949
N2    N     N_R   0.142580 0.500820 0.500710 -0.082610
O1    O     O_R   0.385310 0.683210 0.499990 -0.634878
O2    O     O_R   0.614650 0.683240 0.500000 -0.618434
O3    O     O_R   0.328390 0.499940 0.653610 -0.575359
O4    O     O_R   0.557730 0.499980 0.653620 -0.615570
O5    O     O_R   0.385350 0.316760 0.500000 -0.601328
O6    O     O_R   0.614690 0.316790 0.500010 -0.632899
O7    O     O_R   0.442270 0.500020 0.346380 -0.623417
O8    O     O_R   0.671610 0.500060 0.346390 -0.615684
Zn1   Zn    Zn3+2 0.346870 0.499980 0.499990 0.977430
Zn2   Zn    Zn3+2 0.653130 0.500020 0.500010 0.944913
C33   C     C_2   0.171002 0.113700 0.604890 0.955633
O9    O     O_2   0.066546 0.182722 0.624877 -0.599825
O10   O     O_R   0.220318 0.077176 0.688177 -0.818090
H18   H     H_    0.161530 0.115177 0.761202 0.343784
C34   C     C_3   0.197466 0.867417 0.393822 -0.382693
C35   C     C_3   0.282927 0.906414 0.276326 -0.841746
H19   H     H_    0.280059 0.009138 0.266188 0.253821
H20   H     H_    0.396787 0.874859 0.252026 0.256538
H21   H     H_    0.234473 0.861530 0.220625 0.239080
H22   H     H_    0.203455 0.764078 0.397706 0.223157
H23   H     H_    0.082096 0.892451 0.413453 0.200830
C36   C     C_2   0.994101 0.534467 0.751036 0.965721
O11   O     O_2   0.041056 0.429410 0.722735 -0.563828
O12   O     O_R   0.936991 0.565247 0.861581 -0.821461
H24   H     H_    0.949712 0.495690 0.909666 0.343183

loop_
_geom_bond_atom_site_label_1
_geom_bond_atom_site_label_2
_ccdc_geom_bond_type
C27   C29   S    
C36   O11   D    
C30   H13   S    
C4    C8    A    
C23   O5    A    
O3    Zn1   S    
C11   C19   S    
C8    C29   A    
C3    C7    A    
C19   H4    S    
C5    C6    A    
C14   H17   S    
O7    Zn1   S    
C15   C16   A    
C22   H6    S    
C19   C34   S    
C2    C32   A    
C18   C19   S    
C1    O2    A    
C33   O10   S    
O1    Zn1   S    
O2    Zn2   S    
C34   H23   S    
C31   C32   A    
C16   C17   A    
C6    H9    S    
C20   N1    A    
C18   H3    S    
C15   H2    S    
C9    C29   A    
C24   N2    A    
C34   C35   S    
C31   H15   S    
C21   C22   A    
C9    H1    S    
C36   O12   S    
C21   N1    A    
O8    Zn2   S    
C35   H19   S    
C20   C24   A    
C24   C25   S    
C18   C33   S    
C25   C26   S    
O5    Zn1   S    
C35   H20   S    
C2    C4    A    
O12   H24   S    
C33   O9    D    
C5    C28   A    
C10   C30   A    
C34   H22   S    
C17   C18   S    
C10   C12   S    
C16   C23   S    
C1    C13   S    
C26   H10   S    
C23   O6    A    
C11   C17   A    
C32   H14   S    
C8    H12   S    
C4    C5    A    
C27   O7    A    
O6    Zn2   S    
C6    C7    A    
C28   H11   S    
C35   H21   S    
O10   H18   S    
C2    C3    A    
C3    C10   A    
C27   O8    A    
C7    H16   S    
C11   C13   A    
C26   H8    S    
C30   C31   A    
C20   C26   S    
O4    Zn2   S    
C25   C36   S    
C1    O1    A    
C12   O3    A    
C12   O4    A    
C21   H5    S    
N1    Zn2   S    
C14   C15   A    
N2    Zn1   S    
C13   C14   A    
C25   H7    S    
C9    C28   A    
C22   N2    A    
