data_mof_unit_63377.cif
_audit_creation_date              2012-12-10T20:49:11-0500
_audit_creation_method            fapswitch 2.2
_symmetry_space_group_name_H-M    P1
_symmetry_Int_Tables_number       1
_space_group_crystal_system       triclinic
_cell_length_a                    19.203285
_cell_length_b                    19.19547
_cell_length_c                    19.433464
_cell_angle_alpha                 89.664851
_cell_angle_beta                  94.841922
_cell_angle_gamma                 85.185483
_cell_volume                      7112.13476416

loop_
_atom_site_label
_atom_site_type_symbol
_atom_type_description
_atom_site_fract_x
_atom_site_fract_y
_atom_site_fract_z
_atom_type_partial_charge
Br1   Br    Br    0.464415 0.241424 0.350340 -0.476957
Br2   Br    Br    0.446007 0.911509 0.339452 -0.447354
Br3   Br    Br    0.244654 0.499041 0.639209 -0.476068
Br4   Br    Br    0.766873 0.496534 0.663209 -0.435793
Br5   Br    Br    0.069363 0.528985 0.328826 -0.380284
C1    C     C_R   0.493277 0.689245 0.506186 0.836851
C2    C     C_2   0.501213 0.550769 0.020610 -0.137075
C3    C     C_2   0.460734 0.516191 0.975525 -0.153193
C4    C     C_R   0.507470 0.311176 0.493370 0.947891
C5    C     C_R   0.500320 0.498305 0.762908 -0.115087
C6    C     C_R   0.513183 0.234888 0.496284 -0.244311
C7    C     C_R   0.531851 0.201415 0.560576 0.462849
C8    C     C_R   0.532173 0.128724 0.565734 -0.350763
C9    C     C_R   0.510213 0.089470 0.509077 0.079877
C10   C     C_R   0.487510 0.123750 0.445094 0.485832
C11   C     C_R   0.492205 0.196057 0.438243 0.081928
C12   C     C_R   0.498667 0.539776 0.094969 -0.142404
C13   C     C_R   0.539064 0.873874 0.542483 0.487826
C14   C     C_R   0.530996 0.802709 0.551954 -0.306299
C15   C     C_R   0.511424 0.908160 0.479848 0.125776
C16   C     C_R   0.689721 0.491312 0.508125 0.875630
C17   C     C_R   0.497365 0.764961 0.499446 -0.123777
C18   C     C_R   0.471991 0.798808 0.437052 -0.242051
C19   C     C_R   0.479814 0.869369 0.426876 0.225788
C20   C     C_R   0.233449 0.509540 0.487788 -0.243095
C21   C     C_R   0.195116 0.515827 0.422329 0.397082
C22   C     C_R   0.121683 0.516770 0.417486 0.192980
C23   C     C_R   0.434978 0.551936 0.125683 0.509596
C24   C     C_R   0.086541 0.507938 0.476876 0.135415
C25   C     C_R   0.125282 0.501803 0.541872 -0.260356
C26   C     C_R   0.197815 0.502902 0.547601 0.209317
C27   C     C_R   0.873213 0.476218 0.452461 0.552801
C28   C     C_R   0.310206 0.508285 0.492962 0.895232
C29   C     C_R   0.800157 0.478619 0.451173 -0.352221
C30   C     C_R   0.913307 0.484687 0.516077 0.147229
C31   C     C_R   0.766526 0.487181 0.512213 -0.148144
C32   C     C_R   0.806962 0.491704 0.575826 0.266827
C33   C     C_R   0.879684 0.490200 0.576996 -0.282819
C34   C     C_R   0.433405 0.539786 0.196327 -0.371158
C35   C     C_R   0.507252 0.492678 0.688476 0.838836
C36   C     C_R   0.492505 0.509215 0.311652 0.914812
C37   C     C_R   0.494935 0.517889 0.237064 -0.258734
C38   C     C_R   0.559195 0.506670 0.206827 0.420282
C39   C     C_R   0.560921 0.516901 0.135445 0.407962
C40   C     C_3   0.644584 0.422292 0.246936 -0.159098
C41   C     C_3   0.644689 0.906001 0.585310 -0.255612
C42   C     C_3   0.387495 0.085376 0.394473 -0.151829
C43   C     C_3   0.507528 0.238475 0.668111 -0.236037
C44   C     C_3   0.493027 0.666008 0.746674 -0.238779
C45   C     C_R   0.503138 0.565670 0.868262 -0.237084
C46   C     C_3   0.916430 0.396417 0.378422 -0.232883
C47   C     C_3   0.248879 0.456943 0.337836 -0.200533
C48   C     C_3   0.362139 0.646904 0.091202 -0.221039
C49   C     C_3   0.629919 0.445158 0.070578 -0.282060
C50   C     C_R   0.516219 0.559535 0.798829 0.527483
C51   C     C_R   0.469779 0.445348 0.796881 -0.232182
C52   C     C_R   0.455984 0.452458 0.865691 -0.158392
C53   C     C_R   0.473086 0.512214 0.901978 0.083203
H1    H     H_    0.432756 0.410720 0.890946 0.150605
H2    H     H_    0.515383 0.613043 0.894883 0.153200
H3    H     H_    0.384001 0.548176 0.219438 0.213919
H4    H     H_    0.544508 0.577576 0.003860 0.183254
H5    H     H_    0.679832 0.412401 0.205099 0.173976
H6    H     H_    0.601034 0.387169 0.241720 0.139500
H7    H     H_    0.675908 0.408191 0.296400 0.182256
H8    H     H_    0.654032 0.930990 0.535440 0.170056
H9    H     H_    0.668345 0.850969 0.588028 0.166546
H10   H     H_    0.671770 0.935070 0.627312 0.200146
H11   H     H_    0.360301 0.138813 0.396394 0.148076
H12   H     H_    0.551771 0.777001 0.600023 0.190950
H13   H     H_    0.377139 0.053990 0.440263 0.146511
H14   H     H_    0.364529 0.059856 0.347842 0.222120
H15   H     H_    0.452398 0.252508 0.646791 0.167689
H16   H     H_    0.520736 0.277871 0.707588 0.184777
H17   H     H_    0.512126 0.186640 0.694604 0.156962
H18   H     H_    0.470574 0.691082 0.792282 0.152743
H19   H     H_    0.450764 0.645756 0.711443 0.140056
H20   H     H_    0.516434 0.706988 0.717873 0.196533
H21   H     H_    0.866271 0.371135 0.371197 0.144420
H22   H     H_    0.951801 0.369556 0.420567 0.155208
H23   H     H_    0.447443 0.770070 0.395158 0.210247
H24   H     H_    0.942794 0.389959 0.329947 0.213709
H25   H     H_    0.202443 0.427119 0.324465 0.174692
H26   H     H_    0.286761 0.426465 0.375388 0.119142
H27   H     H_    0.275394 0.463457 0.289936 0.193608
H28   H     H_    0.406262 0.673586 0.072177 0.159273
H29   H     H_    0.353627 0.662821 0.145041 0.169939
H30   H     H_    0.313971 0.664696 0.058084 0.198925
H31   H     H_    0.686259 0.427742 0.068581 0.201704
H32   H     H_    0.607038 0.452832 0.016464 0.184079
H33   H     H_    0.605159 0.402165 0.095626 0.128023
H34   H     H_    0.549478 0.102376 0.614389 0.204251
H35   H     H_    0.769679 0.474482 0.402032 0.201746
H36   H     H_    0.099270 0.497099 0.588783 0.213207
H37   H     H_    0.910550 0.494202 0.625906 0.203945
H38   H     H_    0.456014 0.398489 0.770005 0.178516
H39   H     H_    0.423132 0.483085 0.994670 0.189746
N1    N     N_2   0.508194 0.016611 0.520298 -0.099627
N2    N     N_2   0.515469 0.980603 0.467914 -0.070144
N3    N     N_2   0.012392 0.506609 0.469587 -0.043992
N4    N     N_2   0.987293 0.485686 0.522268 -0.169886
O1    O     O_3   0.500000 0.500000 0.500000 -0.520075
O2    O     O_R   0.546320 0.532340 0.658770 -0.573099
O3    O     O_R   0.450550 0.549430 0.344370 -0.645113
O4    O     O_R   0.467400 0.453980 0.652500 -0.640254
O5    O     O_R   0.535730 0.464240 0.344360 -0.614458
O6    O     O_3   0.621312 0.494009 0.248379 -0.570099
O7    O     O_3   0.572618 0.909652 0.595235 -0.592090
O8    O     O_3   0.460183 0.087406 0.389327 -0.530892
O9    O     O_3   0.555122 0.240001 0.616724 -0.591996
O10   O     O_3   0.546142 0.612849 0.766941 -0.572337
O11   O     O_3   0.904364 0.468451 0.391115 -0.558670
O12   O     O_R   0.656240 0.454400 0.463600 -0.650023
O13   O     O_3   0.228984 0.523824 0.363050 -0.550223
O14   O     O_3   0.373617 0.573674 0.086265 -0.591993
O15   O     O_3   0.624814 0.508766 0.106922 -0.563365
O16   O     O_R   0.340160 0.549180 0.454800 -0.600128
O17   O     O_R   0.536860 0.652450 0.548350 -0.639186
O18   O     O_R   0.466740 0.343960 0.533260 -0.642359
O19   O     O_R   0.451210 0.659450 0.463610 -0.643195
O20   O     O_R   0.545190 0.344140 0.454780 -0.616846
O21   O     O_R   0.656710 0.532590 0.548340 -0.596249
O22   O     O_R   0.346890 0.463830 0.533270 -0.617424
Zn1   Zn    Zn3+2 0.558280 0.441710 0.441700 1.010272
Zn2   Zn    Zn3+2 0.558950 0.553420 0.562770 1.040512
Zn3   Zn    Zn3+2 0.446190 0.441460 0.553820 1.007366
Zn4   Zn    Zn3+2 0.436580 0.563410 0.441710 1.005484

loop_
_geom_bond_atom_site_label_1
_geom_bond_atom_site_label_2
_ccdc_geom_bond_type
C20   C26   A    
C43   O9    S    
C28   O16   A    
C46   O11   S    
C22   C24   A    
C36   C37   S    
C10   O8    S    
C29   H35   S    
C38   C39   A    
O1    Zn2   S    
C7    O9    S    
O19   Zn4   S    
C2    C3    D    
C16   C31   S    
C51   C52   A    
C15   N2    S    
C21   C22   A    
C32   C33   A    
O4    Zn3   S    
C47   H27   S    
C49   H32   S    
C25   C26   A    
C52   H1    S    
C10   C11   A    
C1    C17   S    
C44   H20   S    
C5    C35   S    
C13   C14   A    
C16   O21   A    
C47   H26   S    
C46   H22   S    
C42   H11   S    
O20   Zn1   S    
C3    C53   S    
Br5   C22   S    
C15   C19   A    
C2    C12   S    
C49   O15   S    
C33   H37   S    
C4    O20   A    
C18   C19   A    
C48   H28   S    
O17   Zn2   S    
C5    C51   A    
C13   C15   A    
C44   O10   S    
C8    C9    A    
C43   H17   S    
O1    Zn1   S    
C1    O19   A    
C9    N1    S    
C34   C37   A    
C46   H21   S    
C34   H3    S    
C36   O5    A    
C45   C53   A    
C27   C30   A    
C43   H16   S    
C14   C17   A    
C49   H31   S    
C16   O12   A    
O1    Zn4   S    
O22   Zn3   S    
C23   C34   A    
O1    Zn3   S    
C20   C21   A    
C42   O8    S    
C40   H5    S    
C41   O7    S    
C27   C29   A    
C47   H25   S    
C3    H39   S    
C21   O13   S    
C2    H4    S    
C41   H10   S    
C24   C25   A    
C23   O14   S    
C4    C6    S    
C6    C11   A    
C30   C33   A    
C44   H18   S    
C48   H29   S    
Br1   C11   S    
C38   O6    S    
C7    C8    A    
Br3   C26   S    
C5    C50   A    
O16   Zn4   S    
C46   H24   S    
C42   H13   S    
C8    H34   S    
Br2   C19   S    
C4    O18   A    
C37   C38   A    
C51   H38   S    
C31   C32   A    
C27   O11   S    
C24   N3    S    
C50   O10   S    
C9    C10   A    
C12   C23   A    
C43   H15   S    
C18   H23   S    
C30   N4    S    
C6    C7    A    
C41   H8    S    
C47   O13   S    
C40   H6    S    
C45   C50   A    
C36   O3    A    
C45   H2    S    
O21   Zn2   S    
C12   C39   A    
C41   H9    S    
C25   H36   S    
C35   O2    A    
C40   H7    S    
C52   C53   A    
O3    Zn4   S    
N3    N4    D    
C44   H19   S    
C48   H30   S    
C29   C31   A    
O2    Zn2   S    
C13   O7    S    
C42   H14   S    
O12   Zn1   S    
O18   Zn3   S    
C40   O6    S    
C49   H33   S    
Br4   C32   S    
C39   O15   S    
N1    N2    D    
O5    Zn1   S    
C28   O22   A    
C17   C18   A    
C14   H12   S    
C1    O17   A    
C48   O14   S    
C20   C28   S    
C35   O4    A    
