data_mof_unit_21607.cif
_audit_creation_date              2012-12-10T17:47:18-0500
_audit_creation_method            fapswitch 2.2
_symmetry_space_group_name_H-M    P1
_symmetry_Int_Tables_number       1
_space_group_crystal_system       triclinic
_cell_length_a                    11.706147
_cell_length_b                    14.70157
_cell_length_c                    14.691147
_cell_angle_alpha                 65.168176
_cell_angle_beta                  103.466794
_cell_angle_gamma                 102.687303
_cell_volume                      2210.11898024

loop_
_atom_site_label
_atom_site_type_symbol
_atom_type_description
_atom_site_fract_x
_atom_site_fract_y
_atom_site_fract_z
_atom_type_partial_charge
C1    C     C_R   0.482061 0.119716 0.311321 0.910146
C2    C     C_R   0.521250 0.880175 0.688361 0.923072
C3    C     C_R   0.477809 0.322703 0.996946 0.028643
C4    C     C_R   0.585559 0.672076 0.998810 0.015353
C5    C     C_R   0.512109 0.464054 0.048540 0.119957
C6    C     C_R   0.497292 0.532554 0.945754 0.116443
C7    C     C_R   0.479738 0.493838 0.869733 -0.122095
C8    C     C_R   0.573240 0.500814 0.123286 -0.103952
C9    C     C_R   0.474806 0.390428 0.895461 -0.158950
C10   C     C_R   0.611273 0.603256 0.098563 -0.137293
C11   C     C_R   0.724695 0.302394 0.637167 -0.284504
C12   C     C_R   0.276262 0.698459 0.361702 -0.282926
C13   C     C_R   0.686404 0.217783 0.612971 0.160381
C14   C     C_R   0.319892 0.787817 0.376750 0.164008
C15   C     C_R   0.500203 0.273768 0.531236 0.013267
C16   C     C_R   0.489340 0.717411 0.487021 0.069515
C17   C     C_R   0.537058 0.365712 0.547071 -0.015821
C18   C     C_R   0.450133 0.624138 0.474500 -0.012056
C19   C     C_R   0.651396 0.377352 0.603148 0.140468
C20   C     C_R   0.340029 0.615948 0.411371 0.128542
C21   C     C_R   0.467888 0.447661 0.505878 0.072729
C22   C     C_R   0.515259 0.539469 0.521937 0.071720
C23   C     C_R   0.284125 0.000242 0.500016 0.875922
C24   C     C_R   0.715881 0.999733 0.500023 0.855598
C25   C     C_R   0.627177 0.544247 0.583038 -0.224356
C26   C     C_R   0.354925 0.442372 0.446362 -0.132235
C27   C     C_R   0.693477 0.464734 0.622663 -0.176529
C28   C     C_R   0.293388 0.525280 0.399140 -0.148780
C29   C     C_1   0.162562 0.000533 0.500164 -0.101143
C30   C     C_1   0.837452 0.999393 0.499961 -0.127131
C31   C     C_1   0.060002 0.000235 0.500145 0.037295
C32   C     C_1   0.940020 0.999662 0.500035 0.025620
C33   C     C_R   0.475289 0.186727 0.201362 -0.291911
C34   C     C_R   0.538583 0.811969 0.797459 -0.301214
C35   C     C_R   0.480403 0.220048 0.024482 -0.222138
C36   C     C_R   0.632518 0.773564 0.973375 -0.209285
C37   C     C_R   0.490128 0.153222 0.126855 0.396290
C38   C     C_R   0.619186 0.841965 0.872319 0.399649
C39   C     C_R   0.458684 0.289019 0.169432 0.230295
C40   C     C_R   0.478485 0.711313 0.827130 0.303678
C41   C     C_R   0.483048 0.358905 0.072641 -0.001915
C42   C     C_R   0.518674 0.638179 0.922852 -0.024822
Cu1   Cu    Cu3+1 0.469550 0.918260 0.475690 1.030825
Cu2   Cu    Cu3+1 0.530450 0.081740 0.524310 1.025136
H1    H     H_    0.469830 0.363630 0.836066 0.158207
H2    H     H_    0.663922 0.628314 0.157128 0.151127
H3    H     H_    0.667892 0.609661 0.599980 0.140832
H4    H     H_    0.311931 0.375316 0.433219 0.179895
H5    H     H_    0.482404 0.193448 0.966447 0.201169
H6    H     H_    0.687856 0.797446 0.031807 0.201492
H7    H     H_    0.482387 0.543684 0.791274 0.190988
H8    H     H_    0.604385 0.449718 0.198731 0.143237
H9    H     H_    0.780333 0.472931 0.666973 0.161662
H10   H     H_    0.208056 0.518261 0.352338 0.161259
H11   H     H_    0.569075 0.729028 0.537006 0.120544
H12   H     H_    0.413816 0.257534 0.491644 0.173956
H13   H     H_    0.268915 0.850476 0.340823 0.147684
H14   H     H_    0.745619 0.162687 0.635808 0.169449
H15   H     H_    0.812834 0.310692 0.679434 0.158009
H16   H     H_    0.192078 0.693300 0.312908 0.155979
N1    N     N_R   0.576230 0.204580 0.560790 -0.196476
N2    N     N_R   0.423770 0.795420 0.439210 -0.183340
O1    O     O_R   0.459870 0.022090 0.338120 -0.522061
O2    O     O_R   0.540130 0.977910 0.661880 -0.509546
O3    O     O_R   0.511290 0.160150 0.379180 -0.587281
O4    O     O_R   0.488710 0.839850 0.620820 -0.546649
O5    O     O_R   0.311490 0.930960 0.479480 -0.582291
O6    O     O_R   0.688510 0.069040 0.520520 -0.589538
O7    O     O_R   0.362910 0.069020 0.520540 -0.576030
O8    O     O_R   0.637090 0.930980 0.479460 -0.586525
S1    S     S_3+6 0.334104 0.685375 0.761181 0.016681
O9    O     O_2   0.262086 0.598041 0.832384 -0.242358
O10   O     O_2   0.271684 0.777108 0.720218 -0.296315
O11   O     O_3   0.343826 0.657047 0.663835 -0.559235
H17   H     H_    0.261933 0.653668 0.626318 0.372329
S2    S     S_3+6 0.369211 0.323178 0.230540 0.023446
O12   O     O_2   0.290186 0.396289 0.150680 -0.204833
O13   O     O_2   0.292258 0.231820 0.292004 -0.297490
O14   O     O_3   0.452922 0.380053 0.306413 -0.549895
H18   H     H_    0.524336 0.345540 0.336329 0.330127
S3    S     S_3+6 0.711418 0.960297 0.844575 0.023019
O15   O     O_2   0.637249 0.042860 0.814675 -0.246790
O16   O     O_2   0.801893 0.960387 0.935981 -0.276057
O17   O     O_3   0.782267 0.980880 0.748903 -0.575854
H19   H     H_    0.858059 0.023740 0.759519 0.364912
S4    S     S_3+6 0.522266 0.030608 0.155426 0.033960
O18   O     O_2   0.412907 0.955207 0.180689 -0.290229
O19   O     O_2   0.559833 0.027266 0.065840 -0.239260
O20   O     O_3   0.632807 0.000118 0.254690 -0.531280
H20   H     H_    0.633365 0.926778 0.275488 0.373872

loop_
_geom_bond_atom_site_label_1
_geom_bond_atom_site_label_2
_ccdc_geom_bond_type
C21   C26   A    
C4    C36   A    
C9    H1    S    
C40   S1    S    
C23   O7    A    
S2    O14   S    
S3    O15   D    
C24   O8    A    
C39   C41   A    
Cu2   O2    S    
C11   C19   A    
C33   C39   A    
C34   C40   A    
C23   C29   S    
C35   C37   A    
S2    O13   D    
C5    C6    A    
S4    O19   D    
C14   N2    A    
C7    C9    A    
C23   O5    A    
C22   C25   A    
C10   H2    S    
C1    O3    A    
C19   C27   A    
C8    H8    S    
C26   H4    S    
C2    C34   S    
C40   C42   A    
C34   C38   A    
C21   C22   A    
Cu2   O3    S    
C16   N2    A    
C11   H15   S    
C1    O1    A    
S3    O16   D    
C2    O2    A    
O11   H17   S    
Cu1   O1    S    
C37   S4    S    
S2    O12   D    
S1    O10   D    
C28   H10   S    
S4    O18   D    
C13   H14   S    
C20   C28   A    
C24   O6    A    
C33   C37   A    
Cu1   Cu2   S    
Cu1   O5    S    
C35   H5    S    
C3    C9    A    
C5    C8    A    
C31   C32   S    
C3    C35   A    
C12   C20   A    
C15   N1    A    
Cu2   O7    S    
C39   S2    S    
O17   H19   S    
C8    C10   A    
C12   C14   A    
Cu1   O8    S    
C38   S3    S    
Cu2   O6    S    
C4    C10   A    
S3    O17   S    
C36   H6    S    
C15   C17   A    
C14   H13   S    
C5    C41   A    
C25   H3    S    
C3    C41   A    
C18   C22   A    
C2    O4    A    
S4    O20   S    
S1    O11   S    
C27   H9    S    
C6    C7    A    
Cu2   N1    S    
C25   C27   A    
C26   C28   A    
C15   H12   S    
C36   C38   A    
C16   H11   S    
C7    H7    S    
S1    O9    D    
C29   C31   T    
C30   C32   T    
C11   C13   A    
C4    C42   A    
Cu1   O4    S    
C17   C19   A    
C18   C20   A    
C24   C30   S    
C1    C33   S    
O14   H18   S    
C12   H16   S    
C13   N1    A    
C16   C18   A    
C6    C42   A    
O20   H20   S    
Cu1   N2    S    
C17   C21   A    
