data_mof_unit_6862.cif
_audit_creation_date              2012-12-10T18:34:36-0500
_audit_creation_method            fapswitch 2.2
_symmetry_space_group_name_H-M    P1
_symmetry_Int_Tables_number       1
_space_group_crystal_system       triclinic
_cell_length_a                    13.037518
_cell_length_b                    15.102435
_cell_length_c                    13.842721
_cell_angle_alpha                 90.265028
_cell_angle_beta                  97.643707
_cell_angle_gamma                 90.215819
_cell_volume                      2701.33372556

loop_
_atom_site_label
_atom_site_type_symbol
_atom_type_description
_atom_site_fract_x
_atom_site_fract_y
_atom_site_fract_z
_atom_type_partial_charge
C1    C     C_R   0.500312 0.329880 0.499768 0.798252
C2    C     C_R   0.500441 0.670115 0.500319 0.801836
C3    C     C_R   0.502262 0.233459 0.499072 -0.048769
C4    C     C_R   0.502462 0.766537 0.501465 -0.047854
C5    C     C_R   0.552360 0.188593 0.430114 -0.227062
C6    C     C_R   0.553172 0.811796 0.582685 -0.220023
C7    C     C_R   0.556953 0.095967 0.429326 0.103408
C8    C     C_R   0.557706 0.904466 0.584585 0.104592
C9    C     C_R   0.508222 0.048551 0.499182 0.080726
C10   C     C_R   0.508297 0.951484 0.502788 0.080725
C11   C     C_R   0.540364 0.571974 0.113380 -0.289372
C12   C     C_R   0.426733 0.450168 0.882393 -0.289895
C13   C     C_R   0.541183 0.569929 0.214906 0.074358
C14   C     C_R   0.429274 0.450120 0.781252 0.083636
C15   C     C_R   0.457860 0.430527 0.203781 0.067512
C16   C     C_R   0.569670 0.550652 0.799485 0.078951
C17   C     C_R   0.457626 0.428963 0.102261 -0.287984
C18   C     C_R   0.571382 0.551102 0.901171 -0.284728
C19   C     C_R   0.498917 0.500530 0.054506 0.138264
C20   C     C_R   0.499038 0.500567 0.945084 0.136610
C21   C     C_R   0.299744 0.499681 0.480087 0.800370
C22   C     C_R   0.700314 0.498868 0.519795 0.798894
C23   C     C_R   0.814586 0.496387 0.533806 -0.105039
C24   C     C_R   0.185570 0.498848 0.465435 -0.103134
C25   C     C_R   0.015721 0.506023 0.368698 -0.203289
C26   C     C_R   0.984551 0.485757 0.629718 -0.203057
C27   C     C_R   0.124019 0.504559 0.371910 0.077400
C28   C     C_R   0.876370 0.487140 0.626788 0.078965
C29   C     C_R   0.137295 0.492140 0.549768 -0.282046
C30   C     C_R   0.862762 0.502573 0.449195 -0.280435
C31   C     C_R   0.030498 0.492663 0.544604 0.133775
C32   C     C_R   0.969593 0.500480 0.453973 0.131863
C33   C     C_R   0.454932 0.094272 0.565342 -0.198648
C34   C     C_R   0.454479 0.905330 0.423570 -0.198474
C35   C     C_R   0.453733 0.186071 0.566685 -0.195889
C36   C     C_R   0.453353 0.813526 0.421935 -0.200827
Cu1   Cu    Cu3+1 0.500000 0.499990 0.596430 0.929516
Cu2   Cu    Cu3+1 0.500000 0.500010 0.403570 0.924589
H1    H     H_    0.816964 0.509313 0.378276 0.163117
H2    H     H_    0.183049 0.486505 0.620855 0.157004
H3    H     H_    0.424482 0.375472 0.238516 0.118529
H4    H     H_    0.624240 0.591196 0.767035 0.103303
H5    H     H_    0.426296 0.371118 0.062346 0.123394
H6    H     H_    0.630104 0.590342 0.944459 0.119941
H7    H     H_    0.965682 0.511399 0.300196 0.126430
H8    H     H_    0.034818 0.479418 0.697953 0.124631
H9    H     H_    0.414010 0.058543 0.616252 0.132342
H10   H     H_    0.413075 0.940723 0.362634 0.131939
H11   H     H_    0.413156 0.220061 0.619258 0.141357
H12   H     H_    0.412353 0.779205 0.359421 0.144605
H13   H     H_    0.589669 0.226205 0.377975 0.143106
H14   H     H_    0.590969 0.774465 0.643960 0.134826
H15   H     H_    0.571117 0.630085 0.081911 0.124150
H16   H     H_    0.367205 0.411687 0.910347 0.122823
H17   H     H_    0.574624 0.624993 0.258491 0.123997
H18   H     H_    0.373699 0.410495 0.734522 0.112690
N1    N     N_R   0.500000 0.500020 0.258690 -0.169272
N2    N     N_R   0.500000 0.499980 0.741310 -0.168247
O1    O     O_R   0.500010 0.371450 0.581430 -0.584924
O2    O     O_R   0.499990 0.628550 0.418570 -0.595129
O3    O     O_R   0.500010 0.371460 0.418560 -0.593725
O4    O     O_R   0.499990 0.628540 0.581440 -0.581251
O5    O     O_R   0.349000 0.499980 0.568210 -0.585912
O6    O     O_R   0.651000 0.500020 0.431790 -0.578176
O7    O     O_R   0.349000 0.499990 0.405340 -0.599446
O8    O     O_R   0.651000 0.500010 0.594660 -0.604038
C37   C     C_3   0.827690 0.479430 0.720961 -0.360775
C38   C     C_3   0.902207 0.465607 0.815660 -0.399163
C39   C     C_3   0.843383 0.458594 0.903619 -0.843308
H19   H     H_    0.801674 0.521232 0.913575 0.248096
H20   H     H_    0.786964 0.402921 0.893806 0.259779
H21   H     H_    0.898819 0.446555 0.970344 0.241205
H22   H     H_    0.946763 0.403560 0.810235 0.222267
H23   H     H_    0.956664 0.522593 0.828236 0.219214
H24   H     H_    0.784560 0.541444 0.730008 0.201954
H25   H     H_    0.773103 0.422322 0.713376 0.218810
C40   C     C_3   0.173312 0.508739 0.277669 -0.358004
C41   C     C_3   0.099165 0.512996 0.181544 -0.399751
C42   C     C_3   0.159024 0.514691 0.093873 -0.841788
H26   H     H_    0.210895 0.573493 0.097708 0.258354
H27   H     H_    0.206127 0.453732 0.091701 0.250805
H28   H     H_    0.103817 0.518102 0.025605 0.240293
H29   H     H_    0.047539 0.453901 0.174536 0.220826
H30   H     H_    0.051508 0.573977 0.180223 0.221414
H31   H     H_    0.223785 0.568482 0.281000 0.215346
H32   H     H_    0.221286 0.448448 0.273738 0.211961
C43   C     C_3   0.612981 0.051178 0.352943 -0.418371
C44   C     C_3   0.714933 0.008690 0.397466 -0.345932
C45   C     C_3   0.773645 0.970689 0.318561 -0.849794
H33   H     H_    0.726170 0.919250 0.275610 0.253082
H34   H     H_    0.793201 0.023968 0.268962 0.251413
H35   H     H_    0.846612 0.939900 0.352983 0.240767
H36   H     H_    0.764494 0.059113 0.440063 0.215719
H37   H     H_    0.699466 0.953970 0.446681 0.227161
H38   H     H_    0.562297 0.001064 0.311713 0.195175
H39   H     H_    0.630805 0.100490 0.298008 0.193719
C46   C     C_3   0.614339 0.949721 0.674701 -0.417686
C47   C     C_3   0.715924 0.993178 0.654977 -0.348747
C48   C     C_3   0.775227 0.031734 0.748259 -0.847262
H40   H     H_    0.727901 0.082698 0.779692 0.256061
H41   H     H_    0.795380 0.978635 0.802671 0.249506
H42   H     H_    0.847885 0.063250 0.731575 0.240009
H43   H     H_    0.765323 0.943228 0.624427 0.214403
H44   H     H_    0.699911 0.047756 0.601935 0.228642
H45   H     H_    0.563824 0.999348 0.703647 0.196728
H46   H     H_    0.632760 0.900542 0.734008 0.192093

loop_
_geom_bond_atom_site_label_1
_geom_bond_atom_site_label_2
_ccdc_geom_bond_type
C14   H18   S    
C43   C44   S    
C4    C36   A    
C16   H4    S    
C19   C20   S    
C24   C27   A    
Cu1   O4    S    
C40   C41   S    
C11   C19   A    
C1    O1    A    
C2    O2    A    
C13   N1    A    
C38   H23   S    
C47   H43   S    
C7    C9    A    
C39   H20   S    
C24   C29   A    
C22   O8    A    
C33   C35   A    
C41   H29   S    
C7    C43   S    
C31   C32   A    
C38   C39   S    
C43   H38   S    
C35   H11   S    
C45   H34   S    
C9    C10   S    
C18   C20   A    
Cu1   N2    S    
C11   H15   S    
Cu2   O3    S    
C46   H45   S    
C25   C32   A    
C40   H31   S    
C26   C31   A    
Cu1   O8    S    
C9    C33   A    
C15   N1    A    
Cu1   O5    S    
C46   C47   S    
Cu2   O6    S    
C14   N2    A    
C44   H37   S    
C37   C38   S    
C23   C30   A    
C28   C37   S    
C15   H3    S    
C4    C6    A    
C5    C7    A    
C41   C42   S    
C6    C8    A    
C27   C40   S    
C38   H22   S    
C1    C3    S    
C39   H21   S    
C2    C4    S    
C8    C46   S    
C17   H5    S    
Cu1   Cu2   S    
C18   H6    S    
Cu2   N1    S    
C48   H40   S    
Cu2   O7    S    
C3    C35   A    
C43   H39   S    
C12   C20   A    
C10   C34   A    
C16   N2    A    
C23   C28   A    
C45   H35   S    
Cu1   O1    S    
Cu2   O2    S    
C46   H46   S    
C16   C18   A    
C48   H41   S    
C12   C14   A    
C40   H32   S    
C33   H9    S    
C34   H10   S    
C25   H7    S    
C36   H12   S    
C42   H27   S    
C15   C17   A    
C44   H36   S    
C21   O7    A    
C3    C5    A    
C1    O3    A    
C42   H28   S    
C25   C27   A    
C26   C28   A    
C29   C31   A    
C30   C32   A    
C11   C13   A    
C47   H44   S    
C29   H2    S    
C17   C19   A    
C30   H1    S    
C34   C36   A    
C39   H19   S    
C21   O5    A    
C26   H8    S    
C22   O6    A    
C42   H26   S    
C41   H30   S    
C48   H42   S    
C37   H24   S    
C44   C45   S    
C8    C10   A    
C47   C48   S    
C21   C24   S    
C22   C23   S    
C5    H13   S    
C37   H25   S    
C6    H14   S    
C45   H33   S    
C12   H16   S    
C2    O4    A    
C13   H17   S    
