data_mof_unit_51289.cif
_audit_creation_date              2013-03-05T16:35:37-0500
_audit_creation_method            fapswitch 2.2
_symmetry_space_group_name_H-M    P1
_symmetry_Int_Tables_number       1
_space_group_crystal_system       triclinic
_cell_length_a                    7.773274
_cell_length_b                    9.091896
_cell_length_c                    17.387441
_cell_angle_alpha                 89.94314
_cell_angle_beta                  84.320479
_cell_angle_gamma                 90.00858
_cell_volume                      1222.80351535

loop_
_atom_site_label
_atom_site_type_symbol
_atom_site_description
_atom_site_fract_x
_atom_site_fract_y
_atom_site_fract_z
_atom_type_partial_charge
O1    O     O_R   0.357240 0.711600 0.500000 -0.577302
O2    O     O_R   0.642760 0.288400 0.500000 -0.577302
O3    O     O_R   0.642760 0.711600 0.500000 -0.578426
O4    O     O_R   0.357240 0.288400 0.500000 -0.578427
C1    C     C_R   0.500009 0.780010 0.499994 0.848310
C2    C     C_R   0.499990 0.219990 0.500005 0.848303
O5    O     O_R   0.340660 0.500000 0.613590 -0.584758
O6    O     O_R   0.659340 0.500000 0.386410 -0.584757
O7    O     O_R   0.626230 0.500000 0.613600 -0.589661
O8    O     O_R   0.373770 0.500000 0.386400 -0.589662
C3    C     C_R   0.474766 0.497024 0.650777 0.818035
C4    C     C_R   0.525234 0.502972 0.349223 0.818033
Cu1   Cu    Cu3+1 0.330920 0.500000 0.500000 0.989337
Cu2   Cu    Cu3+1 0.669080 0.500000 0.500000 0.989338
H1    H     H_    0.270956 0.514861 0.123193 0.177842
H2    H     H_    0.729026 0.485276 0.876812 0.177862
N1    N     N_1   0.923170 0.500000 0.500010 -0.055257
N2    N     N_1   0.076830 0.500000 0.499990 -0.055257
C5    C     C_R   0.457488 0.485721 0.735958 -0.097403
C6    C     C_R   0.542511 0.514280 0.264041 -0.097405
C7    C     C_R   0.610666 0.491582 0.772182 -0.248774
C8    C     C_R   0.389323 0.508489 0.227821 -0.248769
C9    C     C_R   0.607659 0.479561 0.851367 -0.246825
C10   C     C_R   0.392327 0.520526 0.148637 -0.246846
C11   C     C_R   0.451118 0.460101 0.897012 0.045481
C12   C     C_R   0.548872 0.539938 0.102989 0.045488
C13   C     C_R   0.296004 0.445828 0.862427 0.460823
C14   C     C_R   0.704000 0.554133 0.137571 0.460854
C15   C     C_R   0.296417 0.464702 0.781670 0.060380
C16   C     C_R   0.703590 0.535235 0.218325 0.060373
C17   C     C_2   0.448030 0.456761 0.981454 -0.193063
C18   C     C_2   0.551952 0.543298 0.018549 -0.192965
C19   C     C_1   0.500012 0.934632 0.499997 -0.182417
C20   C     C_1   0.499988 0.065368 0.500003 -0.182416
H3    H     H_    0.734890 0.506981 0.739172 0.182641
H4    H     H_    0.265095 0.493135 0.260834 0.182645
H5    H     H_    0.644674 0.614731 0.986174 0.178702
H6    H     H_    0.355308 0.385332 0.013833 0.178721
O9    O     O_3   0.142287 0.426939 0.908904 -0.587867
C21   C     C_3   0.107248 0.274761 0.916536 0.018114
H7    H     H_    0.221714 0.211575 0.932279 0.127925
H8    H     H_    0.066624 0.229743 0.861653 0.155783
C22   C     C_3   0.961080 0.251416 0.980306 -0.731924
H9    H     H_    0.843188 0.310494 0.966291 0.258494
H10   H     H_    0.931135 0.132306 0.986392 0.181499
H11   H     H_    0.999834 0.293291 0.036077 0.266413
O10   O     O_3   0.857718 0.572972 0.091088 -0.587874
C23   C     C_3   0.892851 0.725139 0.083472 0.018030
H12   H     H_    0.933624 0.770082 0.138340 0.155821
H13   H     H_    0.778396 0.788405 0.067788 0.127937
C24   C     C_3   0.038910 0.748459 0.019651 -0.731960
H14   H     H_    0.999986 0.706692 0.963892 0.266340
H15   H     H_    0.068965 0.867554 0.013591 0.181504
H16   H     H_    0.156776 0.689270 0.033592 0.258578
C25   C     C_3   0.873847 0.535783 0.253638 -0.814402
H17   H     H_    0.890814 0.430235 0.284131 0.242401
H18   H     H_    0.986924 0.546635 0.210023 0.240632
H19   H     H_    0.878020 0.629643 0.294200 0.235208
C26   C     C_3   0.126168 0.464052 0.746351 -0.814389
H20   H     H_    0.109114 0.569591 0.715864 0.242401
H21   H     H_    0.122084 0.370197 0.705781 0.235200
H22   H     H_    0.013095 0.453121 0.789959 0.240658

loop_
_geom_bond_atom_site_label_1
_geom_bond_atom_site_label_2
_geom_bond_distance
_ccdc_geom_bond_type
C11   C17   1.466334 S    
O6    Cu2   1.983963 S    
O7    Cu2   1.970327 S    
C14   O10   1.385221 S    
C12   C18   1.466316 S    
C7    H3    1.082394 S    
C13   C15   1.414109 A    
C8    H4    1.082392 S    
C16   C25   1.513075 S    
C12   C14   1.405661 A    
C17   C18   1.338486 D    
C17   H6    1.084895 S    
O6    C4    1.280187 A    
C24   H16   1.109794 S    
C21   C22   1.521693 S    
C4    C6    1.477347 S    
C25   H17   1.110072 S    
C14   C16   1.414111 A    
C19   C20   1.188632 T    
C26   H20   1.110059 S    
C6    C16   1.427777 A    
C18   H5    1.084893 S    
O5    C3    1.280184 A    
C23   H13   1.115634 S    
C22   H10   1.110379 S    
Cu2   N1    1.975127 S    
C3    C5    1.477342 S    
O2    C2    1.272107 A    
O3    Cu2   1.934724 S    
O8    C4    1.286123 A    
Cu1   N2    1.975129 S    
C22   H9    1.109858 S    
O1    C1    1.272107 A    
O7    C3    1.286122 A    
C21   H8    1.112770 S    
H1    C10   1.082183 S    
C5    C7    1.402068 A    
C10   C12   1.396559 A    
N1    N2    1.194408 T    
H2    C9    1.082187 S    
C25   H18   1.106940 S    
C7    C9    1.378925 A    
O2    Cu2   1.934664 S    
C22   H11   1.111113 S    
C8    C10   1.378925 A    
C26   H21   1.110127 S    
C11   C13   1.405672 A    
O9    C21   1.413681 S    
C24   H14   1.111053 S    
C5    C15   1.427772 A    
C2    C20   1.405808 S    
O5    Cu1   1.983963 S    
C9    C11   1.396570 A    
O1    Cu1   1.934663 S    
O4    C2    1.272157 A    
C25   H19   1.110145 S    
C13   O9    1.385224 S    
O4    Cu1   1.934725 S    
C15   C26   1.513079 S    
C23   H12   1.112720 S    
C26   H22   1.106913 S    
C21   H7    1.115661 S    
O3    C1    1.272157 A    
Cu1   Cu2   2.628610 S    
C23   C24   1.521671 S    
O10   C23   1.413690 S    
C6    C8    1.402072 A    
C24   H15   1.110388 S    
O8    Cu1   1.970328 S    
C1    C19   1.405808 S    
