data_mof_unit_6567.cif
_audit_creation_date              2013-03-05T15:46:21-0500
_audit_creation_method            fapswitch 2.2
_symmetry_space_group_name_H-M    P1
_symmetry_Int_Tables_number       1
_space_group_crystal_system       triclinic
_cell_length_a                    11.087614
_cell_length_b                    11.028612
_cell_length_c                    18.659304
_cell_angle_alpha                 90.348484
_cell_angle_beta                  90.313966
_cell_angle_gamma                 59.735331
_cell_volume                      1970.65615639

loop_
_atom_site_label
_atom_site_type_symbol
_atom_site_description
_atom_site_fract_x
_atom_site_fract_y
_atom_site_fract_z
_atom_type_partial_charge
O1    O     O_R   0.748800 0.497470 0.428000 -0.481033
O2    O     O_R   0.476420 0.724060 0.429470 -0.449728
C1    C     C_R   0.362653 0.768106 0.396049 0.572851
O3    O     O_R   0.264580 0.744340 0.416750 -0.490736
O4    O     O_R   0.309380 0.472470 0.418200 -0.529049
C2    C     C_R   0.411966 0.375639 0.381205 0.535840
O5    O     O_R   0.501710 0.260430 0.414300 -0.390426
O6    O     O_R   0.728090 0.305600 0.428960 -0.468012
C3    C     C_R   0.775630 0.379202 0.403666 0.593032
O7    O     O_R   0.738760 0.495930 0.588610 -0.517254
O8    O     O_R   0.467110 0.722640 0.578360 -0.507519
C4    C     C_R   0.344597 0.769863 0.604081 0.570886
O9    O     O_R   0.254530 0.742800 0.577360 -0.460288
O10   O     O_R   0.300070 0.471040 0.567100 -0.437991
C5    C     C_R   0.367482 0.350141 0.594530 0.577838
O11   O     O_R   0.491670 0.258900 0.574910 -0.514712
O12   O     O_R   0.718780 0.304180 0.577850 -0.497673
C6    C     C_R   0.768140 0.373831 0.608897 0.551802
Cr1   Cr    Cr6+3 0.601770 0.606860 0.505860 1.103834
Cr2   Cr    Cr6+3 0.291380 0.601660 0.495070 1.099018
Cr3   Cr    Cr6+3 0.606880 0.291510 0.499120 1.134441
O13   O     O_3   0.500010 0.500010 0.500020 -0.326474
C7    C     C_R   0.855750 0.890421 0.082895 -0.156645
C8    C     C_R   0.793122 0.024251 0.054031 -0.066604
C9    C     C_R   0.677329 0.138495 0.087007 0.221509
C10   C     C_R   0.624915 0.117180 0.154105 0.012964
C11   C     C_R   0.383268 0.340247 0.152470 0.077790
C12   C     C_R   0.473589 0.238176 0.267143 0.239863
C13   C     C_R   0.495548 0.234022 0.192106 -0.002684
C14   C     C_R   0.083637 0.602465 0.338400 -0.035888
C15   C     C_R   0.961538 0.718257 0.362482 -0.030406
C16   C     C_R   0.692589 0.978403 0.180991 -0.099639
C17   C     C_R   0.803621 0.867262 0.145262 -0.142204
C18   C     C_R   0.298091 0.469951 0.184069 -0.063568
C19   C     C_R   0.295118 0.486396 0.259024 -0.034211
C20   C     C_R   0.914919 0.847539 0.330539 0.302762
C21   C     C_R   0.988594 0.858934 0.272892 -0.059800
C22   C     C_R   0.117017 0.744449 0.252745 -0.157241
C23   C     C_R   0.169217 0.614477 0.287254 0.053747
C24   C     C_R   0.388503 0.367741 0.302050 0.013536
H1    H     H_    0.850859 0.762351 0.167007 0.202844
H2    H     H_    0.903517 0.706840 0.405803 0.173339
H3    H     H_    0.943676 0.803899 0.056137 0.131403
H4    H     H_    0.833733 0.038684 0.004199 0.162468
H5    H     H_    0.113376 0.503412 0.361314 0.188308
H6    H     H_    0.660678 0.949773 0.228681 0.230546
H7    H     H_    0.219014 0.551823 0.150714 0.155799
H8    H     H_    0.948329 0.957510 0.244832 0.156479
H9    H     H_    0.174198 0.756614 0.209308 0.121241
C25   C     C_R   0.737917 0.330975 0.283540 -0.111532
H10   H     H_    0.646497 0.329668 0.301198 0.118237
C26   C     C_R   0.767787 0.317881 0.211859 -0.171637
H11   H     H_    0.703763 0.300700 0.176234 0.172825
C27   C     C_R   0.876248 0.333464 0.187433 0.002191
C28   C     C_R   0.963286 0.349480 0.236723 0.231492
C29   C     C_R   0.944500 0.346520 0.309872 0.196371
C30   C     C_R   0.824029 0.348166 0.332309 0.099136
C31   C     C_R   0.463792 0.802253 0.282485 0.187804
C32   C     C_R   0.437145 0.845121 0.211288 -0.089190
H12   H     H_    0.522936 0.806854 0.173711 0.181573
C33   C     C_R   0.300999 0.934645 0.188255 -0.029029
C34   C     C_R   0.192103 0.994772 0.238649 -0.113940
H13   H     H_    0.087524 0.069061 0.221352 0.124680
C35   C     C_R   0.218273 0.955552 0.310952 0.197427
C36   C     C_R   0.349537 0.846132 0.330317 0.026230
C37   C     C_R   0.390088 0.198320 0.693082 -0.168664
H14   H     H_    0.462416 0.106540 0.662391 0.151277
C38   C     C_R   0.383042 0.185699 0.765757 -0.138888
H15   H     H_    0.445345 0.082026 0.788665 0.152087
C39   C     C_R   0.299824 0.304841 0.808214 -0.004062
C40   C     C_R   0.212979 0.434044 0.776458 -0.118613
H16   H     H_    0.142632 0.524133 0.808735 0.149592
C41   C     C_R   0.215249 0.446807 0.702728 0.213053
C42   C     C_R   0.314737 0.330235 0.661669 0.041714
C43   C     C_R   0.902792 0.396473 0.707427 -0.119062
H17   H     H_    0.912381 0.475279 0.677766 0.186439
C44   C     C_R   0.938516 0.378793 0.779013 -0.132511
H18   H     H_    0.973877 0.444688 0.803099 0.141995
C45   C     C_R   0.919578 0.284642 0.820510 0.024214
C46   C     C_R   0.872793 0.200488 0.788300 -0.126217
H19   H     H_    0.858895 0.125856 0.819382 0.141593
C47   C     C_R   0.833939 0.220160 0.716233 -0.131911
H20   H     H_    0.788317 0.162002 0.693209 0.144576
C48   C     C_R   0.842953 0.323221 0.676534 0.027895
C49   C     C_R   0.194142 0.859575 0.709675 -0.095527
H21   H     H_    0.104065 0.876324 0.678759 0.184639
C50   C     C_R   0.184014 0.868034 0.783281 -0.120745
H22   H     H_    0.084359 0.897119 0.807355 0.138271
C51   C     C_R   0.298901 0.846543 0.824711 0.035274
C52   C     C_R   0.425099 0.813371 0.791867 -0.133788
H23   H     H_    0.513962 0.799441 0.823014 0.139019
C53   C     C_R   0.436116 0.802222 0.718179 -0.142600
H24   H     H_    0.536129 0.772007 0.694106 0.148255
C54   C     C_R   0.321399 0.822307 0.676827 0.027565
O14   O     O_R   0.186690 0.923650 0.086970 -0.524316
O15   O     O_R   0.957250 0.194250 0.084630 -0.531018
C55   C     C_R   0.912426 0.315804 0.112347 0.605000
O16   O     O_R   0.934970 0.407490 0.085330 -0.442195
O17   O     O_R   0.203780 0.365190 0.067090 -0.461673
C56   C     C_R   0.333316 0.297760 0.088777 0.638783
O18   O     O_R   0.417600 0.174890 0.067840 -0.504195
O19   O     O_R   0.375320 0.946260 0.070860 -0.485281
C57   C     C_R   0.271098 0.963854 0.111922 0.584786
O20   O     O_R   0.160600 0.919630 0.926660 -0.535000
O21   O     O_R   0.933060 0.190520 0.936020 -0.490799
C58   C     C_R   0.947130 0.280865 0.897067 0.572511
O22   O     O_R   0.908880 0.403460 0.925020 -0.501226
O23   O     O_R   0.179600 0.361450 0.918490 -0.540307
C59   C     C_R   0.293013 0.284403 0.883942 0.565550
O24   O     O_R   0.391510 0.170860 0.907530 -0.497105
O25   O     O_R   0.351130 0.942530 0.922260 -0.509229
C60   C     C_R   0.275178 0.894350 0.898109 0.556942
Cr4   Cr    Cr6+3 0.062440 0.063090 0.008210 1.006211
Cr5   Cr    Cr6+3 0.062880 0.375170 0.998920 1.062881
Cr6   Cr    Cr6+3 0.374700 0.061720 0.992470 1.057467
O26   O     O_3   0.166667 0.166667 0.999870 -0.319186
Cl1   Cl    Cl    0.463145 0.099207 0.307344 -0.477064
Cl2   Cl    Cl    0.769155 0.994842 0.365990 -0.478981
N1    N     N_R   0.071706 0.369378 0.212305 0.071703
O27   O     O_R   0.199983 0.268625 0.218710 -0.359610
O28   O     O_R   0.040966 0.492670 0.189510 -0.366450
N2    N     N_R   0.054198 0.331299 0.357319 -0.186474
O29   O     O_R   0.045916 0.329099 0.426791 -0.000006
O30   O     O_R   0.045915 0.329099 0.426789 -0.000006
N3    N     N_R   0.606706 0.722546 0.305402 0.076530
O31   O     O_R   0.700462 0.636421 0.260503 -0.393546
O32   O     O_R   0.647931 0.768870 0.358918 -0.259672
N4    N     N_R   0.114208 0.025502 0.365349 0.093357
O33   O     O_R   0.983963 0.071866 0.351610 -0.360748
O34   O     O_R   0.149980 0.036842 0.430528 -0.290268
Cl3   Cl    Cl    0.092230 0.610989 0.666392 -0.634737
N5    N     N_R   0.610005 0.268664 0.047064 0.062874
O35   O     O_R   0.565322 0.390230 0.077506 -0.387614
O36   O     O_R   0.605321 0.264256 0.977404 -0.319748

loop_
_geom_bond_atom_site_label_1
_geom_bond_atom_site_label_2
_geom_bond_distance
_ccdc_geom_bond_type
C37   C38   1.370704 A    
C28   C29   1.384902 A    
C41   Cl3   1.764677 S    
C10   C16   1.415914 A    
O11   Cr3   2.061577 S    
C15   H2    1.082451 S    
C11   C13   1.414073 A    
C41   C42   1.422808 A    
C14   H5    1.061110 S    
O25   C60   1.280063 A    
C50   H22   1.082584 S    
N4    O33   1.290666 A    
O17   Cr5   1.969093 S    
C55   O16   1.265476 A    
C22   H9    1.081457 S    
C28   N1    1.404981 S    
C44   H18   1.079412 S    
C29   C30   1.393335 A    
C51   C60   1.441609 S    
O8    Cr1   1.941431 S    
C21   C22   1.396742 A    
O4    C2    1.298449 A    
O21   Cr4   1.953734 S    
C20   C21   1.398165 A    
C33   C57   1.461210 S    
O7    C6    1.274905 A    
C12   Cl1   1.766037 S    
C49   H21   1.083239 S    
C14   C15   1.386545 A    
C43   C48   1.398403 A    
O16   Cr5   2.060723 S    
C58   O22   1.302233 A    
C12   C24   1.411614 A    
Cr6   O26   1.997393 S    
C37   C42   1.392097 A    
C7    H3    1.082622 S    
O23   C59   1.282192 A    
C18   C19   1.407640 A    
O23   Cr5   1.941945 S    
C53   H24   1.083350 S    
C34   C35   1.402755 A    
O19   Cr6   1.942865 S    
C38   H15   1.083404 S    
C52   C53   1.380308 A    
C26   C27   1.377934 A    
O6    C3    1.264187 A    
C7    C17   1.383245 A    
C25   C26   1.368867 A    
C7    C8    1.386797 A    
C27   C55   1.444257 S    
C39   C40   1.389142 A    
C20   Cl2   1.743809 S    
Cr4   O26   1.999829 S    
C44   C45   1.397546 A    
C37   H14   1.084154 S    
C32   H12   1.083338 S    
Cr3   O13   1.986242 S    
C4    C54   1.444819 S    
C1    C36   1.466530 S    
O14   C57   1.303930 A    
C25   H10   1.074547 S    
C49   C50   1.377396 A    
C11   C18   1.385600 A    
C11   C56   1.478627 S    
O1    Cr1   2.060560 S    
C32   C33   1.390672 A    
O19   C57   1.319817 A    
O10   Cr2   1.942454 S    
Cr1   O13   2.002700 S    
O1    C3    1.264557 A    
C8    C9    1.408227 A    
C46   C47   1.394246 A    
O4    Cr2   1.954183 S    
N5    O35   1.299952 A    
C35   N4    1.436247 S    
C9    C10   1.452492 A    
O5    Cr3   2.087627 S    
O12   Cr3   1.967042 S    
C45   C46   1.402410 A    
C45   C58   1.455618 S    
N4    O34   1.301909 A    
C29   N2    1.440675 S    
C19   C23   1.494269 S    
C43   H17   1.082887 S    
O22   Cr5   2.087280 S    
C34   H13   1.077706 S    
C39   C59   1.440618 S    
C49   C54   1.399042 A    
C31   C36   1.422950 A    
C6    C48   1.456976 S    
O17   C56   1.303944 A    
O7    Cr1   2.076553 S    
N1    O27   1.295606 A    
O15   C55   1.278444 A    
C53   C54   1.403412 A    
O12   C6    1.280649 A    
C21   H8    1.081884 S    
C43   C44   1.377919 A    
N1    O28   1.297790 A    
C10   C13   1.535453 S    
C38   C39   1.406672 A    
Cr2   O13   2.000298 S    
C47   C48   1.405770 A    
C50   C51   1.401251 A    
N3    O31   1.299726 A    
C8    H4    1.082268 S    
C2    C24   1.507911 S    
O15   Cr4   1.943852 S    
N2    O30   1.301239 A    
C1    O3    1.301330 A    
C26   H11   1.053847 S    
O20   C60   1.274386 A    
C27   C28   1.403036 A    
C12   C13   1.418971 A    
O9    Cr2   2.069853 S    
O2    Cr1   1.955497 S    
C15   C20   1.385437 A    
C25   C30   1.395169 A    
C16   H6    1.065928 S    
C46   H19   1.082693 S    
O6    Cr3   1.943296 S    
Cr5   O26   1.986260 S    
O8    C4    1.279760 A    
N2    O29   1.301277 A    
C2    O5    1.309311 A    
O21   C58   1.308482 A    
C17   H1    1.081757 S    
C35   C36   1.390758 A    
O2    C1    1.262307 A    
C31   C32   1.392194 A    
C40   H16   1.083960 S    
C59   O24   1.255954 A    
C16   C17   1.393000 A    
C52   H23   1.083693 S    
C22   C23   1.405416 A    
O14   Cr4   2.071798 S    
O18   Cr6   2.081246 S    
C56   O18   1.258293 A    
C14   C23   1.402448 A    
C19   C24   1.437697 A    
C3    C30   1.412470 S    
C33   C34   1.406960 A    
O20   Cr4   2.063101 S    
O3    Cr2   2.062032 S    
C5    C42   1.449299 S    
C4    O9    1.275974 A    
C31   N3    1.435117 S    
N5    O36   1.302149 A    
C47   H20   1.083116 S    
C40   C41   1.385436 A    
N3    O32   1.300487 A    
O10   C5    1.264113 A    
O25   Cr6   1.958074 S    
C18   H7    1.083619 S    
C51   C52   1.399261 A    
C9    N5    1.449265 S    
O24   Cr6   2.061092 S    
C5    O11   1.283343 A    
