data_mof_unit_12909.cif
_audit_creation_date              2012-12-11T14:33:59-0500
_audit_creation_method            fapswitch 2.2
_symmetry_space_group_name_H-M    P1
_symmetry_Int_Tables_number       1
_space_group_crystal_system       triclinic
_cell_length_a                    13.87404
_cell_length_b                    13.975669
_cell_length_c                    27.31266
_cell_angle_alpha                 89.958587
_cell_angle_beta                  89.794377
_cell_angle_gamma                 119.576139
_cell_volume                      4605.79615467

loop_
_atom_site_label
_atom_site_type_symbol
_atom_type_description
_atom_site_fract_x
_atom_site_fract_y
_atom_site_fract_z
_atom_type_partial_charge
C1    C     C_R   0.233752 0.787173 0.568704 0.538268
C2    C     C_R   0.212410 0.446411 0.568728 0.541694
C3    C     C_R   0.552486 0.765133 0.569070 0.538911
C4    C     C_3   0.658902 0.734260 0.790417 -0.212185
C5    C     C_3   0.243646 0.954356 0.782708 -0.212141
C6    C     C_3   0.055795 0.311695 0.786044 -0.211712
C7    C     C_3   0.638357 0.721330 0.734461 -0.213134
C8    C     C_3   0.259601 0.939056 0.727760 -0.212917
C9    C     C_3   0.072948 0.346097 0.731354 -0.213103
C10   C     C_1   0.707458 0.862796 0.860169 -0.076183
C11   C     C_1   0.113979 0.881728 0.852554 -0.075657
C12   C     C_1   0.114805 0.230610 0.852179 -0.076032
C13   C     C_1   0.627968 0.814089 0.659076 -0.076179
C14   C     C_1   0.176343 0.819202 0.656220 -0.076396
C15   C     C_1   0.177923 0.357657 0.656218 -0.076662
C16   C     C_1   0.600420 0.795828 0.616801 -0.018202
C17   C     C_1   0.198530 0.806165 0.615069 -0.018356
C18   C     C_1   0.192370 0.392704 0.615084 -0.018440
C19   C     C_R   0.065113 0.151238 0.096129 0.570930
C20   C     C_R   0.775674 0.883519 0.087305 0.551417
C21   C     C_R   0.116232 0.892592 0.087358 0.563105
C22   C     C_R   0.069606 0.160413 0.943309 0.536190
C23   C     C_R   0.779933 0.887268 0.950745 0.542727
C24   C     C_R   0.090992 0.929983 0.943445 0.532598
C25   C     C_R   0.626709 0.901917 0.360580 0.128783
C26   C     C_R   0.095337 0.735277 0.361814 0.131383
C27   C     C_R   0.255773 0.335865 0.368403 0.129236
C28   C     C_R   0.642694 0.913461 0.309205 -0.007019
C29   C     C_R   0.082145 0.739201 0.310611 0.011205
C30   C     C_R   0.234842 0.291723 0.320402 0.011752
C31   C     C_R   0.671541 0.930394 0.206433 0.028661
C32   C     C_R   0.060025 0.749224 0.208176 0.027474
C33   C     C_R   0.198227 0.220431 0.221609 0.024823
C34   C     C_R   0.233282 0.787703 0.431169 0.543350
C35   C     C_R   0.211136 0.442345 0.432179 0.551000
C36   C     C_R   0.555139 0.767135 0.431260 0.559197
C37   C     C_R   0.662326 0.012264 0.232507 0.117396
C38   C     C_R   0.971234 0.670196 0.236426 0.142279
C39   C     C_R   0.295448 0.239219 0.245939 0.140546
C40   C     C_R   0.650437 0.004641 0.283446 -0.118475
C41   C     C_R   0.981818 0.667402 0.287160 -0.087637
C42   C     C_R   0.311106 0.270680 0.295146 -0.087932
C43   C     C_R   0.700879 0.942863 0.156674 -0.122666
C44   C     C_R   0.047918 0.765670 0.158472 -0.103962
C45   C     C_R   0.179797 0.190202 0.171937 -0.104627
C46   C     C_R   0.712444 0.860668 0.132616 -0.018988
C47   C     C_R   0.136196 0.850530 0.132548 -0.020499
C48   C     C_R   0.083926 0.176452 0.148436 -0.022492
C49   C     C_R   0.630052 0.729192 0.357311 -0.164032
C50   C     C_R   0.284585 0.888481 0.354034 -0.148751
C51   C     C_R   0.080493 0.336651 0.366914 -0.163268
C52   C     C_R   0.640093 0.736707 0.306939 0.001350
C53   C     C_R   0.273655 0.890147 0.303991 -0.000815
C54   C     C_R   0.058192 0.291069 0.320564 0.003852
C55   C     C_R   0.646227 0.828616 0.282575 0.029886
C56   C     C_R   0.172743 0.815317 0.281882 0.020679
C57   C     C_R   0.136940 0.272050 0.296279 0.023711
C58   C     C_R   0.637682 0.649883 0.280461 -0.110230
C59   C     C_R   0.364497 0.963694 0.275662 -0.095471
C60   C     C_R   0.960926 0.271386 0.296962 -0.123198
C61   C     C_R   0.643163 0.654547 0.229797 -0.089869
C62   C     C_R   0.354841 0.965109 0.225283 -0.075471
C63   C     C_R   0.943040 0.236144 0.248790 -0.103476
C64   C     C_R   0.657624 0.748641 0.205400 0.012430
C65   C     C_R   0.253688 0.896105 0.202993 0.014849
C66   C     C_R   0.020514 0.218032 0.223826 0.017621
C67   C     C_3   0.564955 0.853745 0.737798 -0.213332
C68   C     C_3   0.142115 0.734070 0.738796 -0.214978
C69   C     C_3   0.271634 0.389686 0.736471 -0.215294
C70   C     C_R   0.657699 0.835780 0.231466 0.038406
C71   C     C_R   0.162244 0.819218 0.230973 0.032599
C72   C     C_R   0.118059 0.235297 0.247432 0.034144
C73   C     C_R   0.680171 0.759971 0.155744 -0.115802
C74   C     C_R   0.240687 0.909092 0.153683 -0.120496
C75   C     C_R   0.003356 0.186970 0.174988 -0.121588
C76   C     C_R   0.612827 0.804897 0.383832 0.023916
C77   C     C_R   0.199709 0.807728 0.382971 0.007369
C78   C     C_R   0.181867 0.367246 0.389753 0.004314
C79   C     C_3   0.768082 0.923874 0.722658 -0.215958
C80   C     C_3   0.053901 0.846990 0.714391 -0.214016
C81   C     C_3   0.122924 0.199721 0.712679 -0.213810
C82   C     C_3   0.788208 0.936849 0.778709 -0.214684
C83   C     C_3   0.036706 0.862845 0.769268 -0.216256
C84   C     C_3   0.105987 0.165837 0.767358 -0.218651
C85   C     C_1   0.734853 0.873407 0.902506 -0.024501
C86   C     C_1   0.103232 0.902241 0.894317 -0.021143
C87   C     C_1   0.096402 0.199598 0.894026 -0.025315
C88   C     C_3   0.649944 0.828460 0.712011 0.072191
C89   C     C_3   0.157822 0.834255 0.707865 0.072046
C90   C     C_3   0.161783 0.323735 0.707754 0.072304
C91   C     C_3   0.585395 0.866512 0.793900 -0.215070
C92   C     C_3   0.124487 0.750436 0.793716 -0.212376
C93   C     C_3   0.254403 0.355340 0.791249 -0.212368
C94   C     C_3   0.684790 0.850422 0.807271 0.072276
C95   C     C_3   0.129074 0.862478 0.800969 0.071484
C96   C     C_3   0.132662 0.265363 0.800635 0.071014
Cr1   Cr    Cr6+3 0.164410 0.584450 0.499910 0.999077
Cr2   Cr    Cr6+3 0.415550 0.579960 0.499910 1.001094
Cr3   Cr    Cr6+3 0.420040 0.835590 0.499910 1.032956
Cr4   Cr    Cr6+3 0.155170 0.075460 0.019960 1.043163
Cr5   Cr    Cr6+3 0.924540 0.079710 0.019960 1.028617
Cr6   Cr    Cr6+3 0.920290 0.844830 0.019960 1.030432
H1    H     H_    0.602047 0.949583 0.805537 0.113959
H2    H     H_    0.042926 0.682328 0.806327 0.116340
H3    H     H_    0.311440 0.324026 0.801467 0.114089
H4    H     H_    0.479055 0.786257 0.730715 0.108314
H5    H     H_    0.216188 0.723443 0.734872 0.107670
H6    H     H_    0.301490 0.479477 0.733447 0.108028
H7    H     H_    0.509618 0.804879 0.813620 0.112908
H8    H     H_    0.189627 0.746997 0.816074 0.116110
H9    H     H_    0.275646 0.428512 0.814446 0.117188
H10   H     H_    0.729303 0.720584 0.799612 0.111780
H11   H     H_    0.251970 0.036653 0.788601 0.105009
H12   H     H_    0.967600 0.248456 0.792439 0.109815
H13   H     H_    0.723277 0.018925 0.137562 0.166668
H14   H     H_    0.968037 0.720008 0.140931 0.178708
H15   H     H_    0.239782 0.178844 0.151057 0.181578
H16   H     H_    0.646827 0.070798 0.302225 0.139253
H17   H     H_    0.910708 0.607962 0.307781 0.170172
H18   H     H_    0.386107 0.282955 0.312539 0.172149
H19   H     H_    0.685028 0.694646 0.136409 0.154741
H20   H     H_    0.309373 0.972640 0.132921 0.155596
H21   H     H_    0.928122 0.173920 0.157095 0.145391
H22   H     H_    0.639663 0.586132 0.209745 0.185927
H23   H     H_    0.424787 0.023397 0.203778 0.206750
H24   H     H_    0.870805 0.227348 0.230423 0.186052
H25   H     H_    0.630008 0.577698 0.298881 0.126922
H26   H     H_    0.442786 0.020448 0.292491 0.133260
H27   H     H_    0.900557 0.287128 0.315143 0.114874
H28   H     H_    0.571684 0.930728 0.722583 0.112730
H29   H     H_    0.069433 0.657432 0.725209 0.112358
H30   H     H_    0.336956 0.374842 0.720444 0.112969
H31   H     H_    0.625129 0.657840 0.375291 0.122994
H32   H     H_    0.364165 0.945714 0.369756 0.137758
H33   H     H_    0.020353 0.354353 0.383946 0.122630
H34   H     H_    0.830913 0.907441 0.705022 0.108158
H35   H     H_    0.063444 0.919041 0.693009 0.109127
H36   H     H_    0.043772 0.150353 0.692604 0.109517
H37   H     H_    0.778733 0.002060 0.706983 0.110982
H38   H     H_    0.979394 0.772780 0.700242 0.112012
H39   H     H_    0.185452 0.181337 0.696170 0.110730
H40   H     H_    0.808858 0.021403 0.789922 0.109511
H41   H     H_    0.953993 0.796068 0.781506 0.109395
H42   H     H_    0.160735 0.131944 0.777064 0.107894
H43   H     H_    0.860333 0.926319 0.787885 0.100946
H44   H     H_    0.036966 0.941514 0.774062 0.099232
H45   H     H_    0.018906 0.100529 0.773392 0.101389
H46   H     H_    0.553903 0.651168 0.727348 0.111031
H47   H     H_    0.336061 0.932900 0.722803 0.111285
H48   H     H_    0.098998 0.435069 0.728281 0.110558
H49   H     H_    0.698833 0.701385 0.716921 0.112045
H50   H     H_    0.271417 0.012597 0.706908 0.112220
H51   H     H_    0.992933 0.299431 0.711588 0.113330
H52   H     H_    0.584396 0.670293 0.810076 0.115071
H53   H     H_    0.310677 0.952245 0.804148 0.116940
H54   H     H_    0.073652 0.384098 0.809175 0.118812
O1    O     O_R   0.137150 0.468200 0.553200 -0.513224
O2    O     O_R   0.531800 0.668950 0.553200 -0.512219
O3    O     O_R   0.331050 0.862850 0.553200 -0.509572
O4    O     O_R   0.179100 0.982980 0.967000 -0.500607
O5    O     O_R   0.017020 0.196120 0.967000 -0.478226
O6    O     O_R   0.803880 0.820900 0.967000 -0.509899
O7    O     O_R   0.173970 0.688730 0.549930 -0.502822
O8    O     O_R   0.311270 0.485240 0.549930 -0.502475
O9    O     O_R   0.514760 0.826030 0.549930 -0.499202
O10   O     O_R   0.140110 0.470540 0.446010 -0.538963
O11   O     O_R   0.529460 0.669570 0.446010 -0.546461
O12   O     O_R   0.330430 0.859890 0.446010 -0.519017
O13   O     O_R   0.176710 0.690910 0.450560 -0.494574
O14   O     O_R   0.309090 0.485800 0.450560 -0.493641
O15   O     O_R   0.514200 0.823290 0.450560 -0.457240
O16   O     O_3   0.333333 0.666667 0.499990 -0.264248
O17   O     O_R   0.176750 0.985260 0.074180 -0.518985
O18   O     O_R   0.014740 0.191490 0.074180 -0.482176
O19   O     O_R   0.808510 0.823250 0.074180 -0.506629
O20   O     O_R   0.146100 0.172630 0.068980 -0.469789
O21   O     O_R   0.827370 0.973470 0.068980 -0.518964
O22   O     O_R   0.026530 0.853900 0.068980 -0.489853
O23   O     O_3   0.000000 0.000000 0.020040 -0.296318
O24   O     O_R   0.148270 0.170520 0.969620 -0.487811
O25   O     O_R   0.829480 0.977750 0.969620 -0.519945
O26   O     O_R   0.022250 0.851730 0.969620 -0.480480
N1    N     N_2   0.620510 0.984343 0.388876 -0.491982
H55   H     H_    0.571414 0.013709 0.374638 0.236801
C97   C     C_3   0.726042 0.069227 0.407062 -0.298389
H56   H     H_    0.712919 0.126106 0.430923 0.135923
H57   H     H_    0.781230 0.116955 0.376141 0.135186
H58   H     H_    0.766515 0.032104 0.429061 0.157037
N2    N     N_2   0.003595 0.662220 0.391753 -0.524917
H59   H     H_    0.999847 0.690690 0.426142 0.255640
C98   C     C_3   0.970914 0.546391 0.389833 -0.283949
H60   H     H_    0.982981 0.518262 0.426127 0.170954
H61   H     H_    0.019216 0.529546 0.361933 0.159684
H62   H     H_    0.881588 0.497871 0.380695 0.129338
N3    N     N_2   0.346371 0.342297 0.395586 -0.523531
H63   H     H_    0.331598 0.322726 0.432273 0.259152
C99   C     C_3   0.455597 0.432771 0.384164 -0.290278
H64   H     H_    0.492365 0.483321 0.417295 0.175915
H65   H     H_    0.452845 0.485744 0.354416 0.155169
H66   H     H_    0.510324 0.399856 0.372641 0.133862
Br1   Br    Br    0.658474 0.132656 0.200062 -0.551262
Br2   Br    Br    0.835207 0.560565 0.207695 -0.531407
Br3   Br    Br    0.414828 0.233045 0.213116 -0.519371

loop_
_geom_bond_atom_site_label_1
_geom_bond_atom_site_label_2
_ccdc_geom_bond_type
C15   C18   T    
C79   H37   S    
C10   C85   T    
C82   C94   S    
C39   Br3   S    
C2    C18   S    
C33   C45   A    
C40   H16   S    
C14   C17   T    
C82   H40   S    
C27   C78   A    
C92   H8    S    
C82   H43   S    
C6    C9    S    
C53   C59   A    
C54   C60   A    
C25   C28   A    
C79   H34   S    
C67   C88   S    
C33   C39   A    
Cr1   O16   S    
C31   C43   A    
C60   C63   A    
C75   H21   S    
C8    H50   S    
C4    H52   S    
C23   O25   A    
C37   C40   A    
Cr3   O3    S    
C80   C83   S    
C34   C77   S    
C64   C70   A    
C97   H57   S    
C20   O19   A    
Cr3   O15   S    
C28   C40   A    
C11   C86   T    
C45   H15   S    
C80   H35   S    
C30   C57   A    
C35   O10   A    
Cr1   O13   S    
N2    C98   S    
C84   C96   S    
C80   C89   S    
C99   H65   S    
C2    O1    A    
C19   O20   A    
C6    H12   S    
C36   C76   S    
C33   C72   A    
C43   H13   S    
C51   H33   S    
C28   C55   A    
C31   C70   A    
C66   C72   A    
Cr2   O2    S    
Cr1   O7    S    
Cr4   O20   S    
C3    O2    A    
C64   C73   A    
C68   H5    S    
C32   C38   A    
C39   C42   A    
C98   H62   S    
C73   H19   S    
Cr2   O11   S    
C12   C87   T    
C44   C47   A    
C6    H54   S    
C23   O6    A    
C93   H3    S    
C56   C71   A    
C58   C61   A    
C81   H39   S    
C4    H10   S    
C63   C66   A    
C9    H51   S    
C58   H25   S    
C27   C30   A    
Cr6   O23   S    
C48   C75   A    
Cr5   O18   S    
N2    H59   S    
C4    C7    S    
C34   O12   A    
C79   C88   S    
C5    C95   S    
C69   H6    S    
C32   C71   A    
C81   H36   S    
C9    H48   S    
C50   C53   A    
C24   O26   A    
C98   H60   S    
C26   C77   A    
C84   H42   S    
C1    O3    A    
C38   C41   A    
C22   O24   A    
C50   H32   S    
C2    O8    A    
C22   O5    A    
C19   C48   S    
C97   H58   S    
Cr3   O16   S    
C26   N2    S    
C59   H26   S    
C65   C71   A    
C36   O11   A    
C65   C74   A    
C31   C37   A    
C91   H7    S    
Cr6   O26   S    
C9    C90   S    
C99   H66   S    
N1    H55   S    
C98   H61   S    
C14   C89   S    
Cr5   O23   S    
C62   H23   S    
C83   H44   S    
Cr4   O4    S    
C5    H11   S    
C7    C88   S    
Cr6   O6    S    
C49   C52   A    
C83   C95   S    
C67   C91   S    
C68   C89   S    
C32   C44   A    
C49   C76   A    
C22   C87   S    
C41   H17   S    
C1    O7    A    
C34   O13   A    
C52   C58   A    
C93   H9    S    
C7    H49   S    
C81   C90   S    
Cr3   O9    S    
C21   O22   A    
C74   H20   S    
C93   C96   S    
C21   O17   A    
C6    C96   S    
C61   H22   S    
C23   C85   S    
Cr6   O22   S    
C4    C94   S    
C67   H28   S    
C27   N3    S    
C69   C90   S    
Cr4   O24   S    
C50   C77   A    
C81   C84   S    
Cr5   O25   S    
C3    O9    A    
Cr3   O12   S    
C45   C48   A    
C11   C95   S    
C5    C8    S    
C49   H31   S    
C59   C62   A    
C37   Br1   S    
C62   C65   A    
C29   C41   A    
C1    C17   S    
C30   C42   A    
C47   C74   A    
C91   H1    S    
C68   H29   S    
C91   C94   S    
C60   H27   S    
C7    H46   S    
C79   C82   S    
Cr2   O8    S    
C52   C55   A    
C67   H4    S    
C20   O21   A    
C29   C56   A    
C84   H45   S    
C35   C78   S    
C69   C93   S    
C51   C54   A    
C25   C76   A    
Cr5   O5    S    
C8    H47   S    
Cr6   O19   S    
C51   C78   A    
Cr2   O16   S    
C80   H38   S    
C15   C90   S    
C83   H41   S    
C36   O15   A    
C42   H18   S    
C97   H56   S    
C63   H24   S    
C69   H30   S    
C66   C75   A    
C13   C88   S    
C68   C92   S    
C92   C95   S    
C57   C72   A    
C5    H53   S    
C99   H64   S    
C43   C46   A    
C53   C56   A    
C19   O18   A    
C55   C70   A    
Cr5   O21   S    
C92   H2    S    
N3    H63   S    
Cr2   O14   S    
C25   N1    S    
C24   O4    A    
C44   H14   S    
C26   C29   A    
C38   Br2   S    
C13   C16   T    
Cr4   O17   S    
C61   C64   A    
C35   O14   A    
C10   C94   S    
C12   C96   S    
N1    C97   S    
C8    C89   S    
N3    C99   S    
Cr4   O23   S    
C24   C86   S    
C46   C73   A    
C20   C46   S    
C3    C16   S    
Cr1   O10   S    
Cr1   O1    S    
C21   C47   S    
C54   C57   A    
