data_mof_unit_59394.cif
_audit_creation_date              2012-12-10T17:45:34-0500
_audit_creation_method            fapswitch 2.2
_symmetry_space_group_name_H-M    P1
_symmetry_Int_Tables_number       1
_space_group_crystal_system       triclinic
_cell_length_a                    11.528386
_cell_length_b                    10.645946
_cell_length_c                    9.974609
_cell_angle_alpha                 88.339153
_cell_angle_beta                  89.958398
_cell_angle_gamma                 93.350824
_cell_volume                      1221.5795786

loop_
_atom_site_label
_atom_site_type_symbol
_atom_type_description
_atom_site_fract_x
_atom_site_fract_y
_atom_site_fract_z
_atom_type_partial_charge
C1    C     C_R   0.504328 0.261108 0.501767 0.897679
C2    C     C_R   0.516905 0.873261 0.492304 -0.249750
C3    C     C_R   0.334846 0.351937 0.151999 -0.145630
C4    C     C_R   0.282301 0.501290 0.499933 0.912324
C5    C     C_R   0.238888 0.294188 0.094473 -0.290511
C6    C     C_R   0.229724 0.293940 0.957880 -0.296025
C7    C     C_R   0.321337 0.345401 0.874519 0.529425
C8    C     C_R   0.413929 0.425464 0.932208 0.064035
C9    C     C_R   0.416886 0.426670 0.076749 0.118908
C10   C     C_R   0.579040 0.570890 0.068676 -0.131951
C11   C     C_R   0.579262 0.570652 0.926205 -0.111063
C12   C     C_R   0.763545 0.072864 0.731748 -0.149527
C13   C     C_R   0.504563 0.739722 0.497847 0.911759
C14   C     C_R   0.717816 0.500542 0.499960 0.861217
C15   C     C_1   0.161750 0.501458 0.499931 -0.201378
C16   C     C_1   0.059468 0.501179 0.500017 -0.007481
C17   C     C_1   0.940682 0.500792 0.500044 -0.003267
C18   C     C_1   0.838389 0.500604 0.499977 -0.187858
C19   C     C_R   0.680872 0.136184 0.658641 -0.152511
C20   C     C_3   0.238091 0.232333 0.688281 0.099407
C21   C     C_3   0.245524 0.091408 0.722745 -0.397118
C22   C     C_3   0.150596 0.012869 0.651721 -0.924983
C23   C     C_R   0.765622 0.942729 0.726556 -0.157095
C24   C     C_3   0.430947 0.871853 0.187872 0.149506
C25   C     C_3   0.410820 0.988061 0.097924 -0.415882
C26   C     C_3   0.464425 0.976136 0.959085 -0.927273
C27   C     C_R   0.685055 0.875463 0.648196 -0.148486
C28   C     C_R   0.598538 0.937748 0.575545 0.043008
C29   C     C_R   0.596612 0.069164 0.580840 0.090477
C30   C     C_R   0.512183 0.129236 0.504031 -0.184133
C31   C     C_R   0.437429 0.064327 0.417733 -0.311998
C32   C     C_R   0.444239 0.937654 0.404470 0.481403
H1    H     H_    0.373824 0.112815 0.358777 0.158394
H2    H     H_    0.159629 0.026015 0.541218 0.271313
H3    H     H_    0.685925 0.237593 0.662032 0.155236
H4    H     H_    0.827495 0.125200 0.790764 0.134408
H5    H     H_    0.831303 0.893929 0.781338 0.135134
H6    H     H_    0.694139 0.775341 0.642153 0.142276
H7    H     H_    0.395125 0.786955 0.136358 0.177932
H8    H     H_    0.526173 0.860271 0.199024 0.123803
H9    H     H_    0.316069 0.999831 0.087413 0.236248
H10   H     H_    0.451510 0.073675 0.143435 0.231417
H11   H     H_    0.558465 0.959756 0.967596 0.269784
H12   H     H_    0.644223 0.628782 0.871209 0.139775
H13   H     H_    0.455244 0.064691 0.899499 0.278426
H14   H     H_    0.419910 0.897006 0.905547 0.268074
H15   H     H_    0.643826 0.629363 0.119821 0.139035
H16   H     H_    0.341125 0.335243 0.256695 0.209721
H17   H     H_    0.173535 0.243495 0.156517 0.172790
H18   H     H_    0.154135 0.241535 0.921018 0.152119
H19   H     H_    0.247154 0.243281 0.577646 0.142099
H20   H     H_    0.151890 0.268916 0.709762 0.114582
H21   H     H_    0.331446 0.060736 0.690940 0.244475
H22   H     H_    0.237414 0.072382 0.832289 0.224093
H23   H     H_    0.063427 0.040573 0.683130 0.258198
H24   H     H_    0.158279 0.911684 0.678305 0.271399
N1    N     N_R   0.498930 0.498800 0.142780 -0.111423
N2    N     N_R   0.498900 0.498720 0.857170 -0.103014
O1    O     O_R   0.500000 0.316780 0.614690 -0.555837
O2    O     O_3   0.372272 0.876337 0.312838 -0.636403
O3    O     O_R   0.499990 0.316750 0.385360 -0.648458
O4    O     O_R   0.334450 0.500030 0.614670 -0.567467
O5    O     O_R   0.334440 0.500000 0.385330 -0.628212
O6    O     O_R   0.500010 0.683250 0.614640 -0.626118
O7    O     O_R   0.500000 0.683220 0.385310 -0.606680
O8    O     O_R   0.665560 0.500000 0.614670 -0.634955
O9    O     O_R   0.665550 0.499970 0.385330 -0.607618
O10   O     O_3   0.332019 0.305086 0.744795 -0.596406
Zn1   Zn    Zn3+2 0.500010 0.500020 0.653130 0.969511
Zn2   Zn    Zn3+2 0.499990 0.499980 0.346870 0.937125

loop_
_geom_bond_atom_site_label_1
_geom_bond_atom_site_label_2
_ccdc_geom_bond_type
C25   H10   S    
O3    Zn2   S    
C22   H24   S    
C14   O9    A    
C31   H1    S    
N2    Zn1   S    
C6    C7    A    
C3    C9    A    
C23   C27   A    
N1    Zn2   S    
C12   H4    S    
C11   N2    A    
C14   C18   S    
C31   C32   A    
C12   C23   A    
O5    Zn2   S    
C24   O2    S    
O9    Zn2   S    
C24   H7    S    
C4    C15   S    
C17   C18   T    
C14   O8    A    
C22   H23   S    
C11   H12   S    
C20   H20   S    
C19   H3    S    
C21   C22   S    
C6    H18   S    
C21   H21   S    
C4    O5    A    
C5    H17   S    
C30   C31   A    
C13   O6    A    
O1    Zn1   S    
C5    C6    A    
C12   C19   A    
C24   C25   S    
C28   C29   A    
C24   H8    S    
C23   H5    S    
C26   H11   S    
C20   H19   S    
C9    N1    A    
C1    O1    A    
C13   O7    A    
C21   H22   S    
C22   H2    S    
C10   H15   S    
O8    Zn1   S    
C16   C17   S    
C10   C11   A    
C26   H14   S    
C27   H6    S    
C29   C30   A    
C15   C16   T    
C19   C29   A    
C7    O10   S    
C4    O4    A    
C3    H16   S    
C7    C8    A    
C10   N1    A    
C20   C21   S    
C2    C32   A    
C25   H9    S    
C27   C28   A    
C2    C13   S    
C32   O2    S    
C1    C30   S    
C2    C28   A    
C26   H13   S    
C8    N2    A    
C25   C26   S    
O6    Zn1   S    
C20   O10   S    
O7    Zn2   S    
O4    Zn1   S    
C8    C9    A    
C3    C5    A    
C1    O3    A    
