data_mof_unit_41136.cif
_audit_creation_date              2012-12-10T18:52:59-0500
_audit_creation_method            fapswitch 2.2
_symmetry_space_group_name_H-M    P1
_symmetry_Int_Tables_number       1
_space_group_crystal_system       triclinic
_cell_length_a                    9.941516
_cell_length_b                    10.66813
_cell_length_c                    16.855454
_cell_angle_alpha                 92.304672
_cell_angle_beta                  86.419598
_cell_angle_gamma                 90.404724
_cell_volume                      1782.69441082

loop_
_atom_site_label
_atom_site_type_symbol
_atom_type_description
_atom_site_fract_x
_atom_site_fract_y
_atom_site_fract_z
_atom_type_partial_charge
C1    C     C_R   0.500433 0.739699 0.499845 0.845388
C2    C     C_R   0.499568 0.260301 0.500152 0.845381
C3    C     C_R   0.603802 0.938797 0.535123 -0.194596
C4    C     C_R   0.396203 0.061202 0.464868 -0.194598
C5    C     C_R   0.602784 0.067342 0.535865 -0.216563
C6    C     C_R   0.397222 0.932657 0.464125 -0.216569
C7    C     C_R   0.499101 0.127765 0.500580 -0.006212
C8    C     C_R   0.500903 0.872235 0.499413 -0.006216
C9    C     C_R   0.930740 0.421715 0.448565 0.529881
C10   C     C_R   0.069260 0.578288 0.551433 0.529879
C11   C     C_R   0.074873 0.421143 0.448456 0.025097
C12   C     C_R   0.925126 0.578857 0.551543 0.025091
C13   C     C_R   0.482449 0.495909 0.652452 0.866858
C14   C     C_R   0.517553 0.504087 0.347547 0.866842
C15   C     C_R   0.473507 0.474612 0.736961 -0.081043
C16   C     C_R   0.526501 0.525381 0.263036 -0.081054
C17   C     C_R   0.584037 0.423237 0.771464 -0.212189
C18   C     C_R   0.415968 0.576744 0.228528 -0.212195
C19   C     C_R   0.577378 0.403165 0.852011 -0.231877
C20   C     C_R   0.422623 0.596823 0.147982 -0.231879
C21   C     C_R   0.461290 0.436343 0.898711 0.186583
C22   C     C_R   0.538716 0.563659 0.101285 0.186580
C23   C     C_R   0.346423 0.481404 0.864358 0.208263
C24   C     C_R   0.653590 0.518606 0.135640 0.208283
C25   C     C_R   0.353388 0.499527 0.782732 -0.200152
C26   C     C_R   0.646626 0.500477 0.217265 -0.200139
C27   C     C_2   0.472487 0.447093 0.984122 0.141867
C28   C     C_2   0.527520 0.552910 0.015875 0.141870
H1    H     H_    0.676321 0.400210 0.736477 0.169473
H2    H     H_    0.323679 0.599762 0.263510 0.169479
H3    H     H_    0.732901 0.463189 0.244587 0.187752
H4    H     H_    0.267118 0.536825 0.755414 0.187747
H5    H     H_    0.334301 0.630603 0.120997 0.148956
H6    H     H_    0.665694 0.369374 0.878994 0.148960
H7    H     H_    0.683046 0.891808 0.563361 0.142818
H8    H     H_    0.316959 0.108191 0.436629 0.142816
H9    H     H_    0.681635 0.119341 0.564487 0.144666
H10   H     H_    0.318374 0.880657 0.435502 0.144664
N1    N     N_R   0.142790 0.500030 0.500020 -0.154680
N2    N     N_R   0.857210 0.499970 0.499980 -0.154681
O1    O     O_R   0.385380 0.683250 0.500010 -0.607461
O2    O     O_R   0.614620 0.316750 0.499990 -0.607466
O3    O     O_R   0.614710 0.683220 0.500000 -0.627948
O4    O     O_R   0.385290 0.316780 0.500000 -0.627947
O5    O     O_R   0.371780 0.500040 0.615800 -0.562959
O6    O     O_R   0.628220 0.499960 0.384200 -0.562954
O7    O     O_R   0.601110 0.500010 0.615800 -0.640179
O8    O     O_R   0.398890 0.499990 0.384200 -0.640174
Zn1   Zn    Zn3+2 0.346870 0.500020 0.500000 0.969271
Zn2   Zn    Zn3+2 0.653130 0.499980 0.500000 0.969269
C29   C     C_3   0.575857 0.661852 0.966790 -0.940278
H11   H     H_    0.613832 0.739538 0.005329 0.243874
H12   H     H_    0.659438 0.631601 0.923705 0.251596
H13   H     H_    0.491752 0.698491 0.934229 0.249968
C30   C     C_3   0.424155 0.338149 0.033206 -0.940278
H14   H     H_    0.386188 0.260461 0.994667 0.243875
H15   H     H_    0.508261 0.301517 0.065770 0.249969
H16   H     H_    0.340570 0.368397 0.076290 0.251596
C31   C     C_3   0.220085 0.515583 0.914382 -0.936506
H17   H     H_    0.181563 0.432246 0.946200 0.251174
H18   H     H_    0.242136 0.591740 0.958597 0.242727
H19   H     H_    0.139533 0.548542 0.877553 0.241801
C32   C     C_3   0.779931 0.484440 0.085614 -0.936504
H20   H     H_    0.757894 0.408280 0.041399 0.242725
H21   H     H_    0.818442 0.567776 0.053794 0.251171
H22   H     H_    0.860495 0.451494 0.122440 0.241795
O9    O     O_3   0.864143 0.355376 0.390275 -0.586380
C33   C     C_3   0.854790 0.226519 0.406616 -0.251213
H23   H     H_    0.871142 0.204868 0.469510 0.129856
H24   H     H_    0.926032 0.172161 0.365593 0.151098
H25   H     H_    0.753035 0.192168 0.392863 0.194484
O10   O     O_3   0.135858 0.644640 0.609717 -0.586377
C34   C     C_3   0.145211 0.773491 0.593363 -0.251191
H26   H     H_    0.073969 0.827861 0.634379 0.151088
H27   H     H_    0.128861 0.795126 0.530466 0.129850
H28   H     H_    0.246965 0.807848 0.607113 0.194487
C35   C     C_3   0.148623 0.329720 0.391273 -0.776994
H29   H     H_    0.125265 0.232825 0.408986 0.191113
H30   H     H_    0.118547 0.342770 0.329798 0.231971
H31   H     H_    0.257619 0.336706 0.390058 0.280695
C36   C     C_3   0.851376 0.670278 0.608728 -0.776973
H32   H     H_    0.874734 0.767174 0.591016 0.191112
H33   H     H_    0.742380 0.663292 0.609942 0.280693
H34   H     H_    0.881453 0.657226 0.670203 0.231970

loop_
_geom_bond_atom_site_label_1
_geom_bond_atom_site_label_2
_ccdc_geom_bond_type
O4    Zn1   S    
C30   H14   S    
C32   H21   S    
C5    H9    S    
C1    C8    S    
C17   H1    S    
C34   H26   S    
C2    C7    S    
C4    H8    S    
C36   H32   S    
C14   O6    A    
C35   H29   S    
C23   C31   S    
C22   C24   A    
C19   C21   A    
C24   C26   A    
C28   C29   S    
C27   C30   S    
C15   C25   A    
C11   C35   S    
C1    O3    A    
C2    O4    A    
C33   H23   S    
C6    H10   S    
C18   H2    S    
C3    H7    S    
C25   H4    S    
C21   C27   S    
C32   H22   S    
C26   H3    S    
C22   C28   S    
C34   H27   S    
C4    C7    A    
O1    Zn1   S    
C36   H33   S    
O7    Zn2   S    
C35   H30   S    
C21   C23   A    
C16   C26   A    
C31   H18   S    
O9    C33   S    
C4    C6    A    
C3    C8    A    
C5    C7    A    
C6    C8    A    
C9    N2    A    
C29   H11   S    
C10   N1    A    
C29   H12   S    
C12   N2    A    
C9    O9    S    
O5    Zn1   S    
C11   N1    A    
C9    C11   A    
C10   C12   A    
O2    Zn2   S    
C20   H5    S    
C1    O1    A    
O8    Zn1   S    
N1    Zn1   S    
C20   C22   A    
C24   C32   S    
C13   C15   S    
C34   H28   S    
C14   C16   S    
C36   H34   S    
C13   O7    A    
C35   H31   S    
C15   C17   A    
C31   H19   S    
O10   C34   S    
C3    C5    A    
C19   H6    S    
C14   O8    A    
O3    Zn2   S    
O6    Zn2   S    
C29   H13   S    
C30   H15   S    
C13   O5    A    
C2    O2    A    
C33   H25   S    
N2    Zn2   S    
C17   C19   A    
C12   C36   S    
C18   C20   A    
C23   C25   A    
C32   H20   S    
C31   H17   S    
C16   C18   A    
C30   H16   S    
C27   C28   D    
C33   H24   S    
C10   O10   S    
