data_mof_unit_61882.cif
_audit_creation_date              2012-12-10T20:01:44-0500
_audit_creation_method            fapswitch 2.2
_symmetry_space_group_name_H-M    P1
_symmetry_Int_Tables_number       1
_space_group_crystal_system       triclinic
_cell_length_a                    14.156921
_cell_length_b                    15.008373
_cell_length_c                    16.868221
_cell_angle_alpha                 89.387665
_cell_angle_beta                  95.27421
_cell_angle_gamma                 90.061144
_cell_volume                      3568.6525898

loop_
_atom_site_label
_atom_site_type_symbol
_atom_type_description
_atom_site_fract_x
_atom_site_fract_y
_atom_site_fract_z
_atom_type_partial_charge
Br1   Br    Br    0.627043 0.357902 0.274927 -0.530042
Br2   Br    Br    0.373920 0.642980 0.724937 -0.501234
C1    C     C_R   0.499943 0.327769 0.499860 0.879527
C2    C     C_R   0.582463 0.905973 0.525661 -0.171165
C3    C     C_R   0.499473 0.048172 0.498082 0.108981
C4    C     C_R   0.499728 0.951968 0.498234 0.114101
C5    C     C_R   0.108980 0.429494 0.535012 -0.266351
C6    C     C_R   0.888091 0.539703 0.437480 -0.268268
C7    C     C_R   0.208221 0.430937 0.534467 0.048643
C8    C     C_R   0.788945 0.539242 0.438704 0.060618
C9    C     C_R   0.200801 0.569091 0.465708 0.047380
C10   C     C_R   0.802075 0.460804 0.561404 0.023845
C11   C     C_R   0.101471 0.570584 0.465385 -0.267036
C12   C     C_R   0.500014 0.672256 0.499951 0.877615
C13   C     C_R   0.901544 0.460252 0.562789 -0.266228
C14   C     C_R   0.053386 0.500031 0.500222 0.139311
C15   C     C_R   0.946664 0.499984 0.500177 0.134807
C16   C     C_R   0.512968 0.501320 0.653062 0.916386
C17   C     C_R   0.487053 0.498677 0.346933 0.916592
C18   C     C_R   0.522815 0.505904 0.738741 -0.097143
C19   C     C_R   0.477336 0.494254 0.261238 -0.095350
C20   C     C_R   0.463286 0.561236 0.778845 0.232484
C21   C     C_R   0.537305 0.439384 0.221112 0.230340
C22   C     C_R   0.470463 0.559287 0.861225 -0.184275
C23   C     C_R   0.575671 0.186698 0.470508 -0.157053
C24   C     C_R   0.530379 0.441641 0.138744 -0.181814
C25   C     C_R   0.536182 0.502134 0.903784 0.274985
C26   C     C_R   0.464507 0.498664 0.096200 0.274441
C27   C     C_R   0.599442 0.452383 0.863712 -0.176364
C28   C     C_R   0.400894 0.547995 0.136268 -0.177040
C29   C     C_R   0.592768 0.453970 0.781245 -0.269618
C30   C     C_R   0.407301 0.546093 0.218731 -0.266273
C31   C     C_R   0.575249 0.094737 0.469517 -0.174731
C32   C     C_R   0.417111 0.905971 0.471397 -0.166628
C33   C     C_R   0.417035 0.813995 0.472455 -0.173639
C34   C     C_R   0.499750 0.232050 0.499193 -0.030751
C35   C     C_R   0.499932 0.768033 0.499484 -0.016428
C36   C     C_R   0.423549 0.185566 0.527085 -0.194054
C37   C     C_R   0.582733 0.813989 0.525863 -0.179424
C38   C     C_R   0.423697 0.093594 0.526971 -0.165128
H1    H     H_    0.249921 0.376417 0.561522 0.120092
H2    H     H_    0.348917 0.590607 0.103575 0.154808
H3    H     H_    0.639967 0.412403 0.750570 0.162799
H4    H     H_    0.359841 0.587376 0.249405 0.164383
H5    H     H_    0.633469 0.060000 0.446009 0.140978
H6    H     H_    0.353185 0.941169 0.449095 0.134903
H7    H     H_    0.634471 0.222234 0.448017 0.185021
H8    H     H_    0.352824 0.778963 0.451234 0.145287
H9    H     H_    0.364838 0.220190 0.549976 0.147812
H10   H     H_    0.646995 0.778934 0.547548 0.158663
H11   H     H_    0.365443 0.057952 0.550199 0.139232
H12   H     H_    0.745037 0.570200 0.390244 0.137892
H13   H     H_    0.646266 0.941168 0.547629 0.135998
H14   H     H_    0.076257 0.372711 0.561562 0.136021
H15   H     H_    0.918243 0.569973 0.387042 0.139683
H16   H     H_    0.236651 0.623618 0.438620 0.115260
H17   H     H_    0.768432 0.430020 0.609815 0.123440
H18   H     H_    0.063039 0.627402 0.438925 0.134820
H19   H     H_    0.942565 0.429967 0.613279 0.140069
H20   H     H_    0.577171 0.399726 0.108068 0.179872
H21   H     H_    0.423980 0.601520 0.891908 0.179200
H22   H     H_    0.651305 0.409668 0.896417 0.154656
N1    N     N_2   0.538823 0.491461 0.986793 -0.186668
N2    N     N_2   0.461923 0.509476 0.013201 -0.185779
N3    N     N_R   0.252470 0.499980 0.500000 -0.089812
N4    N     N_R   0.747530 0.500020 0.500000 -0.094030
O1    O     O_R   0.579480 0.369070 0.499990 -0.609967
O2    O     O_R   0.420520 0.630930 0.500010 -0.614621
O3    O     O_R   0.420520 0.369060 0.499990 -0.636076
O4    O     O_R   0.579480 0.630940 0.500010 -0.632321
O5    O     O_R   0.588340 0.499180 0.616130 -0.636434
O6    O     O_R   0.411660 0.500820 0.383870 -0.627690
O7    O     O_R   0.429390 0.499170 0.616130 -0.578296
O8    O     O_R   0.570610 0.500830 0.383870 -0.592149
Zn1   Zn    Zn3+2 0.606140 0.500010 0.500000 0.970946
Zn2   Zn    Zn3+2 0.393860 0.499990 0.500000 0.977990

loop_
_geom_bond_atom_site_label_1
_geom_bond_atom_site_label_2
_ccdc_geom_bond_type
O5    Zn1   S    
C22   H21   S    
C2    H13   S    
C25   C27   A    
C31   H5    S    
C22   C25   A    
O6    Zn2   S    
C8    H12   S    
C36   H9    S    
N3    Zn2   S    
C29   H3    S    
C17   C19   S    
C3    C4    S    
O3    Zn2   S    
C13   C15   A    
C32   C33   A    
C21   C24   A    
C14   C15   S    
C3    C31   A    
Br2   C20   S    
C10   C13   A    
C32   H6    S    
C28   C30   A    
C23   H7    S    
C1    O3    A    
C12   O4    A    
C17   O6    A    
C13   H19   S    
C33   H8    S    
C6    H15   S    
C8    N4    A    
C19   C30   A    
O8    Zn1   S    
C2    C4    A    
C11   H18   S    
C10   N4    A    
C4    C32   A    
C2    C37   A    
C30   H4    S    
C25   N1    S    
C10   H17   S    
C26   N2    S    
C6    C8    A    
C5    C14   A    
C18   C20   A    
Br1   C21   S    
C16   O7    A    
C19   C21   A    
O7    Zn2   S    
C20   C22   A    
C3    C38   A    
O1    Zn1   S    
C16   O5    A    
C5    C7    A    
C27   H22   S    
C33   C35   A    
C7    H1    S    
C17   O8    A    
C1    O1    A    
O2    Zn2   S    
C38   H11   S    
C24   C26   A    
C6    C15   A    
C26   C28   A    
C35   C37   A    
C12   C35   S    
C36   C38   A    
C9    C11   A    
C1    C34   S    
N4    Zn1   S    
C34   C36   A    
C16   C18   S    
C7    N3    A    
C23   C34   A    
N1    N2    D    
C37   H10   S    
C27   C29   A    
C11   C14   A    
O4    Zn1   S    
C12   O2    A    
C28   H2    S    
C5    H14   S    
C24   H20   S    
C9    H16   S    
C9    N3    A    
C23   C31   A    
C18   C29   A    
