data_mof_unit_14835.cif
_audit_creation_date              2013-03-05T16:01:11-0500
_audit_creation_method            fapswitch 2.2
_symmetry_space_group_name_H-M    P1
_symmetry_Int_Tables_number       1
_space_group_crystal_system       triclinic
_cell_length_a                    7.209475
_cell_length_b                    37.128378
_cell_length_c                    41.132374
_cell_angle_alpha                 89.999055
_cell_angle_beta                  90.001342
_cell_angle_gamma                 89.814984
_cell_volume                      11010.0965823

loop_
_atom_site_label
_atom_site_type_symbol
_atom_site_description
_atom_site_fract_x
_atom_site_fract_y
_atom_site_fract_z
_atom_type_partial_charge
O1    O     O_R   0.564240 0.782760 0.216890 -0.592940
O2    O     O_R   0.435760 0.217240 0.783110 -0.593543
O3    O     O_R   0.435760 0.217240 0.716890 -0.592943
O4    O     O_R   0.564240 0.782760 0.283110 -0.593545
O5    O     O_R   0.064240 0.717240 0.283110 -0.592601
O6    O     O_R   0.935760 0.282760 0.716890 -0.593966
O7    O     O_R   0.935760 0.282760 0.783110 -0.592623
O8    O     O_R   0.064240 0.717240 0.216890 -0.593989
O9    O     O_R   0.234510 0.787070 0.282870 -0.592018
O10   O     O_R   0.765490 0.212930 0.717130 -0.589845
O11   O     O_R   0.765490 0.212930 0.782870 -0.592028
O12   O     O_R   0.234510 0.787070 0.217130 -0.589855
O13   O     O_R   0.734510 0.712930 0.217130 -0.587938
O14   O     O_R   0.265490 0.287070 0.782870 -0.589214
O15   O     O_R   0.265490 0.287070 0.717130 -0.587881
O16   O     O_R   0.734510 0.712930 0.282870 -0.589158
C1    C     C_R   0.402926 0.795771 0.293664 0.955948
C2    C     C_R   0.596974 0.204168 0.706422 0.956536
C3    C     C_R   0.597076 0.204229 0.793664 0.955953
C4    C     C_R   0.403024 0.795832 0.206423 0.956539
C5    C     C_R   0.903465 0.704143 0.206486 0.955248
C6    C     C_R   0.096537 0.295854 0.793516 0.953881
C7    C     C_R   0.096532 0.295859 0.706488 0.955113
C8    C     C_R   0.903466 0.704143 0.293515 0.953746
O17   O     O_3   0.397750 0.727090 0.250000 -0.280645
O18   O     O_3   0.602250 0.272910 0.750000 -0.280645
O19   O     O_3   0.897750 0.772910 0.250000 -0.281910
O20   O     O_3   0.102250 0.227090 0.750000 -0.281911
V1    V     V_3+5 0.122890 0.754250 0.250000 1.178349
V2    V     V_3+5 0.877110 0.245750 0.750000 1.178347
V3    V     V_3+5 0.622890 0.745750 0.250000 1.181588
V4    V     V_3+5 0.377110 0.254250 0.750000 1.181587
C9    C     C_R   0.969925 0.612575 0.428847 0.552704
C10   C     C_R   0.030010 0.387446 0.571169 0.552717
C11   C     C_R   0.032671 0.387410 0.928905 0.552334
C12   C     C_R   0.967388 0.612569 0.071112 0.552346
C13   C     C_R   0.427288 0.888653 0.070779 0.550709
C14   C     C_R   0.523962 0.112793 0.929648 0.553964
C15   C     C_R   0.572703 0.111347 0.570778 0.550709
C16   C     C_R   0.476048 0.887208 0.429649 0.553966
O21   O     O_2   0.975022 0.648263 0.434963 -0.527042
O22   O     O_2   0.024917 0.351758 0.565053 -0.527014
O23   O     O_2   0.029906 0.351719 0.935063 -0.527049
O24   O     O_2   0.970148 0.648259 0.064953 -0.527019
O25   O     O_2   0.400678 0.853460 0.064139 -0.526352
O26   O     O_2   0.503988 0.148315 0.935682 -0.526352
O27   O     O_2   0.599317 0.146540 0.564137 -0.526357
O28   O     O_2   0.496019 0.851686 0.435684 -0.526359
N1    N     N_R   0.951746 0.600638 0.397516 -0.175111
N2    N     N_R   0.048197 0.399382 0.602501 -0.175109
N3    N     N_R   0.048393 0.399348 0.897532 -0.175023
N4    N     N_R   0.951660 0.600630 0.102485 -0.175021
N5    N     N_R   0.441444 0.899862 0.102439 -0.174005
N6    N     N_R   0.557728 0.101176 0.898552 -0.174114
N7    N     N_R   0.558543 0.100139 0.602439 -0.174003
N8    N     N_R   0.442286 0.898825 0.398552 -0.174113
C17   C     C_R   0.949430 0.564548 0.390641 0.622797
C18   C     C_R   0.050505 0.435473 0.609376 0.622815
C19   C     C_R   0.048277 0.435437 0.890625 0.623220
C20   C     C_R   0.951783 0.564541 0.109393 0.623242
C21   C     C_R   0.465532 0.935598 0.109700 0.625697
C22   C     C_R   0.576726 0.065146 0.891907 0.627594
C23   C     C_R   0.534452 0.064402 0.609700 0.625702
C24   C     C_R   0.423291 0.934855 0.391906 0.627596
C25   C     C_R   0.098328 0.632932 0.351030 0.406676
C26   C     C_R   0.901637 0.367080 0.648983 0.406919
C27   C     C_R   0.901652 0.366991 0.851097 0.407384
C28   C     C_R   0.098383 0.632997 0.148917 0.407629
C29   C     C_R   0.593511 0.866320 0.147870 0.414903
C30   C     C_R   0.740697 0.132404 0.855349 0.414728
C31   C     C_R   0.406481 0.133680 0.647869 0.414903
C32   C     C_R   0.259312 0.867597 0.355348 0.414716
C33   C     C_R   0.081944 0.658038 0.325538 -0.263046
C34   C     C_R   0.918030 0.341967 0.674471 -0.263890
C35   C     C_R   0.917992 0.341905 0.825591 -0.263240
C36   C     C_R   0.082034 0.658090 0.174417 -0.264088
C37   C     C_R   0.579886 0.841259 0.173440 -0.266873
C38   C     C_R   0.746256 0.157205 0.829446 -0.265502
C39   C     C_R   0.420108 0.158742 0.673439 -0.266888
C40   C     C_R   0.253751 0.842796 0.329445 -0.265491
C41   C     C_R   0.762181 0.669803 0.340030 -0.110331
C42   C     C_R   0.237813 0.330219 0.659982 -0.109067
C43   C     C_R   0.237935 0.330212 0.840010 -0.110703
C44   C     C_R   0.762069 0.669766 0.160003 -0.109429
C45   C     C_R   0.257613 0.830571 0.160398 -0.116253
C46   C     C_R   0.422581 0.171834 0.837799 -0.141553
C47   C     C_R   0.742378 0.169429 0.660398 -0.116250
C48   C     C_R   0.577426 0.828167 0.337799 -0.141570
C49   C     C_R   0.776753 0.645087 0.365560 -0.021808
C50   C     C_R   0.223226 0.354939 0.634455 -0.022295
C51   C     C_R   0.223405 0.354919 0.865546 -0.021080
C52   C     C_R   0.776613 0.645054 0.134471 -0.021563
C53   C     C_R   0.269504 0.855342 0.134872 -0.012218
C54   C     C_R   0.415300 0.147266 0.863493 -0.020776
C55   C     C_R   0.730485 0.144658 0.634873 -0.012227
C56   C     C_R   0.584710 0.852735 0.363494 -0.020786
C57   C     C_R   0.943146 0.626461 0.371312 0.041120
C58   C     C_R   0.056817 0.373559 0.628704 0.041155
C59   C     C_R   0.056957 0.373512 0.871335 0.040411
C60   C     C_R   0.943077 0.626468 0.128681 0.040445
C61   C     C_R   0.435612 0.873583 0.128405 0.031183
C62   C     C_R   0.572397 0.127230 0.872498 0.040011
C63   C     C_R   0.564377 0.126417 0.628404 0.031185
C64   C     C_R   0.427614 0.872771 0.372497 0.040022
C65   C     C_R   0.980432 0.550586 0.448216 -0.052060
C66   C     C_R   0.019489 0.449434 0.551801 -0.052058
C67   C     C_R   0.019645 0.449395 0.948236 -0.052059
C68   C     C_R   0.980425 0.550583 0.051782 -0.052055
C69   C     C_R   0.476695 0.950091 0.052065 -0.051458
C70   C     C_R   0.537946 0.050971 0.949242 -0.051888
C71   C     C_R   0.523298 0.049909 0.552065 -0.051455
C72   C     C_R   0.462064 0.949030 0.449242 -0.051884
C73   C     C_R   0.986049 0.587827 0.454667 -0.065360
C74   C     C_R   0.013875 0.412194 0.545350 -0.065413
C75   C     C_R   0.016650 0.412151 0.954731 -0.065273
C76   C     C_R   0.983419 0.587827 0.045286 -0.065326
C77   C     C_R   0.443763 0.913530 0.045067 -0.066184
C78   C     C_R   0.512320 0.087952 0.955466 -0.062844
C79   C     C_R   0.556232 0.086470 0.545067 -0.066193
C80   C     C_R   0.487686 0.912048 0.455467 -0.062855
C81   C     C_R   0.018092 0.599489 0.486438 -0.059975
C82   C     C_R   0.981824 0.400532 0.513579 -0.059847
C83   C     C_R   0.987249 0.400455 0.986571 -0.059951
C84   C     C_R   0.012825 0.599523 0.013446 -0.059824
C85   C     C_R   0.427547 0.902662 0.012610 -0.049815
C86   C     C_R   0.473825 0.099260 0.987227 -0.052593
C87   C     C_R   0.572455 0.097339 0.512609 -0.049802
C88   C     C_R   0.526175 0.900741 0.487228 -0.052578
C89   C     C_R   0.966940 0.538944 0.415791 -0.137038
C90   C     C_R   0.032986 0.461077 0.584226 -0.137044
C91   C     C_R   0.030577 0.461029 0.915778 -0.136895
C92   C     C_R   0.969490 0.538949 0.084239 -0.136902
C93   C     C_R   0.485781 0.961255 0.084675 -0.132445
C94   C     C_R   0.569444 0.039477 0.917152 -0.131688
C95   C     C_R   0.514206 0.038745 0.584674 -0.132448
C96   C     C_R   0.430571 0.960524 0.417151 -0.131690
C97   C     C_R   0.915069 0.676794 0.319864 -0.181838
C98   C     C_R   0.084918 0.323215 0.680143 -0.182697
C99   C     C_R   0.084949 0.323194 0.819872 -0.181900
C100  C     C_R   0.915063 0.676796 0.180135 -0.182761
C101  C     C_R   0.412906 0.823080 0.179923 -0.184307
C102  C     C_R   0.588264 0.177252 0.820465 -0.174779
C103  C     C_R   0.587088 0.176920 0.679923 -0.184311
C104  C     C_R   0.411742 0.822749 0.320465 -0.174774
H1    H     H_    0.631923 0.683860 0.336434 0.146295
H2    H     H_    0.368087 0.316168 0.663579 0.146489
H3    H     H_    0.368250 0.316184 0.836385 0.146454
H4    H     H_    0.631738 0.683787 0.163629 0.146648
H5    H     H_    0.127179 0.816926 0.164532 0.148939
H6    H     H_    0.298220 0.186840 0.831761 0.147339
H7    H     H_    0.872813 0.183074 0.664532 0.148936
H8    H     H_    0.701787 0.813160 0.331763 0.147333
H9    H     H_    0.657859 0.640325 0.381017 0.178318
H10   H     H_    0.342121 0.359707 0.619000 0.178355
H11   H     H_    0.342375 0.359700 0.880979 0.179158
H12   H     H_    0.657642 0.640266 0.119040 0.179195
H13   H     H_    0.148635 0.860467 0.119987 0.190558
H14   H     H_    0.286241 0.143700 0.876518 0.184839
H15   H     H_    0.851353 0.139534 0.619988 0.190561
H16   H     H_    0.713770 0.856301 0.376519 0.184836
H17   H     H_    0.035792 0.627824 0.491860 0.189684
H18   H     H_    0.964124 0.372197 0.508157 0.189764
H19   H     H_    0.971622 0.372087 0.992054 0.189689
H20   H     H_    0.028452 0.627891 0.007963 0.189770
H21   H     H_    0.394257 0.875055 0.006482 0.189841
H22   H     H_    0.445491 0.127315 0.992551 0.189084
H23   H     H_    0.605746 0.124946 0.506482 0.189850
H24   H     H_    0.554507 0.872685 0.492553 0.189092
C105  C     C_R   0.000292 0.512395 0.533053 -0.106794
C106  C     C_R   0.999623 0.487625 0.466965 -0.106783
C107  C     C_R   0.002456 0.487647 0.033063 -0.106355
C108  C     C_R   0.997618 0.512331 0.966955 -0.106343
C109  C     C_R   0.544926 0.988161 0.968282 -0.106201
C110  C     C_R   0.521701 0.012538 0.033720 -0.106911
C111  C     C_R   0.455084 0.011839 0.468280 -0.106198
C112  C     C_R   0.478295 0.987463 0.533719 -0.106907
C113  C     C_R   0.995555 0.462487 0.493278 0.080602
C114  C     C_R   0.004359 0.537534 0.506739 0.080640
C115  C     C_R   0.001679 0.537513 0.993233 0.080782
C116  C     C_R   0.998397 0.462465 0.006785 0.080819
C117  C     C_R   0.510720 0.037760 0.007614 0.083490
C118  C     C_R   0.502939 0.963338 0.993695 0.082064
C119  C     C_R   0.489280 0.962240 0.507614 0.083482
C120  C     C_R   0.497066 0.036662 0.493694 0.082055
C121  C     C_R   0.007446 0.474925 0.525930 0.079944
C122  C     C_R   0.992470 0.525096 0.474087 0.079941
C123  C     C_R   0.992521 0.525089 0.025916 0.080001
C124  C     C_R   0.007553 0.474888 0.974101 0.079998
C125  C     C_R   0.531420 0.025548 0.975094 0.079662
C126  C     C_R   0.500552 0.975408 0.026452 0.079597
C127  C     C_R   0.468587 0.974452 0.475094 0.079663
C128  C     C_R   0.499446 0.024593 0.526451 0.079600
C129  C     C_R   0.982741 0.522890 0.566407 0.284521
C130  C     C_R   0.017176 0.477131 0.433611 0.284492
C131  C     C_R   0.022661 0.477238 0.066393 0.284675
C132  C     C_R   0.977411 0.522740 0.933625 0.284645
C133  C     C_R   0.597120 0.977405 0.936234 0.284304
C134  C     C_R   0.550153 0.022686 0.066818 0.285295
C135  C     C_R   0.402896 0.022596 0.436232 0.284299
C136  C     C_R   0.449838 0.977314 0.566818 0.285289
C137  C     C_R   0.014041 0.497707 0.591146 -0.110473
C138  C     C_R   0.985881 0.502314 0.408871 -0.110458
C139  C     C_R   0.991155 0.502374 0.091162 -0.110301
C140  C     C_R   0.008914 0.497604 0.908856 -0.110285
C141  C     C_R   0.601057 0.002885 0.911085 -0.120557
C142  C     C_R   0.524366 0.997343 0.091667 -0.117716
C143  C     C_R   0.398963 0.997116 0.411083 -0.120550
C144  C     C_R   0.475621 0.002657 0.591666 -0.117714
O29   O     O_2   0.067458 0.446550 0.640474 -0.484899
O30   O     O_2   0.932480 0.553470 0.359543 -0.484909
O31   O     O_2   0.937070 0.553457 0.140525 -0.485217
O32   O     O_2   0.062988 0.446522 0.859492 -0.485227
O33   O     O_2   0.603009 0.054159 0.860975 -0.489443
O34   O     O_2   0.471760 0.946241 0.141046 -0.489537
O35   O     O_2   0.397011 0.945843 0.360973 -0.489440
O36   O     O_2   0.528219 0.053758 0.641046 -0.489536
C145  C     C_R   0.033772 0.574780 0.511705 -0.095535
C146  C     C_R   0.966140 0.425242 0.488312 -0.095510
C147  C     C_R   0.971614 0.425159 0.011843 -0.094896
C148  C     C_R   0.028463 0.574819 0.988175 -0.094871
C149  C     C_R   0.453735 0.927214 0.987421 -0.087356
C150  C     C_R   0.470100 0.074564 0.012716 -0.093013
C151  C     C_R   0.546270 0.072787 0.487420 -0.087353
C152  C     C_R   0.529897 0.925436 0.512718 -0.093000
H25   H     H_    0.798911 0.336852 0.689813 0.185621
H26   H     H_    0.201060 0.663146 0.310192 0.185522
H27   H     H_    0.201272 0.663232 0.189725 0.185527
H28   H     H_    0.798759 0.336770 0.810280 0.185427
H29   H     H_    0.875656 0.161128 0.816570 0.181414
H30   H     H_    0.701326 0.835706 0.188133 0.183773
H31   H     H_    0.124349 0.838872 0.316569 0.181413
H32   H     H_    0.298670 0.164294 0.688130 0.183772
H33   H     H_    0.006343 0.506559 0.616212 0.220366
H34   H     H_    0.993582 0.493461 0.383805 0.220366
H35   H     H_    0.000881 0.493574 0.116222 0.220326
H36   H     H_    0.999186 0.506405 0.883796 0.220327
H37   H     H_    0.638769 0.994111 0.886844 0.220294
H38   H     H_    0.544837 0.005672 0.116650 0.220563
H39   H     H_    0.361254 0.005891 0.386842 0.220295
H40   H     H_    0.455145 0.994328 0.616649 0.220563
H41   H     H_    0.075459 0.585533 0.534900 0.176063
H42   H     H_    0.924448 0.414488 0.465117 0.176096
H43   H     H_    0.932045 0.414339 0.035127 0.176025
H44   H     H_    0.068035 0.585639 0.964891 0.176058
H45   H     H_    0.429519 0.917615 0.963018 0.173916
H46   H     H_    0.429291 0.084666 0.036272 0.173574
H47   H     H_    0.570492 0.082386 0.463017 0.173924
H48   H     H_    0.570700 0.915333 0.536273 0.173582
N9    N     N_R   0.727426 0.385427 0.644034 0.234244
O37   O     O_R   0.677908 0.396466 0.615286 -0.423667
O38   O     O_R   0.611073 0.389090 0.668010 -0.363314
N10   N     N_R   0.272531 0.614583 0.355983 0.234271
O39   O     O_R   0.388897 0.610917 0.332009 -0.363270
O40   O     O_R   0.322040 0.603549 0.384733 -0.423627
N11   N     N_R   0.272724 0.614733 0.143888 0.234154
O41   O     O_R   0.322388 0.603916 0.115079 -0.424243
O42   O     O_R   0.389068 0.610958 0.167852 -0.363640
N12   N     N_R   0.727318 0.385257 0.856128 0.234180
O43   O     O_R   0.610971 0.389038 0.832166 -0.363584
O44   O     O_R   0.677656 0.396067 0.884940 -0.424204
N13   N     N_R   0.906699 0.113112 0.864086 0.232794
O45   O     O_R   0.029803 0.105316 0.842021 -0.368895
O46   O     O_R   0.942358 0.105478 0.894330 -0.419087
N14   N     N_R   0.768182 0.883747 0.141838 0.232660
O47   O     O_R   0.884904 0.888782 0.165530 -0.370403
O48   O     O_R   0.817428 0.892461 0.112444 -0.427456
N15   N     N_R   0.093311 0.886888 0.364084 0.232793
O49   O     O_R   0.970203 0.894684 0.342018 -0.368889
O50   O     O_R   0.057657 0.894523 0.394327 -0.419088
N16   N     N_R   0.231809 0.116253 0.641837 0.232661
O51   O     O_R   0.115091 0.111218 0.665528 -0.370405
O52   O     O_R   0.182559 0.107540 0.612443 -0.427455
N17   N     N_R   0.904122 0.556901 0.575890 0.232203
O53   O     O_R   0.751949 0.568232 0.562204 -0.353516
O54   O     O_R   0.965224 0.573462 0.601621 -0.319855
N18   N     N_R   0.095792 0.443119 0.424128 0.232214
O55   O     O_R   0.034689 0.426559 0.398397 -0.319774
O56   O     O_R   0.247965 0.431788 0.437813 -0.353446
N19   N     N_R   0.104113 0.443437 0.075764 0.232105
O57   O     O_R   0.256106 0.432458 0.061789 -0.354346
O58   O     O_R   0.045813 0.426772 0.101640 -0.320036
N20   N     N_R   0.895959 0.556542 0.924255 0.232118
O59   O     O_R   0.954259 0.573206 0.898379 -0.319955
O60   O     O_R   0.743968 0.567520 0.938230 -0.354278
N21   N     N_R   0.671575 0.942227 0.929526 0.233375
O61   O     O_R   0.640498 0.926871 0.901618 -0.322523
O62   O     O_R   0.793960 0.928103 0.949035 -0.359926
N22   N     N_R   0.630383 0.056725 0.075551 0.234129
O63   O     O_R   0.581466 0.072678 0.102403 -0.320534
O64   O     O_R   0.772720 0.068885 0.059526 -0.355202
N23   N     N_R   0.328445 0.057774 0.429522 0.233379
O65   O     O_R   0.359530 0.073131 0.401614 -0.322493
O66   O     O_R   0.206054 0.071898 0.449028 -0.359907
N24   N     N_R   0.369607 0.943275 0.575550 0.234132
O67   O     O_R   0.418520 0.927322 0.602403 -0.320508
O68   O     O_R   0.227272 0.931115 0.559523 -0.355191

loop_
_geom_bond_atom_site_label_1
_geom_bond_atom_site_label_2
_geom_bond_distance
_ccdc_geom_bond_type
O17   V3    1.766873 S    
C30   N13   1.438386 S    
N11   O42   1.301530 A    
C16   C80   1.409245 A    
O18   V4    1.766874 S    
C26   C58   1.416716 A    
C136  N24   1.437197 S    
C115  C148  1.414525 A    
C134  C142  1.402052 A    
C16   N8    1.371355 A    
O16   C8    1.333889 A    
C68   C123  1.426514 A    
C29   C37   1.407922 A    
N23   O65   1.301458 A    
C10   O22   1.349325 S    
C86   H22   1.083207 S    
C113  C146  1.414533 A    
C84   H20   1.083351 S    
C144  H40   1.083376 S    
C31   C39   1.407936 A    
C129  C137  1.399711 A    
O15   V4    1.988460 S    
C38   H29   1.083009 S    
C41   C97   1.404375 A    
C87   C151  1.393269 A    
C34   C98   1.407612 A    
C44   C52   1.398261 A    
O11   C3    1.333524 A    
N9    O37   1.301054 A    
C135  N23   1.437251 S    
O12   C4    1.333544 A    
C66   C74   1.408620 A    
C1    C104  1.490954 S    
C55   H15   1.081343 S    
O8    V1    1.981295 S    
C141  H37   1.083367 S    
O2    V4    1.979366 S    
C17   C89   1.410304 A    
C35   H28   1.083026 S    
N23   O66   1.301698 A    
C18   C90   1.410309 A    
C67   C91   1.405485 A    
C34   H25   1.083019 S    
C132  N20   1.436521 S    
C22   C94   1.410533 A    
C46   H6    1.082926 S    
C111  C127  1.419162 A    
C33   H26   1.083021 S    
O12   V1    1.991668 S    
C112  C128  1.419311 A    
C131  C139  1.399717 A    
C83   H19   1.083351 S    
C25   C33   1.407690 A    
C129  N17   1.436489 S    
O7    C6    1.329195 A    
C130  C138  1.399706 A    
N7    C63   1.447311 S    
C86   C150  1.393147 A    
O1    V3    1.979369 S    
C113  C121  1.422895 A    
C84   C148  1.390640 A    
O3    C2    1.329726 A    
C71   C79   1.408550 A    
N10   O39   1.301537 A    
C109  C125  1.419160 A    
C16   O28   1.349273 S    
C137  H33   1.083529 S    
C140  H36   1.083527 S    
C83   C147  1.390641 A    
C7    C98   1.487348 S    
N17   O54   1.301529 A    
C17   O30   1.349331 S    
C117  C125  1.420068 A    
C116  C147  1.414523 A    
C152  H48   1.079482 S    
C15   N7    1.371043 A    
C27   N12   1.441157 S    
O11   V2    1.991665 S    
N5    C61   1.447289 S    
N14   O47   1.301419 A    
C40   C104  1.407973 A    
N7    C23   1.371637 A    
C65   C73   1.408623 A    
C24   O35   1.349290 S    
N19   O57   1.301717 A    
C120  C128  1.419998 A    
C11   C75   1.408887 A    
C30   C62   1.417116 A    
C23   O36   1.349315 S    
C50   H10   1.082224 S    
C11   O23   1.349330 S    
C134  N22   1.437198 S    
C45   H5    1.083029 S    
C12   N4    1.369291 A    
C12   O24   1.349331 S    
C143  H39   1.083368 S    
N24   O67   1.301460 A    
C41   H1    1.083051 S    
C13   N5    1.371036 A    
C44   H4    1.083047 S    
O2    C3    1.330697 A    
C26   N9    1.441312 S    
C81   H17   1.083355 S    
C71   C128  1.422723 A    
C136  C144  1.402058 A    
O7    V2    1.981292 S    
C47   H7    1.083028 S    
C36   H27   1.083029 S    
N3    C59   1.443863 S    
C48   H8    1.082924 S    
C20   C92   1.410272 A    
C67   C124  1.426516 A    
N5    C21   1.371631 A    
C112  C136  1.427585 A    
C110  C117  1.426823 A    
C43   C99   1.404384 A    
C42   H2    1.083045 S    
C55   C63   1.403144 A    
C23   C95   1.410410 A    
N17   O53   1.301717 A    
C29   N14   1.439195 S    
O5    V1    1.981274 S    
C36   C100  1.407621 A    
C46   C54   1.397157 A    
C10   C74   1.408883 A    
C39   C103  1.407522 A    
N9    O38   1.301537 A    
C110  C134  1.427584 A    
N19   O58   1.301520 A    
C72   C96   1.405457 A    
C106  C113  1.429550 A    
C131  N19   1.436519 S    
N2    C18   1.369640 A    
C12   C76   1.408885 A    
C37   H30   1.083084 S    
C115  C123  1.422869 A    
C75   C83   1.396182 A    
C9    O21   1.349324 S    
N8    C64   1.447788 S    
C107  C131  1.431664 A    
C133  C141  1.402145 A    
C21   C93   1.410394 A    
N2    C58   1.443728 S    
C53   C61   1.403139 A    
N13   O46   1.301321 A    
C52   C60   1.402820 A    
C119  C152  1.412236 A    
C94   C141  1.399289 A    
C105  C129  1.431691 A    
C32   C64   1.417121 A    
C151  H47   1.079540 S    
C93   C142  1.399209 A    
C68   C92   1.405483 A    
C114  C145  1.414538 A    
C109  C133  1.427491 A    
C6    C99   1.487322 S    
N4    C60   1.443858 S    
C32   N15   1.438385 S    
N1    C17   1.369641 A    
C32   C40   1.408895 A    
C49   C57   1.402815 A    
C48   C56   1.397172 A    
O16   V3    1.988457 S    
C74   C82   1.396158 A    
C65   C122  1.426554 A    
C69   C77   1.408550 A    
C85   H21   1.083206 S    
C28   C60   1.416656 A    
C139  H35   1.083524 S    
N21   O61   1.301459 A    
C91   C140  1.395762 A    
C138  H34   1.083527 S    
C26   C34   1.407696 A    
C148  H44   1.077384 S    
C132  C140  1.399713 A    
O10   V2    1.991670 S    
N10   O40   1.301056 A    
C49   H9    1.082226 S    
C45   C53   1.398588 A    
C14   N6    1.371350 A    
C48   C104  1.406131 A    
C69   C126  1.422710 A    
C19   C91   1.410269 A    
C27   C59   1.416657 A    
C106  C122  1.422517 A    
C135  C143  1.402152 A    
O8    C5    1.329188 A    
N20   O59   1.301520 A    
C120  C151  1.412271 A    
O13   C5    1.333905 A    
C142  H38   1.083375 S    
C87   H23   1.083204 S    
C53   H13   1.081342 S    
C70   C78   1.408298 A    
C111  C135  1.427491 A    
C90   C137  1.395739 A    
C88   C152  1.393152 A    
C110  C126  1.419308 A    
C43   H3    1.083050 S    
O4    C1    1.330706 A    
C15   O27   1.349207 S    
C108  C115  1.429512 A    
N14   O48   1.301263 A    
O6    V2    1.981277 S    
N18   O56   1.301716 A    
C109  C118  1.426726 A    
C3    C102  1.490923 S    
C29   C61   1.416898 A    
C56   C64   1.402818 A    
C11   N3    1.369291 A    
O14   C6    1.333891 A    
C8    C97   1.487331 S    
C22   O33   1.349296 S    
N16   O52   1.301264 A    
C107  C116  1.429520 A    
C108  C132  1.431663 A    
N3    C19   1.369721 A    
C51   H11   1.082172 S    
C89   C138  1.395742 A    
C40   H31   1.083009 S    
C45   C101  1.404910 A    
N11   O41   1.301070 A    
C52   H12   1.082172 S    
C116  C124  1.422870 A    
N12   O44   1.301073 A    
C19   O32   1.349335 S    
C46   C102  1.406129 A    
C72   C80   1.408299 A    
C30   C38   1.408879 A    
O9    C1    1.333525 A    
C66   C90   1.405510 A    
C31   C63   1.416903 A    
C47   C55   1.398598 A    
C2    C103  1.489023 S    
O1    C4    1.329715 A    
C82   C146  1.390639 A    
C56   H16   1.082171 S    
C117  C150  1.412236 A    
C112  C119  1.426838 A    
C81   C145  1.390638 A    
C4    C101  1.488995 S    
O13   V3    1.988513 S    
C150  H46   1.079485 S    
C66   C121  1.426552 A    
O14   V4    1.988510 S    
C9    N1    1.369253 A    
C118  C149  1.412269 A    
C38   C102  1.407969 A    
C119  C127  1.420070 A    
C54   H14   1.082169 S    
C10   N2    1.369252 A    
C133  N21   1.437253 S    
N15   O49   1.301382 A    
C80   C88   1.399712 A    
C95   C144  1.399207 A    
C65   C89   1.405509 A    
C85   C149  1.393263 A    
C18   O29   1.349330 S    
C28   C36   1.407623 A    
C96   C143  1.399292 A    
C43   C51   1.398266 A    
C70   C125  1.422734 A    
C9    C73   1.408884 A    
C42   C50   1.398277 A    
C107  C123  1.422497 A    
C82   H18   1.083355 S    
N6    C62   1.447773 S    
N22   O63   1.301462 A    
C68   C76   1.408607 A    
N20   O60   1.301715 A    
C106  C130  1.431695 A    
N12   O43   1.301527 A    
C105  C121  1.422514 A    
O20   V2    1.762759 S    
N21   O62   1.301700 A    
C35   C99   1.407615 A    
C41   C49   1.398276 A    
C72   C127  1.422750 A    
N24   O68   1.301690 A    
O9    V1    1.991667 S    
N15   O50   1.301319 A    
C28   N11   1.441153 S    
C71   C95   1.405467 A    
N8    C24   1.371823 A    
N13   O45   1.301379 A    
O5    C8    1.329198 A    
C33   C97   1.407608 A    
C73   C81   1.396162 A    
O10   C2    1.333547 A    
C31   N16   1.439194 S    
C15   C79   1.409415 A    
O6    C7    1.329192 A    
C149  H45   1.079541 S    
O15   C7    1.333903 A    
C92   C139  1.395766 A    
C13   C77   1.409401 A    
C147  H43   1.077385 S    
C42   C98   1.404375 A    
C67   C75   1.408605 A    
C146  H42   1.077377 S    
C69   C93   1.405468 A    
O3    V4    1.979413 S    
C78   C86   1.399705 A    
C20   O31   1.349335 S    
C145  H41   1.077370 S    
C39   H32   1.083083 S    
C14   O26   1.349271 S    
O4    V3    1.979411 S    
C70   C94   1.405461 A    
C105  C114  1.429555 A    
N1    C57   1.443729 S    
C114  C122  1.422894 A    
C25   C57   1.416721 A    
C27   C35   1.407623 A    
N18   O55   1.301529 A    
C44   C100  1.404386 A    
C37   C101  1.407522 A    
N4    C20   1.369721 A    
C21   O34   1.349318 S    
C25   N10   1.441319 S    
O19   V1    1.762758 S    
C88   H24   1.083209 S    
N16   O51   1.301418 A    
N6    C22   1.371815 A    
C14   C78   1.409235 A    
C24   C96   1.410549 A    
C118  C126  1.419996 A    
C5    C100  1.487339 S    
C47   C103  1.404915 A    
C51   C59   1.402824 A    
C76   C84   1.396175 A    
C77   C85   1.399706 A    
C13   O25   1.349211 S    
C50   C58   1.402809 A    
C108  C124  1.422499 A    
C54   C62   1.402812 A    
N22   O64   1.301687 A    
C130  N18   1.436488 S    
C111  C120  1.426734 A    
C79   C87   1.399709 A    
