data_mof_unit_32932.cif
_audit_creation_date              2012-12-10T20:31:56-0500
_audit_creation_method            fapswitch 2.2
_symmetry_space_group_name_H-M    P1
_symmetry_Int_Tables_number       1
_space_group_crystal_system       triclinic
_cell_length_a                    9.919997
_cell_length_b                    10.660894
_cell_length_c                    15.500102
_cell_angle_alpha                 90.688251
_cell_angle_beta                  67.056987
_cell_angle_gamma                 89.988566
_cell_volume                      1509.42475186

loop_
_atom_site_label
_atom_site_type_symbol
_atom_type_description
_atom_site_fract_x
_atom_site_fract_y
_atom_site_fract_z
_atom_type_partial_charge
C1    C     C_R   0.498565 0.739885 0.502019 0.885245
C2    C     C_R   0.426985 0.452105 0.907377 0.078419
C3    C     C_R   0.291321 0.393805 0.957910 0.173193
C4    C     C_R   0.535859 0.458963 0.945157 0.083569
C5    C     C_R   0.498490 0.427916 0.040083 0.103265
C6    C     C_R   0.361615 0.369722 0.089362 -0.245242
C7    C     C_R   0.260961 0.351642 0.048161 -0.244216
C8    C     C_R   0.681994 0.492265 0.890143 -0.267288
C9    C     C_R   0.783267 0.511119 0.930321 -0.219232
C10   C     C_R   0.741495 0.501865 0.026956 0.063836
C11   C     C_R   0.598854 0.457901 0.082308 0.028303
C12   C     C_R   0.407999 0.498997 0.676164 0.856498
C13   C     C_R   0.838682 0.540202 0.068915 0.528769
C14   C     C_R   0.791960 0.533046 0.167028 -0.336620
C15   C     C_R   0.556767 0.454376 0.179163 -0.273377
C16   C     C_R   0.379993 0.936421 0.497302 0.019067
C17   C     C_R   0.489142 0.871874 0.513958 -0.074662
C18   C     C_R   0.582912 0.936013 0.547290 -0.223283
C19   C     C_R   0.582897 0.065796 0.547773 -0.207141
C20   C     C_R   0.487792 0.129140 0.515911 -0.141257
C21   C     C_R   0.378038 0.064435 0.499801 0.025321
C22   C     C_3   0.332903 0.071278 0.417728 0.399603
C23   C     C_R   0.498091 0.260362 0.502887 0.857377
C24   C     C_3   0.336605 0.928732 0.414888 -0.538775
C25   C     C_R   0.884560 0.553550 0.572596 0.166034
C26   C     C_R   0.973746 0.439059 0.430577 0.115622
C27   C     C_R   0.115061 0.437314 0.433378 -0.097380
C28   C     C_R   0.026833 0.553545 0.572573 0.130975
C29   C     C_3   0.014536 0.687888 0.603034 -0.139414
C30   C     C_3   0.861355 0.688220 0.602215 -0.535023
C31   C     C_R   0.592031 0.498694 0.323824 0.890774
C32   C     C_R   0.352491 0.480135 0.777108 -0.073243
C33   C     C_R   0.650281 0.493648 0.221584 -0.125314
C34   C     C_R   0.188769 0.377358 0.916713 -0.100000
C35   C     C_R   0.220308 0.418662 0.825738 -0.184456
C36   C     C_R   0.449282 0.503496 0.820615 -0.253195
H1    H     H_    0.158047 0.306095 0.087570 0.146191
H2    H     H_    0.660548 0.886865 0.568021 0.155404
H3    H     H_    0.661529 0.115528 0.567950 0.155856
H4    H     H_    0.419407 0.113048 0.355115 0.073856
H5    H     H_    0.228072 0.884847 0.431763 0.208700
H6    H     H_    0.425255 0.889385 0.351190 0.166347
H7    H     H_    0.205307 0.389289 0.379235 0.168898
H8    H     H_    0.447632 0.427259 0.224027 0.160585
H9    H     H_    0.093191 0.748373 0.548914 0.178716
H10   H     H_    0.770746 0.700839 0.672087 0.193654
H11   H     H_    0.853415 0.748598 0.546501 0.196222
H12   H     H_    0.863321 0.561876 0.201220 0.151760
H13   H     H_    0.893585 0.537413 0.885614 0.188387
H14   H     H_    0.085949 0.330224 0.954037 0.134299
H15   H     H_    0.144572 0.398770 0.792538 0.141104
H16   H     H_    0.544493 0.559813 0.783960 0.148219
H17   H     H_    0.331022 0.332790 0.158808 0.143222
H18   H     H_    0.721967 0.501256 0.815034 0.144717
N1    N     N_R   0.856900 0.500860 0.500610 -0.116340
N2    N     N_R   0.142540 0.500820 0.500610 -0.131476
O1    O     O_R   0.385310 0.683210 0.499990 -0.613211
O2    O     O_R   0.614650 0.683240 0.500000 -0.620706
O3    O     O_R   0.319830 0.499970 0.632240 -0.627701
O4    O     O_R   0.549170 0.500000 0.632250 -0.605333
O5    O     O_R   0.385350 0.316760 0.500000 -0.599856
O6    O     O_R   0.614690 0.316790 0.500010 -0.633566
O7    O     O_R   0.450830 0.500000 0.367750 -0.617540
O8    O     O_R   0.680170 0.500030 0.367760 -0.629018
Zn1   Zn    Zn3+2 0.346870 0.499980 0.499990 0.934629
Zn2   Zn    Zn3+2 0.653130 0.500020 0.500010 0.924378
O9    O     O_3   0.978413 0.580078 0.011259 -0.625734
C37   C     C_3   0.027542 0.681456 0.050518 -0.328924
H19   H     H_    0.075335 0.646806 0.099809 0.174483
H20   H     H_    0.939612 0.752154 0.085039 0.156554
H21   H     H_    0.116363 0.729603 0.993169 0.196610
O10   O     O_3   0.192399 0.123482 0.433713 -0.600317
C38   C     C_3   0.090270 0.116755 0.527575 -0.264220
H22   H     H_    0.122593 0.179199 0.574092 0.178089
H23   H     H_    0.075029 0.018951 0.553291 0.144016
H24   H     H_    0.982658 0.150568 0.531005 0.164821
C39   C     C_3   0.966539 0.381956 0.342351 -0.374364
C40   C     C_3   0.893970 0.251953 0.356674 -0.238137
C41   C     C_3   0.990790 0.152630 0.288874 -0.915454
H25   H     H_    0.009199 0.176815 0.215720 0.245342
H26   H     H_    0.097887 0.145382 0.295591 0.302509
H27   H     H_    0.935861 0.060043 0.304902 0.253336
H28   H     H_    0.867404 0.219007 0.429094 0.231036
H29   H     H_    0.791506 0.258259 0.344038 0.219873
H30   H     H_    0.918059 0.448170 0.309158 0.198526
H31   H     H_    0.079181 0.373512 0.287401 0.167376
C42   C     C_3   0.018266 0.704406 0.700585 -0.349884
C43   C     C_3   0.000824 0.842370 0.731733 -0.372053
C44   C     C_3   0.000273 0.857063 0.829954 -0.861507
H32   H     H_    0.907416 0.804603 0.881352 0.273478
H33   H     H_    0.104620 0.821326 0.831339 0.263713
H34   H     H_    0.988287 0.957786 0.850743 0.243755
H35   H     H_    0.093164 0.897392 0.682198 0.220580
H36   H     H_    0.896575 0.880601 0.731712 0.226460
H37   H     H_    0.930122 0.648323 0.752205 0.195752
H38   H     H_    0.124868 0.669519 0.698506 0.227135

loop_
_geom_bond_atom_site_label_1
_geom_bond_atom_site_label_2
_ccdc_geom_bond_type
C8    C9    A    
C42   C43   S    
O7    Zn1   S    
C16   C21   A    
C24   H6    S    
C38   H22   S    
C19   C20   A    
C4    C8    A    
C26   N1    A    
C14   C33   A    
C28   N2    A    
C39   C40   S    
C25   C28   A    
C26   C27   A    
C32   C36   A    
C28   C29   S    
C15   H8    S    
C5    C11   A    
C3    C7    A    
C5    C6    A    
N2    Zn1   S    
C34   C35   A    
C37   H19   S    
C12   O3    A    
C11   C15   A    
C40   H28   S    
O2    Zn2   S    
C23   O6    A    
C16   C17   A    
C42   H37   S    
C31   C33   S    
C44   H33   S    
C9    C10   A    
C36   H16   S    
O4    Zn2   S    
C16   C24   S    
C21   C22   S    
C12   C32   S    
C24   H5    S    
C38   H23   S    
C22   O10   S    
C43   H36   S    
C34   H14   S    
C26   C39   S    
O6    Zn2   S    
O9    C37   S    
C32   C35   A    
C31   O7    A    
C30   H11   S    
C9    H13   S    
C8    H18   S    
C41   H26   S    
C27   N2    A    
C18   C19   A    
C14   H12   S    
C3    C34   A    
C40   H29   S    
C29   H9    S    
O8    Zn2   S    
C2    C4    A    
C29   C30   S    
C1    O1    A    
C20   C23   S    
C23   O5    A    
C22   H4    S    
C42   H38   S    
C17   C18   A    
C7    H1    S    
C43   C44   S    
C44   H34   S    
C19   H3    S    
C39   H31   S    
C35   H15   S    
C38   H24   S    
C22   C24   S    
C6    H17   S    
N1    Zn2   S    
C13   O9    S    
C2    C36   A    
C25   C30   S    
C43   H35   S    
C40   C41   S    
C31   O8    A    
C30   H10   S    
C25   N1    A    
O1    Zn1   S    
O10   C38   S    
C10   C13   A    
C41   H27   S    
C6    C7    A    
C1    C17   S    
C2    C3    A    
C18   H2    S    
C1    O2    A    
O3    Zn1   S    
C37   H21   S    
O5    Zn1   S    
C29   C42   S    
C10   C11   A    
C39   H30   S    
C41   H25   S    
C12   O4    A    
C27   H7    S    
C4    C5    A    
C20   C21   A    
C37   H20   S    
C44   H32   S    
C13   C14   A    
C15   C33   A    
