data_mof_unit_16205.cif
_audit_creation_date              2012-10-26T18:32:05-0400
_audit_creation_method            fapswitch 2.2
_symmetry_space_group_name_H-M    P1
_symmetry_Int_Tables_number       1
_space_group_crystal_system       triclinic
_cell_length_a                    12.462529
_cell_length_b                    13.18227
_cell_length_c                    14.364725
_cell_angle_alpha                 95.7159
_cell_angle_beta                  108.507559
_cell_angle_gamma                 117.796912
_cell_volume                      1891.39903583

loop_
_atom_site_label
_atom_site_type_symbol
_atom_type_description
_atom_site_fract_x
_atom_site_fract_y
_atom_site_fract_z
_atom_type_partial_charge
C1    C     C_R   0.648879 0.714402 0.507400 0.600859
C2    C     C_R   0.227281 0.517825 0.013074 -0.023460
C3    C     C_R   0.171344 0.524107 0.084150 0.001241
C4    C     C_R   0.617950 0.515643 0.686914 0.555715
C5    C     C_R   0.325631 0.486871 0.036646 0.267321
C6    C     C_R   0.368982 0.464293 0.131285 0.188771
C7    C     C_R   0.204761 0.487177 0.171893 0.240345
C8    C     C_R   0.105268 0.956542 0.340532 -0.091895
C9    C     C_R   0.249021 0.155066 0.462475 -0.006647
C10   C     C_R   0.743327 0.929217 0.584594 -0.164427
C11   C     C_R   0.844690 0.048004 0.611678 -0.158368
C12   C     C_R   0.882085 0.542400 0.926599 0.015005
C13   C     C_R   0.940626 0.078923 0.572437 -0.065892
C14   C     C_R   0.935782 0.990740 0.503350 -0.011472
C15   C     C_R   0.819181 0.873965 0.462477 0.044398
C16   C     C_R   0.345314 0.283554 0.484605 0.558279
C17   C     C_R   0.038319 0.015920 0.468703 -0.007811
C18   C     C_R   0.011440 0.931296 0.382071 -0.087032
C19   C     C_R   0.888565 0.824070 0.333863 -0.137512
C20   C     C_R   0.791387 0.794821 0.372119 0.245531
C21   C     C_R   0.165491 0.123168 0.514607 0.222617
C22   C     C_R   0.223444 0.067541 0.379307 0.172622
C23   C     C_R   0.855018 0.588662 0.003503 -0.023052
C24   C     C_R   0.731856 0.840651 0.512418 0.013749
C25   C     C_R   0.268314 0.678993 0.680994 0.269713
C26   C     C_R   0.644729 0.331941 0.365469 -0.004385
C27   C     C_R   0.710483 0.277102 0.344556 0.230401
C28   C     C_R   0.378743 0.479282 0.311849 0.563261
C29   C     C_R   0.850295 0.333833 0.400892 0.275402
C30   C     C_R   0.922942 0.448304 0.476054 -0.071815
C31   C     C_R   0.847435 0.493643 0.502234 0.131180
C32   C     C_R   0.067402 0.516177 0.531467 -0.037383
C33   C     C_R   0.128649 0.608593 0.623768 0.011974
C34   C     C_R   0.000782 0.539710 0.956084 -0.075123
C35   C     C_R   0.051167 0.634694 0.657583 -0.127205
C36   C     C_R   0.920158 0.595884 0.593665 0.304309
C37   C     C_R   0.155922 0.499653 0.499345 0.097045
C38   C     C_R   0.346971 0.652638 0.646575 0.076192
C39   C     C_R   0.689851 0.529429 0.795804 -0.016479
C40   C     C_R   0.315335 0.473635 0.202803 -0.041562
C41   C     C_R   0.747351 0.605682 0.976173 -0.148958
C42   C     C_R   0.668410 0.580338 0.873135 -0.198676
C43   C     C_R   0.788474 0.499279 0.823233 0.253518
C44   C     C_3   0.282232 0.163644 0.684897 -0.010288
C45   C     C_R   0.072147 0.554774 0.060102 0.075125
C46   C     C_3   0.348683 0.255461 0.789846 -0.228333
C47   C     C_3   0.436544 0.228796 0.871709 -0.493375
C48   C     C_3   0.427975 0.878342 0.778448 -0.016735
C49   C     C_3   0.558738 0.912589 0.866243 -0.263234
C50   C     C_3   0.672836 0.035666 0.877532 -0.490760
C51   C     C_3   0.898283 0.222529 0.302377 0.048876
C52   C     C_3   0.831756 0.085899 0.272112 -0.226684
C53   C     C_3   0.804180 0.035194 0.161328 -0.498074
C54   C     C_3   0.557550 0.140214 0.184856 -0.003310
C55   C     C_3   0.465021 0.005390 0.130266 -0.243269
C56   C     C_R   0.047389 0.606238 0.136458 0.298387
C57   C     C_3   0.376661 0.980554 0.018881 -0.485345
C58   C     C_3   0.948627 0.776224 0.680666 -0.002634
C59   C     C_3   0.969162 0.800175 0.793368 -0.266182
C60   C     C_3   0.050890 0.934605 0.848155 -0.484227
C61   C     C_3   0.695720 0.307854 0.724597 0.015541
C62   C     C_3   0.680435 0.238845 0.624476 -0.236509
C63   C     C_3   0.571826 0.106401 0.590880 -0.489810
C64   C     C_R   0.938640 0.621833 0.106894 -0.133348
C65   C     C_R   0.058560 0.535709 0.887204 -0.073498
C66   C     C_R   0.175374 0.534434 0.916770 0.245733
Cu1   Cu    Cu3+1 0.416420 0.526630 0.522910 0.979688
Cu2   Cu    Cu3+1 0.583580 0.473370 0.477090 1.013812
H1    H     H_    0.920044 0.661123 0.165070 0.079759
H2    H     H_    0.537573 0.285854 0.327947 0.151629
H3    H     H_    0.727584 0.643332 0.034663 0.125527
H4    H     H_    0.591413 0.601583 0.854085 0.151443
H5    H     H_    0.021490 0.545182 0.812279 0.198452
H6    H     H_    0.449889 0.464147 0.994135 0.357291
H7    H     H_    0.398592 0.125457 0.385531 0.339399
H8    H     H_    0.361214 0.160348 0.666532 0.106819
H9    H     H_    0.212778 0.073709 0.688655 0.125872
H10   H     H_    0.410883 0.346683 0.784903 0.202330
H11   H     H_    0.270614 0.253858 0.812484 0.210080
H12   H     H_    0.866745 0.763519 0.264516 0.085655
H13   H     H_    0.376176 0.137929 0.877609 0.134397
H14   H     H_    0.481547 0.295471 0.947376 0.174568
H15   H     H_    0.518043 0.233882 0.852359 0.128335
H16   H     H_    0.662047 0.651014 0.255345 0.348430
H17   H     H_    0.118632 0.382201 0.242845 0.293244
H18   H     H_    0.402511 0.946430 0.795093 0.140542
H19   H     H_    0.441193 0.882531 0.705323 0.106227
H20   H     H_    0.545824 0.913669 0.939295 0.171941
H21   H     H_    0.585185 0.844705 0.851969 0.153010
H22   H     H_    0.692165 0.034317 0.807302 0.139440
H23   H     H_    0.084761 0.891229 0.274859 0.144552
H24   H     H_    0.765001 0.059146 0.943457 0.151638
H25   H     H_    0.648735 0.105426 0.891387 0.138442
H26   H     H_    0.000101 0.257966 0.307271 0.115407
H27   H     H_    0.848585 0.251513 0.241259 0.138314
H28   H     H_    0.899490 0.063619 0.322712 0.169529
H29   H     H_    0.737994 0.041619 0.282756 0.229202
H30   H     H_    0.736653 0.056884 0.108321 0.144839
H31   H     H_    0.755924 0.936119 0.141782 0.152130
H32   H     H_    0.898736 0.073560 0.151155 0.149634
H33   H     H_    0.622749 0.181859 0.144746 0.123781
H34   H     H_    0.677197 0.906005 0.623400 0.121858
H35   H     H_    0.494212 0.178986 0.179223 0.133159
H36   H     H_    0.524692 0.963498 0.132058 0.163992
H37   H     H_    0.400830 0.963347 0.170941 0.206907
H38   H     H_    0.313897 0.019334 0.015801 0.151645
H39   H     H_    0.310868 0.882199 0.981062 0.173608
H40   H     H_    0.439020 0.020949 0.976779 0.142128
H41   H     H_    0.900235 0.822758 0.646918 0.146255
H42   H     H_    0.044432 0.821032 0.672018 0.098845
H43   H     H_    0.870646 0.761520 0.797015 0.169523
H44   H     H_    0.020014 0.757174 0.834093 0.157599
H45   H     H_    0.013616 0.173237 0.593964 0.216326
H46   H     H_    0.149019 0.976433 0.843710 0.143106
H47   H     H_    0.066917 0.949642 0.930121 0.155263
H48   H     H_    0.997496 0.978121 0.812245 0.154930
H49   H     H_    0.422313 0.355078 0.173453 0.326519
H50   H     H_    0.329309 0.605544 0.886930 0.368443
H51   H     H_    0.597183 0.295445 0.713227 0.116047
H52   H     H_    0.726343 0.270877 0.787370 0.128112
H53   H     H_    0.654314 0.278440 0.562873 0.207547
H54   H     H_    0.776772 0.247762 0.634439 0.174529
H55   H     H_    0.595586 0.063658 0.650439 0.131994
H56   H     H_    0.852398 0.115855 0.666923 0.123930
H57   H     H_    0.564706 0.059717 0.518400 0.184092
H58   H     H_    0.473950 0.096191 0.577087 0.135496
H59   H     H_    0.106859 0.686332 0.280731 0.312910
H60   H     H_    0.453381 0.699201 0.690689 0.112938
H61   H     H_    0.097828 0.696329 0.733287 0.159196
H62   H     H_    0.120422 0.436047 0.427820 0.169234
N1    N     N_R   0.290690 0.566960 0.557640 -0.271206
N2    N     N_R   0.709100 0.433710 0.442970 -0.266353
O1    O     O_R   0.545970 0.684450 0.528810 -0.517637
O2    O     O_3   0.307758 0.088647 0.331012 -0.711504
O3    O     O_3   0.211450 0.198190 0.610777 -0.565704
O4    O     O_3   0.664943 0.694813 0.317222 -0.672812
O5    O     O_3   0.117289 0.449149 0.218312 -0.659501
O6    O     O_3   0.323989 0.765999 0.773765 -0.594979
O7    O     O_3   0.909710 0.266693 0.401448 -0.564957
O8    O     O_3   0.635791 0.157159 0.287775 -0.573621
O9    O     O_3   0.862175 0.650800 0.627475 -0.507201
O10   O     O_3   0.457948 0.426599 0.149063 -0.727127
O11   O     O_3   0.232720 0.545827 0.847855 -0.637779
O12   O     O_R   0.687130 0.639470 0.490120 -0.402311
O13   O     O_3   0.794849 0.429776 0.748687 -0.567916
O14   O     O_3   0.138228 0.652703 0.238096 -0.637318
O15   O     O_R   0.519670 0.535100 0.660030 -0.521853
O16   O     O_R   0.660830 0.490120 0.621340 -0.398074
O17   O     O_R   0.312870 0.360530 0.509880 -0.455399
O18   O     O_R   0.454030 0.315550 0.471190 -0.542853
O19   O     O_R   0.339170 0.509880 0.378660 -0.476351
O20   O     O_R   0.480330 0.464900 0.339970 -0.465398
O21   O     O_3   0.371499 0.471341 0.963606 -0.701974

loop_
_geom_bond_atom_site_label_1
_geom_bond_atom_site_label_2
_ccdc_geom_bond_type
C63   H55   S    
C61   H51   S    
C58   H41   S    
C41   C42   A    
C54   H33   S    
C60   H46   S    
C35   C36   A    
C14   C17   A    
H7    O2    S    
C53   H31   S    
C12   C23   A    
C26   C27   A    
C62   C63   S    
C55   H37   S    
Cu2   O20   S    
C44   H9    S    
Cu1   O1    S    
C9    C16   S    
C12   C43   A    
C3    C7    A    
C31   C36   A    
C5    C6    A    
C5    O21   S    
C9    C22   A    
Cu1   O17   S    
C28   C40   S    
C4    O16   A    
C52   H29   S    
C65   H5    S    
C27   C29   A    
Cu2   N2    S    
C18   C19   A    
C47   H14   S    
C44   H8    S    
C61   O13   S    
C16   O18   A    
C46   C47   S    
C50   H22   S    
C54   O8    S    
C11   H56   S    
C45   C56   A    
C37   H62   S    
C59   H43   S    
C7    C40   A    
C56   C64   A    
Cu2   O12   S    
C16   O17   A    
C47   H15   S    
C6    O10   S    
C29   C30   A    
C35   H61   S    
Cu2   O16   S    
C41   H3    S    
C44   O3    S    
C57   H38   S    
C59   C60   S    
C13   C14   A    
C61   H52   S    
C49   H20   S    
C19   H12   S    
C1    O1    A    
C34   C65   A    
C44   C46   S    
C59   H44   S    
C39   C42   A    
C53   H32   S    
C15   C20   A    
C29   O7    S    
Cu1   O19   S    
C51   C52   S    
C23   C64   A    
C54   H35   S    
C10   H34   S    
H50   O11   S    
C46   H10   S    
C39   C43   A    
C66   O11   S    
H59   O14   S    
C10   C24   A    
C58   C59   S    
C64   H1    S    
C4    O15   A    
C55   H36   S    
C3    C45   A    
C8    C18   A    
Cu1   Cu2   S    
H6    O21   S    
C36   O9    S    
C31   N2    A    
C43   O13   S    
C25   C38   A    
C8    C22   A    
C4    C39   S    
C30   C31   A    
C42   H4    S    
C17   C18   A    
C48   H19   S    
C8    H23   S    
C32   C37   A    
C20   O4    S    
C63   H57   S    
C34   C45   A    
C1    C24   S    
C50   H24   S    
C15   C24   A    
C57   H39   S    
C22   O2    S    
C28   O20   A    
C55   C57   S    
Cu1   O15   S    
C26   H2    S    
C48   H18   S    
C60   H48   S    
C2    C5    A    
C12   C34   A    
H17   O5    S    
C62   H54   S    
C26   N2    A    
C52   C53   S    
C7    O5    S    
C54   C55   S    
H16   O4    S    
C58   H42   S    
Cu1   N1    S    
C49   H21   S    
C2    C66   A    
C38   H60   S    
C25   O6    S    
C50   H25   S    
C53   H30   S    
C27   O8    S    
C23   C41   A    
C48   O6    S    
C32   C33   A    
C19   C20   A    
H49   O10   S    
C65   C66   A    
C1    O12   A    
C38   N1    A    
C30   C32   A    
C11   C13   A    
C58   O9    S    
C9    C21   A    
C46   H11   S    
C48   C49   S    
C33   C35   A    
C52   H28   S    
C6    C40   A    
C47   H13   S    
C56   O14   S    
C61   C62   S    
C17   C21   A    
C63   H58   S    
Cu2   O18   S    
C10   C11   A    
C51   H26   S    
C37   N1    A    
C57   H40   S    
C28   O19   A    
C49   C50   S    
C51   H27   S    
C14   C15   A    
C60   H47   S    
C2    C3    A    
C21   O3    S    
C62   H53   S    
C13   H45   S    
C25   C33   A    
C51   O7    S    
