data_mof_unit_43245.cif
_audit_creation_date              2013-03-05T16:12:46-0500
_audit_creation_method            fapswitch 2.2
_symmetry_space_group_name_H-M    P1
_symmetry_Int_Tables_number       1
_space_group_crystal_system       triclinic
_cell_length_a                    10.710063
_cell_length_b                    9.931485
_cell_length_c                    27.739914
_cell_angle_alpha                 89.999034
_cell_angle_beta                  92.25094
_cell_angle_gamma                 89.999624
_cell_volume                      2948.33000536

loop_
_atom_site_label
_atom_site_type_symbol
_atom_site_description
_atom_site_fract_x
_atom_site_fract_y
_atom_site_fract_z
_atom_type_partial_charge
O1    O     O_R   0.316770 0.614620 0.500000 -0.651987
O2    O     O_R   0.683230 0.385380 0.500000 -0.644150
O3    O     O_R   0.683230 0.614620 0.500000 -0.651992
O4    O     O_R   0.316770 0.385380 0.500000 -0.644158
C1    C     C_R   0.260157 0.500046 0.499977 0.878233
C2    C     C_R   0.739843 0.500045 0.500023 0.878238
O5    O     O_R   0.500030 0.614650 0.428760 -0.637569
O6    O     O_R   0.499970 0.385350 0.571240 -0.646684
O7    O     O_R   0.499970 0.614650 0.571240 -0.637559
O8    O     O_R   0.500030 0.385350 0.428760 -0.646676
C3    C     C_R   0.499798 0.499842 0.406115 0.903120
C4    C     C_R   0.500197 0.499839 0.593885 0.903115
Zn1   Zn    Zn3+2 0.500000 0.653120 0.500000 0.940008
Zn2   Zn    Zn3+2 0.500000 0.346880 0.500000 0.941707
C5    C     C_R   0.386360 0.508031 0.175443 0.586036
C6    C     C_R   0.613568 0.507772 0.824555 0.586047
O9    O     O_2   0.277858 0.518803 0.198347 -0.517703
O10   O     O_2   0.722086 0.518334 0.801649 -0.517666
N1    N     N_R   0.496281 0.496745 0.201484 -0.346835
N2    N     N_R   0.503627 0.496698 0.798515 -0.346833
C7    C     C_R   0.608608 0.487705 0.180124 0.590013
C8    C     C_R   0.391286 0.487872 0.819877 0.590044
C9    C     C_R   0.500301 0.371272 0.278309 0.364279
C10   C     C_R   0.499510 0.371239 0.721687 0.364260
C11   C     C_R   0.502719 0.375207 0.328703 -0.255657
C12   C     C_R   0.497131 0.375191 0.671293 -0.255650
C13   C     C_R   0.492866 0.619310 0.327404 -0.157178
C14   C     C_R   0.507179 0.619285 0.672599 -0.157192
C15   C     C_R   0.490148 0.617025 0.277395 -0.107962
C16   C     C_R   0.509867 0.616984 0.722607 -0.107978
C17   C     C_R   0.493881 0.494356 0.252786 0.178976
C18   C     C_R   0.506020 0.494314 0.747214 0.178993
C19   C     C_R   0.500001 0.493297 0.101821 -0.061189
C20   C     C_R   0.499908 0.493261 0.898178 -0.061196
C21   C     C_R   0.386055 0.507935 0.125186 -0.016828
C22   C     C_R   0.613877 0.507674 0.874812 -0.016828
C23   C     C_R   0.274218 0.522473 0.098104 -0.117197
C24   C     C_R   0.725740 0.521992 0.901892 -0.117155
C25   C     C_R   0.613293 0.478106 0.129477 -0.041151
C26   C     C_R   0.386591 0.478283 0.870524 -0.041163
C27   C     C_R   0.498697 0.498454 0.353382 -0.117984
C28   C     C_R   0.501270 0.498440 0.646618 -0.117979
H1    H     H_    0.490738 0.715551 0.345622 0.212049
H2    H     H_    0.509397 0.715526 0.654384 0.212062
H3    H     H_    0.486362 0.710915 0.257525 0.186417
H4    H     H_    0.513724 0.710866 0.742481 0.186393
H5    H     H_    0.186170 0.536583 0.115390 0.186337
H6    H     H_    0.813810 0.535919 0.884604 0.186310
C29   C     C_R   0.385227 0.488990 0.972707 0.054467
C30   C     C_R   0.614679 0.488785 0.027292 0.054467
C31   C     C_R   0.614827 0.500402 0.976428 0.060425
C32   C     C_R   0.385099 0.500635 0.023570 0.060423
C33   C     C_R   0.499897 0.494162 0.949224 0.077152
C34   C     C_R   0.500017 0.494183 0.050775 0.077161
C35   C     C_R   0.274326 0.466985 0.944785 -0.277545
C36   C     C_R   0.725544 0.466592 0.055217 -0.277560
C37   C     C_R   0.273997 0.456894 0.894667 -0.015434
C38   C     C_R   0.725856 0.456510 0.105335 -0.015468
O11   O     O_2   0.285555 0.492597 0.791908 -0.491422
O12   O     O_2   0.714345 0.492231 0.208094 -0.491434
C39   C     C_R   0.273531 0.519177 0.048212 -0.204776
C40   C     C_R   0.726425 0.518706 0.951784 -0.204752
H7    H     H_    0.492997 0.281511 0.651312 0.205563
H8    H     H_    0.506784 0.281516 0.348679 0.205536
H9    H     H_    0.186911 0.447416 0.961577 0.129961
H10   H     H_    0.812933 0.446871 0.038427 0.129991
H11   H     H_    0.184263 0.535622 0.029800 0.139430
H12   H     H_    0.815723 0.534971 0.970194 0.139379
C41   C     C_R   0.063876 0.377538 0.500181 -0.136155
C42   C     C_R   0.936083 0.623120 0.500046 -0.154771
C43   C     C_R   0.936125 0.377537 0.499810 -0.136142
C44   C     C_R   0.063917 0.623120 0.499964 -0.154767
H13   H     H_    0.112160 0.281779 0.500582 0.199985
H14   H     H_    0.887663 0.718921 0.500127 0.172810
H15   H     H_    0.887840 0.281779 0.499401 0.199985
H16   H     H_    0.112337 0.718920 0.499890 0.172816
C45   C     C_R   0.872442 0.500250 0.499944 -0.044799
C46   C     C_R   0.127558 0.500250 0.500056 -0.044798
C47   C     C_R   0.583017 0.071870 0.529262 0.016056
C48   C     C_R   0.424363 0.928124 0.467898 0.013516
C49   C     C_R   0.416984 0.071873 0.470737 0.016079
C50   C     C_R   0.575639 0.928121 0.532101 0.013548
N3    N     N_R   0.500000 0.857200 0.500000 -0.190903
N4    N     N_R   0.500000 0.142800 0.500000 -0.191168
C51   C     C_2   0.684568 0.144167 0.556309 0.505664
H17   H     H_    0.669133 0.240327 0.572781 0.110477
O13   O     O_2   0.789649 0.096496 0.559847 -0.572544
C52   C     C_2   0.354515 0.855804 0.428651 0.502885
H18   H     H_    0.311547 0.759792 0.434627 0.103854
O14   O     O_2   0.345829 0.903313 0.388049 -0.551794
C53   C     C_2   0.315432 0.144171 0.443689 0.505609
H19   H     H_    0.330861 0.240338 0.427221 0.110470
O15   O     O_2   0.210356 0.096492 0.440146 -0.572548
C54   C     C_2   0.645493 0.855798 0.571347 0.502834
H20   H     H_    0.688453 0.759782 0.565373 0.103858
O16   O     O_2   0.654193 0.903311 0.611949 -0.551830
N5    N     N_R   0.494560 0.242945 0.745986 0.229363
O17   O     O_R   0.453499 0.136752 0.722872 -0.342517
O18   O     O_R   0.538094 0.228604 0.790127 -0.358778
N6    N     N_R   0.505117 0.242983 0.254004 0.229355
O19   O     O_R   0.546196 0.136761 0.277097 -0.342467
O20   O     O_R   0.461421 0.228678 0.209883 -0.358768
C55   C     C_2   0.154435 0.414741 0.870455 0.556128
H21   H     H_    0.067053 0.456930 0.882075 0.022851
O21   O     O_2   0.151518 0.325362 0.840208 -0.465286
C56   C     C_2   0.845354 0.414145 0.129547 0.556089
H22   H     H_    0.932802 0.456176 0.117927 0.022979
O22   O     O_2   0.848136 0.324761 0.159795 -0.465279

loop_
_geom_bond_atom_site_label_1
_geom_bond_atom_site_label_2
_geom_bond_distance
_ccdc_geom_bond_type
C16   C18   1.397876 A    
C50   C54   1.482184 S    
C13   C15   1.386574 A    
Zn2   N4    2.026817 S    
C44   H16   1.083629 S    
O3    C2    1.289343 A    
N1    C17   1.424548 S    
N5    O17   1.301793 A    
C51   H17   1.074289 S    
C5    N1    1.361430 A    
C19   C25   1.417886 A    
O1    C1    1.289347 A    
C21   C23   1.396132 A    
C10   C12   1.397701 A    
C32   C39   1.411778 A    
C47   N4    1.374385 A    
C36   H10   1.079585 S    
C56   H22   1.085833 S    
O7    Zn1   2.012789 S    
C14   C28   1.400105 A    
C41   C43   1.367855 A    
C39   H11   1.078535 S    
C4    C28   1.462452 S    
C35   H9    1.079592 S    
C42   H14   1.083630 S    
C44   C46   1.397683 A    
C41   H13   1.082377 S    
C23   H5    1.083664 S    
C24   H6    1.083667 S    
O3    Zn1   1.999306 S    
C6    N2    1.361437 A    
C9    N6    1.443375 S    
C8    O11   1.348132 S    
C42   C45   1.397685 A    
C41   C46   1.396663 A    
O2    C2    1.290141 A    
C31   C40   1.411778 A    
C48   N3    1.374281 A    
C5    C21   1.394026 A    
N5    O18   1.300827 A    
C32   C34   1.419666 A    
C51   O13   1.221340 D    
C37   C55   1.482745 S    
C10   N5    1.443398 S    
C7    O12   1.348135 S    
O8    Zn2   2.012794 S    
C11   C27   1.403961 A    
C53   H19   1.074285 S    
O4    C1    1.290138 A    
C2    C45   1.420237 S    
C29   C35   1.409335 A    
C25   C38   1.418198 A    
C14   H2    1.081852 S    
C30   C36   1.409339 A    
C15   H3    1.083143 S    
C38   C56   1.482754 S    
C11   H8    1.082994 S    
C9    C17   1.412951 A    
O5    C3    1.301767 A    
C12   H7    1.082992 S    
C10   C18   1.412972 A    
C53   O15   1.221340 D    
C13   C27   1.400113 A    
C7    C25   1.411030 A    
O6    C4    1.299001 A    
C29   C32   1.415721 A    
C8    C26   1.411032 A    
N6    O20   1.300831 A    
C30   C31   1.415733 A    
C55   O21   1.221033 D    
C30   C34   1.413543 A    
C54   O16   1.221321 D    
C6    O10   1.350378 S    
C52   O14   1.221323 D    
C35   C37   1.393736 A    
C20   C26   1.417877 A    
O1    Zn1   1.999311 S    
C43   C45   1.396661 A    
C49   N4    1.374396 A    
C12   C28   1.403972 A    
N2    C18   1.424537 S    
C19   C34   1.416070 A    
C5    O9    1.350374 S    
O6    Zn2   2.012802 S    
C26   C37   1.418196 A    
N1    C7    1.364713 A    
C16   H4    1.083150 S    
N2    C8    1.364720 A    
C48   C49   1.432164 A    
C47   C50   1.432165 A    
C23   C39   1.384126 A    
Zn1   N3    2.026817 S    
C40   H12   1.078524 S    
C22   C24   1.396127 A    
C48   C52   1.482179 S    
C6    C22   1.394019 A    
C43   H15   1.082377 S    
C56   O22   1.221053 D    
C29   C33   1.413541 A    
C14   C16   1.386573 A    
N6    O19   1.301799 A    
C19   C21   1.411603 A    
C47   C51   1.482342 S    
C36   C38   1.393736 A    
C3    C27   1.462453 S    
C20   C22   1.411603 A    
C9    C11   1.397689 A    
O4    Zn2   1.999306 S    
C54   H20   1.074460 S    
O2    Zn2   1.999311 S    
O7    C4    1.301775 A    
O8    C3    1.299005 A    
C49   C53   1.482347 S    
C13   H1    1.081862 S    
O5    Zn1   2.012807 S    
C52   H18   1.074460 S    
C20   C33   1.416064 A    
C15   C17   1.397865 A    
C50   N3    1.374285 A    
C55   H21   1.085824 S    
C42   C44   1.369206 A    
C31   C33   1.419674 A    
C1    C46   1.420237 S    
C24   C40   1.384129 A    
