data_mof_unit_41860.cif
_audit_creation_date              2012-12-10T17:11:28-0500
_audit_creation_method            fapswitch 2.2
_symmetry_space_group_name_H-M    P1
_symmetry_Int_Tables_number       1
_space_group_crystal_system       triclinic
_cell_length_a                    15.02131
_cell_length_b                    12.960691
_cell_length_c                    11.672945
_cell_angle_alpha                 99.73968
_cell_angle_beta                  93.295152
_cell_angle_gamma                 90.768464
_cell_volume                      2235.48863131

loop_
_atom_site_label
_atom_site_type_symbol
_atom_type_description
_atom_site_fract_x
_atom_site_fract_y
_atom_site_fract_z
_atom_type_partial_charge
C1    C     C_R   0.493474 0.299451 0.478809 0.813348
C2    C     C_R   0.506527 0.700548 0.521191 0.813349
C3    C     C_R   0.044794 0.308947 0.478011 0.167954
C4    C     C_R   0.955207 0.691055 0.521990 0.167954
C5    C     C_R   0.517089 0.813827 0.532583 -0.101907
C6    C     C_R   0.482913 0.186173 0.467417 -0.101908
C7    C     C_R   0.419504 0.016591 0.374499 0.197170
C8    C     C_R   0.580499 0.983408 0.625500 0.197172
C9    C     C_R   0.421404 0.126964 0.384809 0.173649
C10   C     C_R   0.578598 0.873035 0.615191 0.173654
C11   C     C_R   0.535317 0.138184 0.544250 -0.308989
C12   C     C_R   0.464685 0.861816 0.455751 -0.308989
C13   C     C_R   0.528953 0.030647 0.543116 0.070034
C14   C     C_R   0.471050 0.969353 0.456884 0.070035
C15   C     C_R   0.414462 0.402939 0.022865 -0.335787
C16   C     C_R   0.585538 0.597061 0.977135 -0.335786
C17   C     C_R   0.422687 0.412281 0.144869 0.092671
C18   C     C_R   0.577313 0.587719 0.855131 0.092675
C19   C     C_R   0.536989 0.541955 0.156451 0.031152
C20   C     C_R   0.463011 0.458045 0.843549 0.031150
C21   C     C_R   0.531061 0.535283 0.033796 0.066161
C22   C     C_R   0.468939 0.464717 0.966204 0.066161
C23   C     C_R   0.328896 0.500160 0.500827 0.837483
C24   C     C_R   0.671104 0.499840 0.499172 0.837483
C25   C     C_R   0.814190 0.585430 0.469100 0.076574
C26   C     C_R   0.185811 0.414573 0.530905 0.076574
C27   C     C_R   0.767884 0.498930 0.497345 -0.078209
C28   C     C_R   0.232116 0.501070 0.502654 -0.078209
C29   C     C_R   0.814617 0.412050 0.524982 0.087162
C30   C     C_R   0.185382 0.587947 0.475010 0.087161
C31   C     C_R   0.905781 0.405016 0.501288 0.070315
C32   C     C_R   0.094219 0.594984 0.498708 0.070312
C33   C     C_R   0.953375 0.499690 0.499193 -0.087936
C34   C     C_R   0.046626 0.500312 0.500809 -0.087936
C35   C     C_R   0.907267 0.593690 0.495169 0.072805
C36   C     C_R   0.092734 0.406312 0.504836 0.072812
C37   C     C_R   0.950237 0.308347 0.475604 0.165603
C38   C     C_R   0.049765 0.691655 0.524388 0.165610
Cu1   Cu    Cu3+1 0.506660 0.507730 0.615930 0.932625
Cu2   Cu    Cu3+1 0.493340 0.492270 0.384070 0.932625
H1    H     H_    0.365791 0.347988 0.973405 0.139450
H2    H     H_    0.634208 0.652012 0.026595 0.139450
H3    H     H_    0.418119 0.813111 0.394994 0.179811
H4    H     H_    0.581882 0.186889 0.605007 0.179813
H5    H     H_    0.619911 0.635185 0.812359 0.127975
H6    H     H_    0.380088 0.364816 0.187641 0.127976
N1    N     N_R   0.516670 0.519360 0.790130 -0.180723
N2    N     N_R   0.483330 0.480640 0.209870 -0.180723
O1    O     O_R   0.504720 0.354460 0.582000 -0.588389
O2    O     O_R   0.495280 0.645540 0.418000 -0.588389
O3    O     O_R   0.493480 0.341410 0.386200 -0.574072
O4    O     O_R   0.506520 0.658590 0.613800 -0.574073
O5    O     O_R   0.375880 0.506510 0.597910 -0.580683
O6    O     O_R   0.624120 0.493490 0.402090 -0.580685
O7    O     O_R   0.364640 0.493450 0.402110 -0.594583
O8    O     O_R   0.635360 0.506550 0.597890 -0.594584
C39   C     C_3   0.765826 0.659764 0.400968 -0.865168
H7    H     H_    0.732299 0.614379 0.320638 0.238076
H8    H     H_    0.714887 0.703525 0.453489 0.222870
H9    H     H_    0.812096 0.715584 0.370999 0.245729
C40   C     C_3   0.234173 0.340245 0.599049 -0.865173
H10   H     H_    0.267690 0.385637 0.679382 0.238078
H11   H     H_    0.187902 0.284421 0.629011 0.245732
H12   H     H_    0.285119 0.296488 0.546538 0.222865
C41   C     C_3   0.769083 0.334698 0.588035 -0.861366
H13   H     H_    0.816229 0.278492 0.618230 0.241185
H14   H     H_    0.741110 0.377185 0.668123 0.250113
H15   H     H_    0.714123 0.291469 0.531305 0.220232
C42   C     C_3   0.230913 0.665288 0.411940 -0.861358
H16   H     H_    0.183766 0.721491 0.381741 0.241182
H17   H     H_    0.285877 0.708522 0.468660 0.220230
H18   H     H_    0.258882 0.622794 0.331853 0.250115
C43   C     C_3   0.898339 0.206673 0.429580 -0.859846
H19   H     H_    0.907670 0.150876 0.491478 0.232981
H20   H     H_    0.826386 0.217879 0.411848 0.244550
H21   H     H_    0.920410 0.170529 0.343342 0.229869
C44   C     C_3   0.101663 0.793332 0.570394 -0.859845
H22   H     H_    0.173619 0.782132 0.588105 0.244546
H23   H     H_    0.092318 0.849124 0.508492 0.232986
H24   H     H_    0.079606 0.829479 0.656638 0.229863
C45   C     C_3   0.092031 0.207506 0.436350 -0.868048
H25   H     H_    0.064681 0.170210 0.348830 0.229317
H26   H     H_    0.163378 0.219225 0.423237 0.242803
H27   H     H_    0.084689 0.152448 0.498624 0.235448
C46   C     C_3   0.907969 0.792496 0.563644 -0.868039
H28   H     H_    0.935340 0.829825 0.651141 0.229322
H29   H     H_    0.915274 0.847530 0.501337 0.235441
H30   H     H_    0.836631 0.780765 0.576804 0.242797
C47   C     C_3   0.645676 0.819675 0.686438 -0.881757
H31   H     H_    0.712731 0.856967 0.687685 0.230036
H32   H     H_    0.624619 0.825288 0.776842 0.235957
H33   H     H_    0.655037 0.736459 0.649181 0.227503
C48   C     C_3   0.354326 0.180325 0.313562 -0.881744
H34   H     H_    0.287272 0.143026 0.312303 0.230039
H35   H     H_    0.344958 0.263538 0.350830 0.227499
H36   H     H_    0.375389 0.174725 0.223162 0.235956
C49   C     C_3   0.363593 0.948895 0.276437 -0.886827
H37   H     H_    0.335941 0.992070 0.208944 0.244083
H38   H     H_    0.405662 0.887712 0.229612 0.232928
H39   H     H_    0.307198 0.911290 0.312627 0.230180
C50   C     C_3   0.636414 0.051105 0.723558 -0.886825
H40   H     H_    0.664073 0.007930 0.791048 0.244082
H41   H     H_    0.692806 0.088712 0.687363 0.230179
H42   H     H_    0.594347 0.112287 0.770388 0.232927
H43   H     H_    0.415721 0.403706 0.790678 0.118477
H44   H     H_    0.584279 0.596294 0.209321 0.118474

loop_
_geom_bond_atom_site_label_1
_geom_bond_atom_site_label_2
_ccdc_geom_bond_type
C16   C21   A    
C16   H2    S    
C27   C29   A    
C11   C13   A    
C43   H19   S    
C17   N2    A    
C18   N1    A    
C30   C42   S    
C6    C9    A    
C45   H25   S    
C15   C22   A    
C44   H22   S    
C48   H34   S    
C19   C21   A    
C26   C40   S    
C12   H3    S    
C39   H8    S    
C24   O6    A    
C49   H37   S    
C40   H11   S    
C42   H17   S    
Cu2   N2    S    
C2    O2    A    
C13   C14   A    
C45   H26   S    
C7    C14   A    
C10   C47   S    
C41   H14   S    
C3    C45   S    
C24   C27   S    
C32   C38   A    
C47   H32   S    
C8    C50   S    
C41   H15   S    
C44   H23   S    
Cu1   O4    S    
C4    C35   A    
C50   H41   S    
C21   C22   A    
C43   H20   S    
C42   H16   S    
C25   C39   S    
C49   H38   S    
C23   O5    A    
C46   H29   S    
C1    C6    S    
C50   H40   S    
C17   H6    S    
C15   H1    S    
C5    C12   A    
C6    C11   A    
C19   N2    A    
C39   H9    S    
C4    C46   S    
C46   H28   S    
C31   C37   A    
C32   C34   A    
C40   H12   S    
Cu1   O8    S    
Cu2   O7    S    
C31   C33   A    
C33   C34   A    
C11   H4    S    
C23   C28   S    
C47   H33   S    
C1    O3    A    
C2    O4    A    
C25   C35   A    
C29   C41   S    
C16   C18   A    
Cu1   O1    S    
C12   C14   A    
C48   H36   S    
Cu2   O6    S    
C43   H21   S    
C2    C5    S    
C24   O8    A    
C18   H5    S    
C9    C48   S    
Cu1   Cu2   S    
C45   H27   S    
Cu1   N1    S    
C20   H43   S    
C46   H30   S    
C26   C36   A    
C15   C17   A    
C37   C43   S    
C49   H39   S    
C7    C49   S    
C8    C10   A    
C20   C22   A    
C23   O7    A    
C38   C44   S    
C25   C27   A    
Cu2   O3    S    
C26   C28   A    
C28   C30   A    
C5    C10   A    
C29   C31   A    
C30   C32   A    
C44   H24   S    
C39   H7    S    
Cu1   O5    S    
C3    C36   A    
Cu2   O2    S    
C33   C35   A    
C34   C36   A    
C8    C13   A    
C40   H10   S    
C20   N1    A    
C19   H44   S    
C7    C9    A    
C3    C37   A    
C48   H35   S    
C41   H13   S    
C50   H42   S    
C42   H18   S    
C47   H31   S    
C4    C38   A    
C1    O1    A    
