data_mof_unit_8955.cif
_audit_creation_date              2012-10-26T21:19:45-0400
_audit_creation_method            fapswitch 2.2
_symmetry_space_group_name_H-M    P1
_symmetry_Int_Tables_number       1
_space_group_crystal_system       triclinic
_cell_length_a                    10.94048
_cell_length_b                    15.034725
_cell_length_c                    13.917531
_cell_angle_alpha                 88.131686
_cell_angle_beta                  91.083653
_cell_angle_gamma                 90.224853
_cell_volume                      2287.61570472

loop_
_atom_site_label
_atom_site_type_symbol
_atom_type_description
_atom_site_fract_x
_atom_site_fract_y
_atom_site_fract_z
_atom_type_partial_charge
C1    C     C_R   0.503461 0.330018 0.500866 0.592379
C2    C     C_R   0.431092 0.814620 0.549614 -0.214702
C3    C     C_R   0.508994 0.233314 0.500071 -0.033266
C4    C     C_R   0.513444 0.766471 0.496655 -0.023127
C5    C     C_R   0.424933 0.187047 0.442611 0.213897
C6    C     C_R   0.608249 0.809572 0.446743 0.236059
C7    C     C_R   0.431539 0.093714 0.440018 0.256908
C8    C     C_R   0.615463 0.903398 0.446450 0.221881
C9    C     C_R   0.526800 0.048774 0.490873 0.072592
C10   C     C_R   0.527119 0.951407 0.495847 0.064769
C11   C     C_R   0.536322 0.574420 0.102960 0.152816
C12   C     C_R   0.503568 0.669943 0.498808 0.597944
C13   C     C_R   0.566933 0.438672 0.897566 0.242374
C14   C     C_R   0.528833 0.575814 0.204900 0.373863
C15   C     C_R   0.559666 0.434886 0.795337 0.380119
C16   C     C_R   0.262066 0.499592 0.499095 0.542904
C17   C     C_R   0.737578 0.504732 0.500295 0.605936
C18   C     C_R   0.469092 0.424530 0.211566 -0.008826
C19   C     C_R   0.435228 0.563002 0.786407 0.023584
C20   C     C_R   0.466559 0.422209 0.109544 0.245674
C21   C     C_R   0.427746 0.563621 0.887426 0.188495
C22   C     C_R   0.497894 0.499047 0.054202 0.124957
C23   C     C_R   0.871273 0.512495 0.498855 -0.009957
C24   C     C_R   0.495594 0.500262 0.945160 0.112722
C25   C     C_R   0.165141 0.421755 0.171238 0.219452
C26   C     C_R   0.867530 0.534303 0.844183 0.228238
C27   C     C_R   0.154217 0.466702 0.257808 -0.147182
C28   C     C_R   0.897393 0.507774 0.751074 -0.125150
C29   C     C_R   0.107809 0.423315 0.339753 0.011854
C30   C     C_R   0.884154 0.565846 0.671017 0.023160
C31   C     C_R   0.077316 0.332153 0.337405 0.298620
C32   C     C_R   0.834222 0.651108 0.680696 0.256284
C33   C     C_R   0.093922 0.285626 0.252700 0.310129
C34   C     C_R   0.128087 0.505162 0.497143 -0.055971
C35   C     C_R   0.797514 0.676909 0.773031 0.279916
C36   C     C_R   0.141382 0.329151 0.170480 0.240995
C37   C     C_R   0.819320 0.620642 0.854373 0.268513
C38   C     C_R   0.932423 0.490743 0.414239 0.255742
C39   C     C_R   0.067906 0.541287 0.575859 0.224668
C40   C     C_3   0.367828 0.023698 0.304636 -0.123634
C41   C     C_3   0.687959 0.969868 0.309270 -0.132604
C42   C     C_3   0.446901 0.709996 0.235456 -0.098797
C43   C     C_3   0.536906 0.287669 0.770317 -0.114314
C44   C     C_3   0.125427 0.541540 0.067840 -0.132121
C45   C     C_R   0.940026 0.539588 0.579758 -0.016616
C46   C     C_3   0.959550 0.407304 0.917810 -0.115776
C47   C     C_3   0.089188 0.259843 0.483914 -0.067217
C48   C     C_3   0.855049 0.792341 0.607830 -0.050722
C49   C     C_3   0.941762 0.188712 0.217152 -0.055483
C50   C     C_3   0.622303 0.755478 0.784941 -0.093411
C51   C     C_3   0.860603 0.548840 0.271510 -0.083592
C52   C     C_3   0.162066 0.664776 0.629218 -0.106205
C53   C     C_3   0.689180 0.037760 0.685153 -0.122433
C54   C     C_3   0.320913 0.921862 0.687574 -0.116009
C55   C     C_R   0.058423 0.477124 0.417322 -0.032512
C56   C     C_R   0.615023 0.096181 0.543306 0.259080
C57   C     C_R   0.436833 0.907549 0.550195 0.256983
C58   C     C_R   0.605935 0.188600 0.547024 -0.184832
Cu1   Cu    Cu3+1 0.500000 0.499990 0.596430 1.006930
Cu2   Cu    Cu3+1 0.500000 0.500010 0.403570 1.039838
H1    H     H_    0.442538 0.365642 0.252458 0.158399
H2    H     H_    0.413745 0.079079 0.263933 0.103293
H3    H     H_    0.282659 0.007557 0.264261 0.170588
H4    H     H_    0.630594 0.030566 0.303820 0.111374
H5    H     H_    0.643716 0.914435 0.270064 0.104671
H6    H     H_    0.774987 0.985747 0.272815 0.147470
H7    H     H_    0.623166 0.687738 0.092005 0.361550
H8    H     H_    0.698917 0.352020 0.909709 0.350679
H9    H     H_    0.461657 0.771875 0.275385 0.134657
H10   H     H_    0.363104 0.677020 0.264023 0.111969
H11   H     H_    0.431692 0.730117 0.158640 0.119274
H12   H     H_    0.385845 0.612584 0.743554 0.165702
H13   H     H_    0.573712 0.230779 0.732208 0.117483
H14   H     H_    0.440630 0.297889 0.745072 0.140729
H15   H     H_    0.538222 0.267724 0.847862 0.140464
H16   H     H_    0.415985 0.298046 0.111560 0.329663
H17   H     H_    0.344952 0.615571 0.994836 0.344762
H18   H     H_    0.027617 0.528862 0.084767 0.141096
H19   H     H_    0.160674 0.599647 0.107212 0.101631
H20   H     H_    0.128998 0.559080 0.989941 0.188314
H21   H     H_    0.049631 0.429966 0.890152 0.141212
H22   H     H_    0.918512 0.355045 0.872602 0.119277
H23   H     H_    0.174038 0.537219 0.259877 0.119294
H24   H     H_    0.975721 0.376462 0.990313 0.178944
H25   H     H_    0.163176 0.307672 0.502836 0.128132
H26   H     H_    0.128099 0.195266 0.463297 0.201666
H27   H     H_    0.035343 0.247020 0.549687 0.136632
H28   H     H_    0.927739 0.800219 0.664103 0.111489
H29   H     H_    0.775929 0.835489 0.622563 0.183236
H30   H     H_    0.893620 0.816457 0.538565 0.156289
H31   H     H_    0.929906 0.217574 0.142893 0.138208
H32   H     H_    0.877168 0.220387 0.266445 0.160956
H33   H     H_    0.917679 0.117077 0.214985 0.130169
H34   H     H_    0.934297 0.442519 0.739171 0.127024
H35   H     H_    0.586641 0.730803 0.715410 0.133760
H36   H     H_    0.585453 0.823294 0.793209 0.119989
H37   H     H_    0.588954 0.713214 0.846060 0.203189
H38   H     H_    0.952319 0.574792 0.251964 0.075434
H39   H     H_    0.808464 0.601888 0.306496 0.185970
H40   H     H_    0.811276 0.532747 0.203856 0.153233
H41   H     H_    0.078855 0.704466 0.612166 0.119378
H42   H     H_    0.224495 0.669620 0.567269 0.108924
H43   H     H_    0.208117 0.694559 0.692155 0.129529
H44   H     H_    0.599310 0.004363 0.696656 0.116164
H45   H     H_    0.675959 0.225619 0.584833 0.157348
H46   H     H_    0.693989 0.101167 0.723819 0.110035
H47   H     H_    0.760664 0.993074 0.716962 0.154896
H48   H     H_    0.402075 0.894618 0.727778 0.089273
H49   H     H_    0.248567 0.870355 0.680392 0.117663
H50   H     H_    0.282958 0.975480 0.730931 0.146770
H51   H     H_    0.293789 0.195390 0.345809 0.366438
H52   H     H_    0.757175 0.796760 0.372883 0.347636
H53   H     H_    0.361238 0.779459 0.589013 0.095274
H54   H     H_    0.188814 0.318265 0.036814 0.370746
H55   H     H_    0.819346 0.610638 0.994949 0.359695
H56   H     H_    0.425335 0.963069 0.307011 0.094230
N1    N     N_R   0.500000 0.500020 0.258690 -0.262504
N2    N     N_R   0.500000 0.499980 0.741310 -0.278897
O1    O     O_R   0.500010 0.371450 0.581430 -0.476797
O2    O     O_3   0.793729 0.653700 0.943229 -0.644969
O3    O     O_3   0.336318 0.046564 0.398411 -0.535963
O4    O     O_3   0.714764 0.947227 0.406442 -0.544601
O5    O     O_3   0.578637 0.646743 0.049334 -0.688270
O6    O     O_3   0.642571 0.382737 0.952323 -0.658752
O7    O     O_3   0.551014 0.655016 0.249300 -0.525458
O8    O     O_3   0.610154 0.363745 0.750212 -0.553745
O9    O     O_3   0.431883 0.346191 0.062966 -0.667418
O10   O     O_3   0.353844 0.627450 0.925153 -0.710048
O11   O     O_3   0.200092 0.466307 0.087131 -0.585756
O12   O     O_R   0.499990 0.628550 0.418570 -0.428789
O13   O     O_3   0.878088 0.478957 0.926572 -0.579361
O14   O     O_3   0.009686 0.293076 0.410658 -0.550145
O15   O     O_3   0.814949 0.703596 0.597534 -0.560634
O16   O     O_3   0.063777 0.196344 0.250511 -0.527591
O17   O     O_3   0.750772 0.760844 0.786075 -0.558372
O18   O     O_3   0.868435 0.470777 0.330630 -0.533087
O19   O     O_3   0.133563 0.575253 0.652462 -0.545486
O20   O     O_3   0.713328 0.052292 0.586766 -0.526142
O21   O     O_3   0.351098 0.958648 0.596430 -0.534569
O22   O     O_3   0.337873 0.235061 0.390021 -0.736881
O23   O     O_R   0.500010 0.371460 0.418560 -0.479066
O24   O     O_3   0.693398 0.758164 0.401862 -0.652058
O25   O     O_R   0.499990 0.628540 0.581440 -0.544128
O26   O     O_R   0.319640 0.500000 0.581430 -0.461504
O27   O     O_R   0.680360 0.500000 0.418570 -0.439496
O28   O     O_R   0.319640 0.500010 0.418560 -0.527600
O29   O     O_R   0.680360 0.499990 0.581440 -0.485744
O30   O     O_3   0.156907 0.279699 0.089658 -0.693854

loop_
_geom_bond_atom_site_label_1
_geom_bond_atom_site_label_2
_ccdc_geom_bond_type
C43   H13   S    
C49   O16   S    
C39   O19   S    
C52   H43   S    
C23   C45   A    
C27   C29   A    
C30   C45   S    
C17   O27   A    
C25   O11   S    
H8    O6    S    
C2    C57   A    
C8    O4    S    
C40   O3    S    
C52   H42   S    
C17   C23   S    
C40   H3    S    
C12   O12   A    
C47   H25   S    
C28   H34   S    
C35   C37   A    
C7    O3    S    
C50   O17   S    
C32   O15   S    
C2    H53   S    
C50   H35   S    
C53   H44   S    
C42   H10   S    
C33   C36   A    
C40   H2    S    
C54   H50   S    
C16   O28   A    
C1    O1    A    
H52   O24   S    
C42   O7    S    
C16   C34   S    
C46   H22   S    
C53   H46   S    
C36   O30   S    
C38   C55   A    
C19   N2    A    
C15   O8    S    
C48   H28   S    
C38   O18   S    
C6    O24   S    
C9    C10   S    
C39   C45   A    
C43   H14   S    
Cu1   O25   S    
C34   C55   A    
C48   H30   S    
C51   H39   S    
C19   H12   S    
Cu2   O28   S    
C49   H31   S    
C33   O16   S    
C43   O8    S    
H51   O22   S    
C43   H15   S    
C52   H41   S    
C34   C39   A    
C47   H26   S    
C48   O15   S    
C44   H20   S    
C10   C57   A    
C20   O9    S    
C4    C6    A    
Cu2   O12   S    
C46   O13   S    
C5    C7    A    
C13   O6    S    
C41   H5    S    
C29   C55   S    
C44   O11   S    
C42   H9    S    
C53   O20   S    
C54   H49   S    
C1    C3    S    
C47   H27   S    
C41   O4    S    
C2    C4    A    
C32   C35   A    
C31   O14   S    
Cu2   O23   S    
C46   H21   S    
C56   O20   S    
C51   O18   S    
C53   H47   S    
C54   O21   S    
C14   N1    A    
C31   C33   A    
C52   O19   S    
Cu2   N1    S    
C26   C37   A    
C9    C56   A    
C21   O10   S    
C17   O29   A    
C14   O7    S    
C18   N1    A    
H17   O10   S    
C46   H24   S    
C20   C22   A    
Cu1   O26   S    
Cu1   N2    S    
C48   H29   S    
C13   C15   A    
C22   C24   S    
C4    C12   S    
Cu2   O27   S    
C49   H32   S    
C35   O17   S    
C5    O22   S    
C51   H40   S    
C7    C9    A    
C50   H37   S    
Cu1   O1    S    
C16   O26   A    
C44   H19   S    
C11   O5    S    
C3    C5    A    
H7    O5    S    
C6    C8    A    
C15   N2    A    
C18   H1    S    
C41   H6    S    
C25   C27   A    
C23   C38   A    
C11   C22   A    
C26   C28   A    
C12   O25   A    
C54   H48   S    
C47   O14   S    
C58   H45   S    
C44   H18   S    
H54   O30   S    
C29   C31   A    
C30   C32   A    
C50   H36   S    
C40   H56   S    
C37   O2    S    
C51   H38   S    
C28   C30   A    
C42   H11   S    
C11   C14   A    
C56   C58   A    
C18   C20   A    
C57   O21   S    
C1    O23   A    
C25   C36   A    
C27   H23   S    
C3    C58   A    
Cu1   Cu2   S    
C13   C24   A    
C8    C10   A    
H55   O2    S    
C21   C24   A    
H16   O9    S    
C41   H4    S    
C49   H33   S    
C26   O13   S    
C19   C21   A    
Cu1   O29   S    
