data_mof_unit_57034.cif
_audit_creation_date              2012-12-11T16:45:49-0500
_audit_creation_method            fapswitch 2.2
_symmetry_space_group_name_H-M    P1
_symmetry_Int_Tables_number       1
_space_group_crystal_system       triclinic
_cell_length_a                    19.762332
_cell_length_b                    17.033272
_cell_length_c                    15.370231
_cell_angle_alpha                 89.99976
_cell_angle_beta                  52.71725
_cell_angle_gamma                 89.999801
_cell_volume                      4116.63108294

loop_
_atom_site_label
_atom_site_type_symbol
_atom_type_description
_atom_site_fract_x
_atom_site_fract_y
_atom_site_fract_z
_atom_type_partial_charge
C1    C     C_R   0.839733 0.673124 0.047363 -0.113394
C2    C     C_R   0.150399 0.310828 0.071011 0.160687
C3    C     C_R   0.349600 0.810829 0.928990 0.160686
C4    C     C_R   0.650402 0.810830 0.071010 0.160678
C5    C     C_R   0.887042 0.684229 0.305568 0.082726
C6    C     C_R   0.112976 0.684224 0.694421 0.082719
C7    C     C_R   0.387025 0.184225 0.305576 0.082720
C8    C     C_R   0.612963 0.184226 0.694429 0.082727
C9    C     C_R   0.847998 0.711213 0.488119 0.103031
C10   C     C_R   0.152038 0.711198 0.511862 0.103002
C11   C     C_R   0.347962 0.211198 0.488136 0.102999
C12   C     C_R   0.160266 0.673126 0.952642 -0.113405
C13   C     C_R   0.652015 0.211207 0.511874 0.103028
C14   C     C_R   0.868351 0.739790 0.389553 0.061651
C15   C     C_R   0.131673 0.739781 0.610430 0.061648
C16   C     C_R   0.368327 0.239782 0.389567 0.061649
C17   C     C_R   0.631656 0.239786 0.610442 0.061651
C18   C     C_R   0.356948 0.320251 0.381809 -0.204398
C19   C     C_R   0.643044 0.320252 0.618198 -0.204410
C20   C     C_R   0.856952 0.820255 0.381799 -0.204409
C21   C     C_R   0.143050 0.820251 0.618189 -0.204393
C22   C     C_R   0.308070 0.365486 0.477234 -0.165759
C23   C     C_R   0.339735 0.173126 0.047355 -0.113405
C24   C     C_R   0.691933 0.365484 0.522771 -0.165776
C25   C     C_R   0.808062 0.865486 0.477226 -0.165769
C26   C     C_R   0.191926 0.865487 0.522764 -0.165760
C27   C     C_R   0.270076 0.329606 0.579694 -0.021816
C28   C     C_R   0.729929 0.329605 0.420311 -0.021817
C29   C     C_R   0.770073 0.829606 0.579685 -0.021816
C30   C     C_R   0.229921 0.829608 0.420304 -0.021815
C31   C     C_R   0.799300 0.755268 0.582335 0.092903
C32   C     C_R   0.200713 0.755259 0.417650 0.092896
C33   C     C_R   0.299286 0.255258 0.582348 0.092897
C34   C     C_R   0.660267 0.173123 0.952635 -0.113389
C35   C     C_R   0.700712 0.255262 0.417659 0.092908
C36   C     C_3   0.751030 0.683944 0.649875 0.495824
C37   C     C_3   0.249003 0.683943 0.350103 0.495756
C38   C     C_3   0.250998 0.183941 0.649895 0.495774
C39   C     C_3   0.748992 0.183942 0.350119 0.495833
C40   C     C_R   0.849338 0.330321 0.218249 -0.169105
C41   C     C_R   0.150665 0.330324 0.781754 -0.169104
C42   C     C_R   0.349332 0.830327 0.218245 -0.169106
C43   C     C_R   0.650661 0.830318 0.781750 -0.169100
C44   C     C_3   0.805178 0.636117 0.546591 -0.679975
C45   C     C_R   0.808160 0.361010 0.322200 0.066109
C46   C     C_3   0.194890 0.636111 0.453387 -0.679855
C47   C     C_3   0.305112 0.136111 0.546610 -0.679866
C48   C     C_3   0.694842 0.136113 0.453402 -0.680001
C49   C     C_2   0.786628 0.183186 0.953627 -0.182483
C50   C     C_2   0.213384 0.183187 0.046338 -0.182500
C51   C     C_2   0.286619 0.683186 0.953654 -0.182492
C52   C     C_2   0.713371 0.683184 0.046369 -0.182483
C53   C     C_2   0.310635 0.752972 0.902897 -0.208893
C54   C     C_2   0.689368 0.752975 0.097106 -0.208878
C55   C     C_2   0.810625 0.252981 0.902899 -0.208867
C56   C     C_R   0.191843 0.361012 0.677803 0.066107
C57   C     C_2   0.189363 0.252969 0.097104 -0.208903
C58   C     C_R   0.866548 0.388317 0.895527 -0.168741
C59   C     C_R   0.133450 0.388314 0.104475 -0.168751
C60   C     C_R   0.366549 0.888315 0.895525 -0.168751
C61   C     C_R   0.633451 0.888316 0.104474 -0.168745
C62   C     C_R   0.907813 0.606962 0.302780 -0.139647
C63   C     C_R   0.092199 0.606959 0.697212 -0.139617
C64   C     C_R   0.407802 0.106960 0.302787 -0.139622
C65   C     C_R   0.592191 0.106961 0.697218 -0.139640
C66   C     C_R   0.877362 0.298376 0.990829 -0.109081
C67   C     C_R   0.308153 0.861016 0.322195 0.066109
C68   C     C_R   0.122631 0.298375 0.009177 -0.109036
C69   C     C_R   0.377369 0.798375 0.990824 -0.109035
C70   C     C_R   0.622636 0.798376 0.009172 -0.109059
C71   C     C_R   0.896577 0.698388 0.209932 -0.144665
C72   C     C_R   0.103432 0.698386 0.790062 -0.144670
C73   C     C_R   0.396569 0.198386 0.209936 -0.144669
C74   C     C_R   0.603426 0.198387 0.790065 -0.144670
C75   C     C_R   0.858841 0.420956 0.316043 -0.114936
C76   C     C_R   0.141161 0.420956 0.683956 -0.114934
C77   C     C_R   0.358836 0.920958 0.316042 -0.114934
C78   C     C_R   0.691837 0.861006 0.677798 0.066111
C79   C     C_R   0.641156 0.920954 0.683955 -0.114934
C80   C     C_R   0.829515 0.580302 0.951970 -0.124810
C81   C     C_R   0.170482 0.580303 0.048037 -0.124794
C82   C     C_R   0.329519 0.080303 0.951960 -0.124793
C83   C     C_R   0.670486 0.080301 0.048028 -0.124830
C84   C     C_R   0.788046 0.643914 0.022433 0.146766
C85   C     C_R   0.211950 0.643916 0.977577 0.146772
C86   C     C_R   0.288052 0.143916 0.022420 0.146776
C87   C     C_R   0.711954 0.143914 0.977564 0.146762
C88   C     C_3   0.714567 0.605326 0.793768 -0.278142
C89   C     C_R   0.849595 0.310832 0.928992 0.160678
C90   C     C_3   0.285559 0.605395 0.206108 -0.278068
C91   C     C_3   0.214459 0.105383 0.793876 -0.278232
C92   C     C_3   0.785474 0.105321 0.206223 -0.277994
H1    H     H_    0.830061 0.723781 0.095757 0.088869
H2    H     H_    0.317740 0.685747 0.314777 0.011023
H3    H     H_    0.182260 0.185742 0.685223 0.011028
H4    H     H_    0.817721 0.185732 0.314828 0.011012
H5    H     H_    0.849279 0.595099 0.545945 0.223034
H6    H     H_    0.150807 0.595063 0.454039 0.223061
H7    H     H_    0.349196 0.095064 0.545957 0.223061
H8    H     H_    0.650747 0.095092 0.454041 0.223022
H9    H     H_    0.767405 0.609517 0.522390 0.170323
H10   H     H_    0.232681 0.609544 0.477579 0.170306
H11   H     H_    0.267321 0.109542 0.522417 0.170308
H12   H     H_    0.169937 0.723785 0.904250 0.088874
H13   H     H_    0.732612 0.109516 0.477608 0.170335
H14   H     H_    0.810841 0.161530 0.996125 0.127358
H15   H     H_    0.189206 0.161546 0.003790 0.127441
H16   H     H_    0.310805 0.661540 0.996191 0.127428
H17   H     H_    0.689168 0.661532 0.003856 0.127383
H18   H     H_    0.288827 0.773788 0.857139 0.124816
H19   H     H_    0.711185 0.773798 0.142850 0.124805
H20   H     H_    0.788800 0.273809 0.857166 0.124801
H21   H     H_    0.211164 0.273780 0.142871 0.124821
H22   H     H_    0.826502 0.285867 0.192473 0.150097
H23   H     H_    0.330064 0.223788 0.095744 0.088874
H24   H     H_    0.173504 0.285872 0.807531 0.150017
H25   H     H_    0.326493 0.785877 0.192468 0.150015
H26   H     H_    0.673496 0.785863 0.807526 0.150071
H27   H     H_    0.862347 0.415015 0.835087 0.095147
H28   H     H_    0.137652 0.415009 0.164915 0.095158
H29   H     H_    0.362349 0.915011 0.835084 0.095157
H30   H     H_    0.637652 0.915012 0.164915 0.095149
H31   H     H_    0.922547 0.579145 0.352604 0.112334
H32   H     H_    0.077472 0.579143 0.647382 0.112315
H33   H     H_    0.422530 0.079143 0.352617 0.112315
H34   H     H_    0.669938 0.223779 0.904238 0.088868
H35   H     H_    0.577458 0.079144 0.647393 0.112333
H36   H     H_    0.885820 0.242788 0.016914 0.085164
H37   H     H_    0.114156 0.242789 0.983110 0.085044
H38   H     H_    0.385842 0.742789 0.016892 0.085037
H39   H     H_    0.614173 0.742789 0.983092 0.085134
H40   H     H_    0.897715 0.755157 0.177669 0.084581
H41   H     H_    0.102297 0.755156 0.822321 0.084587
H42   H     H_    0.397704 0.255156 0.177676 0.084586
H43   H     H_    0.602289 0.255156 0.822326 0.084583
H44   H     H_    0.846292 0.457606 0.381675 0.091883
H45   H     H_    0.291676 0.424814 0.471245 0.122410
H46   H     H_    0.153710 0.457604 0.618322 0.091888
H47   H     H_    0.346286 0.957606 0.381676 0.091889
H48   H     H_    0.653704 0.957604 0.618324 0.091878
H49   H     H_    0.808197 0.545539 0.914051 0.091518
H50   H     H_    0.191796 0.545540 0.085960 0.091515
H51   H     H_    0.308205 0.045542 0.914035 0.091517
H52   H     H_    0.691804 0.045537 0.085945 0.091539
H53   H     H_    0.376611 0.346001 0.305386 0.119842
H54   H     H_    0.623381 0.346000 0.694620 0.119844
H55   H     H_    0.876606 0.846003 0.305379 0.119840
H56   H     H_    0.708330 0.424810 0.528759 0.122411
H57   H     H_    0.123388 0.846000 0.694611 0.119841
H58   H     H_    0.719523 0.553018 0.746741 0.142185
H59   H     H_    0.647500 0.625829 0.849682 0.119414
H60   H     H_    0.734098 0.586580 0.844490 0.160098
H61   H     H_    0.280997 0.553166 0.253005 0.142023
H62   H     H_    0.352529 0.626126 0.149936 0.119446
H63   H     H_    0.265829 0.586423 0.155672 0.160131
H64   H     H_    0.219042 0.053161 0.746978 0.142072
H65   H     H_    0.147492 0.126089 0.850035 0.119484
H66   H     H_    0.234175 0.086421 0.844320 0.160149
H67   H     H_    0.791655 0.924810 0.471238 0.122405
H68   H     H_    0.780427 0.052966 0.253279 0.142178
H69   H     H_    0.852575 0.125797 0.150389 0.119348
H70   H     H_    0.766006 0.086645 0.155403 0.160087
H71   H     H_    0.208319 0.924816 0.528753 0.122411
H72   H     H_    0.682298 0.685726 0.685178 0.011012
N1    N     N_R   0.908660 0.628630 0.995840 -0.046790
N2    N     N_R   0.096530 0.421430 0.063580 -0.039006
N3    N     N_R   0.403470 0.921430 0.936420 -0.039006
N4    N     N_R   0.596530 0.921430 0.063580 -0.039003
N5    N     N_R   0.927500 0.575670 0.211370 -0.040216
N6    N     N_R   0.072500 0.575670 0.788630 -0.040218
N7    N     N_R   0.427500 0.075670 0.211370 -0.040217
N8    N     N_R   0.572500 0.075670 0.788630 -0.040216
N9    N     N_R   0.908660 0.365680 0.995820 -0.046541
N10   N     N_R   0.091340 0.365680 0.004180 -0.046540
N11   N     N_R   0.408660 0.865680 0.995820 -0.046540
N12   N     N_R   0.091340 0.628630 0.004160 -0.046789
N13   N     N_R   0.591340 0.865680 0.004180 -0.046541
N14   N     N_R   0.922310 0.631420 0.151980 -0.038718
N15   N     N_R   0.077690 0.631420 0.848020 -0.038718
N16   N     N_R   0.422310 0.131420 0.151980 -0.038718
N17   N     N_R   0.577690 0.131420 0.848020 -0.038718
N18   N     N_R   0.927500 0.426330 0.211360 -0.039929
N19   N     N_R   0.072500 0.426330 0.788640 -0.039930
N20   N     N_R   0.427500 0.926330 0.211360 -0.039931
N21   N     N_R   0.572500 0.926330 0.788640 -0.039929
N22   N     N_R   0.903470 0.570760 0.936440 -0.042174
N23   N     N_R   0.408660 0.128630 0.995840 -0.046790
N24   N     N_R   0.096530 0.570760 0.063560 -0.042177
N25   N     N_R   0.403470 0.070760 0.936440 -0.042178
N26   N     N_R   0.596530 0.070760 0.063560 -0.042172
N27   N     N_R   0.591340 0.128630 0.004160 -0.046790
N28   N     N_R   0.922310 0.368460 0.151950 -0.043659
N29   N     N_R   0.077690 0.368460 0.848050 -0.043655
N30   N     N_R   0.422310 0.868460 0.151950 -0.043657
N31   N     N_R   0.577690 0.868460 0.848050 -0.043658
N32   N     N_R   0.903470 0.421430 0.936420 -0.039003
Ni1   Ni    Ni4+2 0.000000 0.630300 0.000000 0.208813
Ni2   Ni    Ni4+2 0.500000 0.130300 0.000000 0.208813
Ni3   Ni    Ni4+2 0.000000 0.369700 0.000000 0.205013
Ni4   Ni    Ni4+2 0.500000 0.869700 0.000000 0.205010
Ni5   Ni    Ni4+2 0.988090 0.497570 0.863760 0.215859
Ni6   Ni    Ni4+2 0.011910 0.497570 0.136240 0.215857
Ni7   Ni    Ni4+2 0.488090 0.997570 0.863760 0.215858
Ni8   Ni    Ni4+2 0.511910 0.997570 0.136240 0.215858
O1    O     O_3   0.768581 0.666596 0.724267 -0.589642
O2    O     O_3   0.231426 0.666559 0.275745 -0.589610
O3    O     O_3   0.268575 0.166559 0.724252 -0.589599
O4    O     O_3   0.731454 0.166595 0.275715 -0.589672

loop_
_geom_bond_atom_site_label_1
_geom_bond_atom_site_label_2
_ccdc_geom_bond_type
C53   H18   S    
C92   H69   S    
C83   C87   A    
C21   C26   A    
N26   N27   A    
N20   Ni8   S    
C55   H20   S    
N9    Ni3   S    
C37   O2    S    
C49   C87   S    
C83   N26   A    
C11   C47   S    
C67   C77   A    
N27   Ni2   S    
C88   O1    S    
C80   C84   A    
C18   H53   S    
C51   C85   S    
C4    C70   A    
C63   H32   S    
C2    C57   S    
C7    C73   A    
C74   N17   A    
N25   Ni7   S    
C43   C78   A    
C6    C72   A    
C46   H10   S    
C22   H45   S    
N10   Ni3   S    
C59   H28   S    
C12   C85   A    
C56   C76   A    
C65   H35   S    
C71   N14   A    
C34   N27   A    
C3    C69   A    
C12   H12   S    
C2    C68   A    
C10   C15   A    
C83   H52   S    
N23   N25   A    
C20   C25   A    
N4    N13   A    
C26   H71   S    
C77   N20   A    
C47   H7    S    
C43   N31   A    
N2    Ni6   S    
N28   Ni3   S    
C58   N32   A    
N7    Ni8   S    
C42   N30   A    
C71   H40   S    
C91   H66   S    
C41   N29   A    
C17   C19   A    
C6    C15   S    
C90   O2    S    
C73   N16   A    
C77   H47   S    
N8    N17   A    
C40   H22   S    
C29   C78   S    
C28   C35   A    
C69   H38   S    
N6    Ni5   S    
C23   C86   A    
C9    C31   A    
C38   H3    S    
C25   H67   S    
N32   Ni5   S    
C66   N9    A    
C45   C75   A    
C21   H57   S    
C90   H62   S    
C76   N19   A    
N12   Ni1   S    
C81   N24   A    
C30   C67   S    
C12   N12   A    
C3    C60   A    
C79   H48   S    
C46   H6    S    
C8    C65   A    
N18   Ni6   S    
C39   O4    S    
N11   Ni4   S    
C88   H60   S    
C68   H37   S    
N18   N28   A    
N21   N31   A    
N17   Ni2   S    
C62   H31   S    
C52   C54   D    
N12   N24   A    
C66   C89   A    
C25   C29   A    
C40   C45   A    
C48   H8    S    
N30   Ni4   S    
C28   C45   S    
N2    N10   A    
C19   H54   S    
C47   H11   S    
C38   O3    S    
C65   N8    A    
N19   Ni5   S    
C14   C20   A    
C11   C33   A    
C24   H56   S    
C68   N10   A    
C78   C79   A    
C51   H16   S    
C63   N6    A    
C57   H21   S    
N23   Ni2   S    
C82   C86   A    
C4    C61   A    
N13   Ni4   S    
C27   C33   A    
N4    Ni8   S    
N22   Ni5   S    
C61   H30   S    
C1    C84   A    
C6    C63   A    
N8    Ni7   S    
C35   C39   S    
C9    C14   A    
C41   C56   A    
C10   C46   S    
C92   O4    S    
N1    Ni1   S    
C44   H5    S    
C48   H13   S    
C40   N28   A    
C1    N1    A    
C34   H34   S    
C74   H43   S    
N9    N32   A    
C8    C74   A    
C38   C47   S    
C20   H55   S    
C42   H25   S    
C16   C18   A    
C32   C37   S    
C27   C56   S    
C90   H61   S    
C5    C14   S    
C59   N2    A    
C1    H1    S    
C7    C16   S    
C2    C59   A    
N14   Ni1   S    
C64   H33   S    
N3    Ni7   S    
C37   H2    S    
C82   N25   A    
C50   H15   S    
C88   H59   S    
N29   Ni3   S    
N7    N16   A    
C36   C44   S    
C41   H24   S    
N5    N14   A    
N3    N11   A    
N31   Ni4   S    
C92   H70   S    
C62   N5    A    
N5    Ni6   S    
C81   H50   S    
C9    C44   S    
C7    C64   A    
C79   N21   A    
C4    C54   S    
C75   H44   S    
C50   C57   D    
C88   H58   S    
C24   C28   A    
C82   H51   S    
C60   N3    A    
C13   C48   S    
C91   O3    S    
C44   H9    S    
C70   N13   A    
C13   C35   A    
C49   H14   S    
C18   C22   A    
C76   H46   S    
C54   H19   S    
N15   Ni1   S    
C8    C17   S    
C23   N23   A    
C92   H68   S    
N6    N15   A    
C22   C27   A    
C61   N4    A    
N21   Ni7   S    
C64   N7    A    
C52   C84   S    
C19   C24   A    
C90   H63   S    
C91   H64   S    
C29   C31   A    
C49   C55   D    
C30   C32   A    
C3    C53   S    
N26   Ni8   S    
C72   H41   S    
C42   C67   A    
C52   H17   S    
N20   N30   A    
N24   Ni6   S    
C70   H39   S    
N19   N29   A    
C66   H36   S    
C5    C62   A    
C34   C87   A    
C60   H29   S    
C55   C89   S    
C58   C89   A    
C39   H4    S    
C91   H65   S    
C11   C16   A    
N16   Ni2   S    
C50   C86   S    
C43   H26   S    
C23   H23   S    
C13   C17   A    
C10   C32   A    
C15   C21   A    
C58   H27   S    
C73   H42   S    
C5    C71   A    
C80   H49   S    
C36   H72   S    
C80   N22   A    
C31   C36   S    
C39   C48   S    
C33   C38   S    
C69   N11   A    
C72   N15   A    
C51   C53   D    
C37   C46   S    
C75   N18   A    
C81   C85   A    
N1    N22   A    
C36   O1    S    
C26   C30   A    
