data_mof_unit_50733.cif
_audit_creation_date              2012-12-11T14:36:09-0500
_audit_creation_method            fapswitch 2.2
_symmetry_space_group_name_H-M    P1
_symmetry_Int_Tables_number       1
_space_group_crystal_system       triclinic
_cell_length_a                    13.476454
_cell_length_b                    13.490933
_cell_length_c                    27.501337
_cell_angle_alpha                 90.833259
_cell_angle_beta                  90.086496
_cell_angle_gamma                 60.061732
_cell_volume                      4332.27873591

loop_
_atom_site_label
_atom_site_type_symbol
_atom_type_description
_atom_site_fract_x
_atom_site_fract_y
_atom_site_fract_z
_atom_type_partial_charge
C1    C     C_R   0.620177 0.101467 0.570224 0.545679
C2    C     C_1   0.649045 0.705813 0.658582 -0.058977
C3    C     C_3   0.090707 0.133675 0.738120 -0.101884
C4    C     C_R   0.599542 0.779777 0.568836 0.545064
C5    C     C_3   0.182615 0.060254 0.776097 -0.100387
C6    C     C_1   0.096938 0.201124 0.901799 -0.016408
C7    C     C_1   0.229783 0.138281 0.617666 -0.016391
C8    C     C_3   0.055066 0.242173 0.769939 -0.101414
C9    C     C_3   0.147401 0.168579 0.807069 0.052755
C10   C     C_3   0.143845 0.263209 0.743305 -0.099094
C11   C     C_3   0.179091 0.155000 0.712253 0.052586
C12   C     C_1   0.630807 0.732865 0.616541 -0.016345
C13   C     C_3   0.235713 0.189878 0.781133 -0.101820
C14   C     C_3   0.271457 0.081363 0.749359 -0.102929
C15   C     C_1   0.124713 0.181869 0.859557 -0.058882
C16   C     C_R   0.277795 0.121908 0.569733 0.544998
C17   C     C_1   0.201844 0.147282 0.659831 -0.059111
C18   C     C_3   0.628811 0.277334 0.740154 -0.101805
C19   C     C_3   0.554815 0.258819 0.778124 -0.099974
C20   C     C_1   0.691479 0.207639 0.902956 -0.015849
C21   C     C_1   0.635187 0.133782 0.618386 -0.016585
C22   C     C_3   0.736961 0.204771 0.771048 -0.101481
C23   C     C_3   0.699085 0.561508 0.767703 -0.101520
C24   C     C_3   0.662808 0.185986 0.808183 0.052863
C25   C     C_3   0.758480 0.094980 0.743372 -0.099230
C26   C     C_3   0.650577 0.167692 0.713248 0.052601
C27   C     C_3   0.684568 0.076412 0.781225 -0.102058
C28   C     C_R   0.622095 0.098864 0.430978 0.546582
C29   C     C_3   0.576390 0.148908 0.750358 -0.102997
C30   C     C_1   0.674565 0.196597 0.860704 -0.058673
C31   C     C_1   0.643487 0.152790 0.660707 -0.059160
C32   C     C_R   0.736482 0.702141 0.359861 -0.137660
C33   C     C_R   0.748772 0.683673 0.309557 0.016320
C34   C     C_3   0.679244 0.654863 0.805567 0.052774
C35   C     C_R   0.763480 0.662062 0.207764 0.016218
C36   C     C_R   0.853436 0.659521 0.234480 -0.132934
C37   C     C_R   0.845785 0.671051 0.285122 -0.135121
C38   C     C_R   0.773248 0.641945 0.157566 -0.136781
C39   C     C_R   0.684348 0.638729 0.132195 -0.005300
C40   C     C_R   0.602219 0.775241 0.430502 0.546334
C41   C     C_R   0.555527 0.703112 0.356969 -0.129216
C42   C     C_R   0.562906 0.692220 0.306878 0.013782
C43   C     C_R   0.659029 0.684072 0.282863 0.065402
C44   C     C_R   0.472210 0.696262 0.280400 -0.132267
C45   C     C_3   0.589714 0.649126 0.740879 -0.099244
C46   C     C_R   0.475742 0.694064 0.229957 -0.133042
C47   C     C_R   0.571952 0.683410 0.205748 0.013866
C48   C     C_R   0.664592 0.677334 0.232103 0.065117
C49   C     C_R   0.580299 0.670250 0.155710 -0.130430
C50   C     C_R   0.636849 0.717840 0.383113 -0.003663
C51   C     C_R   0.217140 0.054518 0.357780 -0.134129
C52   C     C_R   0.277517 0.120673 0.431190 0.547787
C53   C     C_R   0.189724 0.068939 0.308367 0.014521
C54   C     C_R   0.149284 0.095355 0.207792 0.015469
C55   C     C_R   0.173256 0.992878 0.230063 -0.126167
C56   C     C_3   0.662990 0.684216 0.710903 0.052698
C57   C     C_R   0.194355 0.979397 0.280002 -0.125024
C58   C     C_R   0.125161 0.111389 0.158084 -0.133488
C59   C     C_R   0.099814 0.215350 0.136761 -0.002971
C60   C     C_R   0.178994 0.250580 0.363819 -0.128552
C61   C     C_R   0.155794 0.264835 0.314502 0.013589
C62   C     C_R   0.162909 0.173206 0.286386 0.062465
C63   C     C_R   0.132224 0.367154 0.292464 -0.125353
C64   C     C_3   0.772240 0.596987 0.736950 -0.101574
C65   C     C_R   0.117966 0.378042 0.242427 -0.124349
C66   C     C_R   0.124158 0.287884 0.214207 0.012266
C67   C     C_3   0.570083 0.742027 0.779461 -0.101937
C68   C     C_R   0.145550 0.185332 0.236101 0.062365
C69   C     C_R   0.104923 0.300683 0.164619 -0.127569
C70   C     C_R   0.217007 0.143664 0.384920 -0.005000
C71   C     C_R   0.570311 0.237648 0.363334 -0.133771
C72   C     C_R   0.575539 0.256272 0.313659 0.015758
C73   C     C_R   0.585436 0.289399 0.213412 0.013047
C74   C     C_R   0.511544 0.381240 0.243905 -0.126867
C75   C     C_R   0.505715 0.364489 0.293662 -0.127417
C76   C     C_3   0.752639 0.689930 0.775662 -0.100318
C77   C     C_R   0.597923 0.306132 0.164219 -0.134925
C78   C     C_3   0.643162 0.777583 0.748758 -0.102959
C79   C     C_R   0.677193 0.213977 0.135111 -0.004794
C80   C     C_R   0.720777 0.039478 0.352188 -0.126720
C81   C     C_R   0.723499 0.055279 0.302700 0.010196
C82   C     C_R   0.650528 0.163810 0.283150 0.062481
C83   C     C_R   0.796026 0.962968 0.272370 -0.125868
C84   C     C_R   0.796580 0.977819 0.222540 -0.126082
C85   C     C_R   0.726853 0.085974 0.202828 0.013649
C86   C     C_R   0.653340 0.179622 0.233052 0.062701
C87   C     C_R   0.735208 0.103283 0.153813 -0.128853
C88   C     C_1   0.697194 0.607834 0.900125 -0.016607
C89   C     C_1   0.688195 0.633824 0.857945 -0.059200
C90   C     C_R   0.641659 0.128666 0.382445 -0.001277
C91   C     C_R   0.049290 0.236135 0.949752 0.545466
C92   C     C_R   0.711625 0.562849 0.948154 0.544734
C93   C     C_R   0.722196 0.225383 0.950906 0.544437
C94   C     C_R   0.047135 0.246035 0.088767 0.547459
C95   C     C_R   0.707405 0.575964 0.086120 0.546349
C96   C     C_R   0.718142 0.234358 0.089293 0.547847
Cr1   Cr    Cr6+3 0.417550 0.169090 0.500530 1.021757
Cr2   Cr    Cr6+3 0.669180 0.913420 0.499920 1.019984
Cr3   Cr    Cr6+3 0.413260 0.917540 0.499520 1.019928
Cr4   Cr    Cr6+3 0.909170 0.177380 0.020380 1.021035
Cr5   Cr    Cr6+3 0.912710 0.429210 0.018220 1.019699
Cr6   Cr    Cr6+3 0.657170 0.432570 0.019030 1.020234
H1    H     H_    0.819269 0.707137 0.790561 0.103861
H2    H     H_    0.803388 0.227729 0.780129 0.099380
H3    H     H_    0.853080 0.619499 0.139220 0.118983
H4    H     H_    0.855112 0.537129 0.719014 0.103054
H5    H     H_    0.800192 0.711882 0.380176 0.116335
H6    H     H_    0.929507 0.648566 0.216221 0.091955
H7    H     H_    0.915537 0.670138 0.305143 0.093013
H8    H     H_    0.510134 0.671062 0.135976 0.127930
H9    H     H_    0.404762 0.697536 0.209931 0.094978
H10   H     H_    0.397799 0.703144 0.298687 0.092387
H11   H     H_    0.479448 0.712625 0.374807 0.128434
H12   H     H_    0.295576 0.212555 0.799229 0.103164
H13   H     H_    0.121378 0.045379 0.136573 0.119261
H14   H     H_    0.245866 0.971948 0.374097 0.123494
H15   H     H_    0.176327 0.923072 0.208850 0.100882
H16   H     H_    0.620080 0.866826 0.740372 0.100419
H17   H     H_    0.214564 0.898998 0.296409 0.099262
H18   H     H_    0.085222 0.381409 0.148566 0.129788
H19   H     H_    0.101499 0.457101 0.225820 0.098307
H20   H     H_    0.127412 0.437688 0.313756 0.100398
H21   H     H_    0.176924 0.320274 0.384829 0.129012
H22   H     H_    0.552625 0.391768 0.149687 0.126244
H23   H     H_    0.127438 0.346807 0.729309 0.103981
H24   H     H_    0.508897 0.306357 0.386694 0.116396
H25   H     H_    0.459024 0.466038 0.229352 0.105997
H26   H     H_    0.447735 0.436327 0.316557 0.103088
H27   H     H_    0.794924 0.031750 0.131121 0.126789
H28   H     H_    0.487152 0.801883 0.797360 0.103101
H29   H     H_    0.853800 0.905583 0.199625 0.104042
H30   H     H_    0.852332 0.879438 0.287233 0.105743
H31   H     H_    0.775278 0.954593 0.366425 0.131325
H32   H     H_    0.523039 0.631893 0.726046 0.104080
H33   H     H_    0.722078 0.472288 0.776080 0.098615
H34   H     H_    0.965676 0.308683 0.778969 0.099287
H35   H     H_    0.198981 0.976739 0.790167 0.103849
H36   H     H_    0.030841 0.111071 0.719981 0.102961
H37   H     H_    0.360863 0.014943 0.740298 0.100549
H38   H     H_    0.470984 0.325827 0.793002 0.104164
H39   H     H_    0.606371 0.359680 0.722813 0.102418
H40   H     H_    0.510044 0.125857 0.741245 0.100467
H41   H     H_    0.707074 0.994007 0.798529 0.102939
H42   H     H_    0.842381 0.027941 0.728554 0.104060
O1    O     O_R   0.301710 0.195650 0.554160 -0.508482
O2    O     O_R   0.635520 0.542770 0.964420 -0.507952
O3    O     O_R   0.665950 0.325030 0.970100 -0.494858
O4    O     O_R   0.522390 0.158990 0.550460 -0.495215
O5    O     O_R   0.816620 0.158530 0.074540 -0.519487
O6    O     O_R   0.004460 0.188870 0.069750 -0.499182
O7    O     O_R   0.025800 0.341780 0.072300 -0.523227
O8    O     O_R   0.807650 0.528950 0.067500 -0.502503
O9    O     O_R   0.633420 0.550490 0.071810 -0.523401
O10   O     O_R   0.664000 0.332180 0.069640 -0.501686
O11   O     O_3   0.826350 0.346390 0.019210 -0.243429
O12   O     O_R   0.658900 0.818120 0.449760 -0.502591
O13   O     O_R   0.694390 0.003530 0.554040 -0.506756
O14   O     O_R   0.657700 0.819660 0.549320 -0.495221
O15   O     O_R   0.501930 0.803280 0.552920 -0.507817
O16   O     O_R   0.318170 0.023580 0.549580 -0.494653
O17   O     O_R   0.303010 0.193990 0.446760 -0.520065
O18   O     O_R   0.523600 0.157450 0.450900 -0.498573
O19   O     O_R   0.695690 0.001860 0.446640 -0.523049
O20   O     O_R   0.503220 0.801620 0.445520 -0.524039
O21   O     O_R   0.319370 0.022040 0.450020 -0.502172
O22   O     O_3   0.499990 0.000010 0.499990 -0.243879
O23   O     O_R   0.818720 0.150820 0.967160 -0.508652
O24   O     O_R   0.006410 0.181720 0.970200 -0.495479
O25   O     O_R   0.027890 0.334070 0.964920 -0.506801
O26   O     O_R   0.809600 0.521790 0.967960 -0.495683

loop_
_geom_bond_atom_site_label_1
_geom_bond_atom_site_label_2
_ccdc_geom_bond_type
C66   C68   A    
C20   C93   S    
C63   C65   A    
C1    C21   S    
C23   C45   S    
Cr3   O15   S    
C4    O15   A    
C27   C29   S    
C41   C42   A    
C35   C36   A    
C18   C26   S    
C24   C27   S    
C9    C15   S    
C2    C12   T    
C79   C87   A    
Cr2   O19   S    
C28   O18   A    
C47   C49   A    
C20   C30   T    
C85   C86   A    
C8    H34   S    
C21   C31   T    
C45   H32   S    
Cr4   O23   S    
C36   C37   A    
C78   H16   S    
C76   C78   S    
C18   C19   S    
C55   H15   S    
C38   C39   A    
Cr6   O3    S    
C11   C14   S    
C66   C69   A    
C54   C68   A    
Cr5   O11   S    
C6    C91   S    
C56   C78   S    
C75   H26   S    
C73   C74   A    
C61   C63   A    
C9    C13   S    
C4    O14   A    
C13   C14   S    
C6    C15   T    
C54   C55   A    
C96   O10   A    
Cr2   O14   S    
C45   C56   S    
C92   O26   A    
C8    C9    S    
C7    C17   T    
C22   C25   S    
C45   C67   S    
C27   H41   S    
C56   C64   S    
C71   H24   S    
Cr5   O25   S    
C59   C94   S    
C65   H19   S    
C4    C12   S    
C10   H23   S    
C43   C48   A    
Cr6   O10   S    
C37   H7    S    
C13   H12   S    
C52   O17   A    
C57   H17   S    
Cr3   O22   S    
C88   C89   T    
C76   H1    S    
C85   C87   A    
C26   C31   S    
C46   H9    S    
C67   C78   S    
C42   C44   A    
C72   C75   A    
C35   C48   A    
C81   C83   A    
C44   C46   A    
C81   C82   A    
C77   C79   A    
C79   C96   S    
Cr2   O12   S    
C36   H6    S    
C74   C75   A    
C91   O25   A    
C92   O2    A    
C33   C43   A    
C47   C48   A    
C88   C92   S    
C91   O24   A    
C35   C38   A    
C3    C11   S    
C84   C85   A    
C84   H29   S    
C3    C8    S    
C53   C57   A    
C19   H38   S    
Cr4   O6    S    
C58   C59   A    
C82   C86   A    
Cr5   O7    S    
C33   C37   A    
C80   H31   S    
C60   C61   A    
C95   O9    A    
C60   H21   S    
C5    C9    S    
C52   O21   A    
C53   C62   A    
C74   H25   S    
Cr2   O13   S    
C60   C70   A    
C23   C34   S    
C39   C95   S    
C64   C76   S    
Cr5   O26   S    
C3    H36   S    
C14   H37   S    
C64   H4    S    
Cr6   O9    S    
C32   C50   A    
C5    C14   S    
Cr2   O22   S    
C59   C69   A    
C44   H10   S    
Cr4   O11   S    
C23   C64   S    
C51   C70   A    
C65   C66   A    
Cr1   O17   S    
C55   C57   A    
C58   H13   S    
C72   C82   A    
Cr1   O4    S    
C22   C24   S    
C83   C84   A    
C25   H42   S    
C94   O6    A    
C42   C43   A    
C29   H40   S    
C19   C29   S    
C41   C50   A    
C63   H20   S    
C54   C58   A    
C46   C47   A    
C7    C16   S    
Cr5   O8    S    
C39   C49   A    
C18   C22   S    
Cr1   O1    S    
C18   H39   S    
C40   O12   A    
C41   H11   S    
C80   C81   A    
C3    C5    S    
C10   C13   S    
C11   C17   S    
C34   C67   S    
C5    H35   S    
C23   H33   S    
Cr4   O5    S    
C25   C27   S    
C69   H18   S    
C51   H14   S    
C62   C68   A    
Cr4   O24   S    
C32   C33   A    
C87   H27   S    
C38   H3    S    
C1    O13   A    
C19   C24   S    
C94   O7    A    
C22   H2    S    
C83   H30   S    
C77   H22   S    
C2    C56   S    
C25   C26   S    
C32   H5    S    
C71   C90   A    
C40   C50   S    
C96   O5    A    
C93   O3    A    
C80   C90   A    
C61   C62   A    
C24   C30   S    
C73   C86   A    
C34   C89   S    
C52   C70   S    
C10   C11   S    
Cr3   O20   S    
C67   H28   S    
C71   C72   A    
C16   O16   A    
C93   O23   A    
C26   C29   S    
C8    C10   S    
Cr1   O18   S    
C73   C77   A    
C16   O1    A    
C1    O4    A    
C28   C90   S    
C95   O8    A    
C51   C53   A    
C40   O20   A    
Cr3   O16   S    
Cr6   O11   S    
Cr6   O2    S    
Cr1   O22   S    
C28   O19   A    
C34   C76   S    
C49   H8    S    
Cr3   O21   S    
