data_mof_unit_21866.cif
_audit_creation_date              2013-03-05T16:06:16-0500
_audit_creation_method            fapswitch 2.2
_symmetry_space_group_name_H-M    P1
_symmetry_Int_Tables_number       1
_space_group_crystal_system       triclinic
_cell_length_a                    10.816479
_cell_length_b                    9.506397
_cell_length_c                    27.864423
_cell_angle_alpha                 90.000115
_cell_angle_beta                  90.141381
_cell_angle_gamma                 90.000561
_cell_volume                      2865.17128963

loop_
_atom_site_label
_atom_site_type_symbol
_atom_site_description
_atom_site_fract_x
_atom_site_fract_y
_atom_site_fract_z
_atom_type_partial_charge
O1    O     O_R   0.319640 0.618740 0.500000 -0.596705
O2    O     O_R   0.680360 0.381260 0.500000 -0.589220
O3    O     O_R   0.680360 0.618740 0.500000 -0.592806
O4    O     O_R   0.319640 0.381260 0.500000 -0.581521
C1    C     C_R   0.262043 0.500005 0.499963 0.856965
C2    C     C_R   0.737957 0.500009 0.500113 0.862084
O5    O     O_R   0.500020 0.618770 0.430260 -0.571172
O6    O     O_R   0.499980 0.381230 0.569740 -0.565699
O7    O     O_R   0.499980 0.618770 0.569740 -0.574797
O8    O     O_R   0.500020 0.381230 0.430260 -0.569319
C3    C     C_R   0.500169 0.499939 0.407448 0.888487
C4    C     C_R   0.499581 0.499938 0.592544 0.880630
Cu1   Cu    Cu3+1 0.500000 0.640660 0.500000 0.997205
Cu2   Cu    Cu3+1 0.500000 0.359340 0.500000 1.004867
C5    C     C_R   0.389132 0.451193 0.178189 0.566016
C6    C     C_R   0.608116 0.450204 0.821790 0.566838
O9    O     O_2   0.288393 0.421073 0.204614 -0.525931
O10   O     O_2   0.708862 0.419924 0.795390 -0.525908
N1    N     N_R   0.497255 0.482739 0.201510 -0.447427
N2    N     N_R   0.500072 0.481920 0.798443 -0.447147
C7    C     C_R   0.604978 0.502459 0.176991 0.593688
C8    C     C_R   0.392301 0.501660 0.822930 0.592990
C9    C     C_R   0.566825 0.394291 0.279151 -0.130699
C10   C     C_R   0.430827 0.394190 0.720653 -0.126989
C11   C     C_R   0.572489 0.398841 0.329138 -0.062772
C12   C     C_R   0.425633 0.399045 0.670695 -0.059082
C13   C     C_R   0.427982 0.598190 0.328183 -0.119363
C14   C     C_R   0.570611 0.598042 0.671961 -0.119293
C15   C     C_R   0.430377 0.597736 0.277289 -0.040661
C16   C     C_R   0.567547 0.597423 0.722844 -0.041400
C17   C     C_R   0.498443 0.492741 0.253127 0.256130
C18   C     C_R   0.499131 0.492370 0.746836 0.253256
C19   C     C_R   0.495712 0.468599 0.101662 -0.076832
C20   C     C_R   0.501460 0.467920 0.898288 -0.076891
C21   C     C_R   0.383706 0.449906 0.127277 -0.032632
C22   C     C_R   0.613476 0.448998 0.872699 -0.032982
C23   C     C_R   0.272017 0.430605 0.100976 0.157792
C24   C     C_R   0.725122 0.429640 0.899020 0.158111
C25   C     C_R   0.607036 0.491534 0.126962 -0.014815
C26   C     C_R   0.390170 0.490822 0.872962 -0.014089
C27   C     C_R   0.500531 0.499313 0.354293 -0.189502
C28   C     C_R   0.498345 0.499289 0.645687 -0.194116
C29   C     C_R   0.385776 0.471058 0.974231 0.064581
C30   C     C_R   0.611360 0.471158 0.025714 0.064579
C31   C     C_R   0.612395 0.456998 0.974967 0.000596
C32   C     C_R   0.384731 0.457304 0.024994 0.000626
C33   C     C_R   0.499964 0.464854 0.949259 0.072753
C34   C     C_R   0.497177 0.465228 0.050693 0.072804
C35   C     C_R   0.276448 0.494167 0.947598 -0.207798
C36   C     C_R   0.720709 0.494420 0.052317 -0.207727
C37   C     C_R   0.279025 0.505169 0.897995 -0.136434
C38   C     C_R   0.718167 0.505722 0.101909 -0.136065
O11   O     O_2   0.287358 0.532505 0.798789 -0.516646
O12   O     O_2   0.709972 0.533298 0.201100 -0.514229
C39   C     C_R   0.274550 0.435314 0.050764 -0.192079
C40   C     C_R   0.722561 0.434649 0.949226 -0.192121
H1    H     H_    0.377920 0.315626 0.739938 0.187873
H2    H     H_    0.619476 0.315745 0.259749 0.183052
H3    H     H_    0.192745 0.524572 0.879285 0.187642
H4    H     H_    0.804469 0.525179 0.120598 0.187774
H5    H     H_    0.187742 0.510339 0.964306 0.136595
H6    H     H_    0.809407 0.510461 0.035585 0.136585
H7    H     H_    0.188649 0.416505 0.032123 0.137983
H8    H     H_    0.808421 0.415809 0.967892 0.138023
C41   C     C_R   0.063899 0.372151 0.500404 -0.131506
C42   C     C_R   0.936098 0.627892 0.499798 -0.157002
C43   C     C_R   0.936105 0.372156 0.500484 -0.166914
C44   C     C_R   0.063895 0.627889 0.499679 -0.164304
H9    H     H_    0.112013 0.272208 0.500678 0.153120
H10   H     H_    0.887979 0.727833 0.499586 0.146800
H11   H     H_    0.887990 0.272216 0.500784 0.145667
H12   H     H_    0.112012 0.727827 0.499323 0.146253
C45   C     C_R   0.871768 0.500022 0.500155 0.007830
C46   C     C_R   0.128231 0.500017 0.499995 0.006901
C47   C     C_R   0.418074 0.074480 0.472253 0.009648
C48   C     C_R   0.582061 0.925600 0.527666 0.009845
C49   C     C_R   0.581926 0.074482 0.527748 0.002309
C50   C     C_R   0.417933 0.925601 0.472339 0.011431
H13   H     H_    0.352533 0.130658 0.450000 0.133324
H14   H     H_    0.647899 0.869538 0.549718 0.137337
H15   H     H_    0.647466 0.130663 0.550001 0.134951
H16   H     H_    0.352078 0.869542 0.450298 0.137008
N3    N     N_R   0.500000 0.852070 0.500000 -0.176537
N4    N     N_R   0.500000 0.147930 0.500000 -0.173201
C51   C     C_2   0.347536 0.699456 0.354011 0.915294
O13   O     O_2   0.359968 0.825935 0.347614 -0.568064
O14   O     O_R   0.257422 0.649264 0.385567 -0.760559
H17   H     H_    0.206969 0.727613 0.400526 0.323272
C52   C     C_2   0.651400 0.699371 0.646316 0.914926
O15   O     O_2   0.638939 0.825832 0.652747 -0.570742
O16   O     O_R   0.741810 0.649267 0.614870 -0.758896
H18   H     H_    0.792379 0.727662 0.599995 0.322496
C53   C     C_2   0.361368 0.704457 0.248742 0.926872
O17   O     O_2   0.254391 0.733616 0.258788 -0.537987
O18   O     O_R   0.418459 0.769349 0.209590 -0.748799
H19   H     H_    0.361969 0.838393 0.192566 0.340288
C54   C     C_2   0.636282 0.703970 0.751566 0.926404
O19   O     O_2   0.743376 0.733133 0.741715 -0.539500
O20   O     O_R   0.578786 0.768685 0.790665 -0.749330
H20   H     H_    0.635113 0.837620 0.807820 0.340213
C55   C     C_3   0.147560 0.408333 0.124469 -0.711642
H21   H     H_    0.071365 0.398980 0.097846 0.188079
H22   H     H_    0.148284 0.309280 0.145560 0.265604
H23   H     H_    0.124814 0.499396 0.147781 0.266241
C56   C     C_3   0.849565 0.407015 0.875557 -0.712705
H24   H     H_    0.925712 0.397566 0.902195 0.188202
H25   H     H_    0.848689 0.307897 0.854500 0.265391
H26   H     H_    0.872499 0.497955 0.852216 0.266118
C57   C     C_2   0.338592 0.301063 0.646436 0.888013
O21   O     O_2   0.276396 0.340872 0.612324 -0.595898
O22   O     O_R   0.324055 0.164283 0.664024 -0.733888
H27   H     H_    0.261586 0.107787 0.644876 0.344590
C58   C     C_2   0.659782 0.301375 0.353498 0.895935
O23   O     O_2   0.671237 0.180626 0.339002 -0.561287
O24   O     O_R   0.732572 0.348950 0.391729 -0.758547
H28   H     H_    0.788916 0.273026 0.404996 0.333286

loop_
_geom_bond_atom_site_label_1
_geom_bond_atom_site_label_2
_geom_bond_distance
_ccdc_geom_bond_type
C9    H2    1.084280 S    
C42   C44   1.382326 A    
O14   H17   1.013622 S    
C55   H21   1.111057 S    
C13   C15   1.418431 A    
O22   H27   1.013848 S    
Cu2   N4    2.009748 S    
O3    C2    1.289227 A    
N1    C17   1.441443 S    
C54   O19   1.222955 D    
C51   O13   1.222961 D    
C5    N1    1.369729 A    
C56   H25   1.110015 S    
C16   C54   1.488699 S    
C29   C32   1.420602 A    
C53   O17   1.222991 D    
C23   C55   1.513237 S    
O1    C1    1.289254 A    
C21   C23   1.423317 A    
C10   C12   1.393819 A    
C57   O22   1.398581 S    
C7    O12   1.350265 S    
C47   N4    1.366454 A    
C44   C46   1.400720 A    
O24   H28   1.013864 S    
C1    C46   1.447375 S    
C13   C51   1.484907 S    
C13   C27   1.423330 A    
O7    Cu1   1.954376 S    
C38   H4    1.083680 S    
C50   N3    1.366487 A    
O18   H19   1.013774 S    
C31   C40   1.408457 A    
C10   H1    1.084238 S    
C41   C43   1.382288 A    
C39   H7    1.078277 S    
C32   C39   1.408484 A    
C36   C38   1.386382 A    
C40   H8    1.078281 S    
C14   C52   1.484990 S    
C43   C45   1.400675 A    
C52   O16   1.398293 S    
C20   C22   1.418816 A    
O3    Cu1   1.961960 S    
C6    N2    1.369731 A    
C51   O14   1.398248 S    
C25   C38   1.398056 A    
C53   O18   1.398358 S    
Cu1   Cu2   2.674340 S    
O2    C2    1.289366 A    
C48   N3    1.366509 A    
C5    C21   1.419766 A    
C54   O20   1.398408 S    
C8    O11   1.350252 S    
C31   C33   1.411855 A    
C56   H26   1.110274 S    
C32   C34   1.411894 A    
C35   H5    1.078515 S    
C4    C28   1.480911 S    
C16   C18   1.412207 A    
C48   C49   1.415330 A    
O8    Cu2   1.954376 S    
C11   C27   1.418477 A    
O16   H18   1.013656 S    
C29   C35   1.411764 A    
C49   N4    1.366463 A    
C35   C37   1.386471 A    
C47   C50   1.415308 A    
C42   C45   1.400690 A    
C41   C46   1.400677 A    
C44   H12   1.083319 S    
C9    C17   1.395062 A    
O5    C3    1.296208 A    
C10   C18   1.395174 A    
C11   C58   1.485806 S    
C50   H16   1.080019 S    
O20   H20   1.013754 S    
C7    C25   1.398122 A    
C49   H15   1.081709 S    
O6    C4    1.295092 A    
C8    C26   1.398173 A    
C24   C40   1.400130 A    
C19   C25   1.410762 A    
C12   C57   1.485860 S    
N2    C8    1.365123 A    
C55   H23   1.110270 S    
C36   H6    1.078547 S    
C20   C26   1.410767 A    
C37   H3    1.083682 S    
C30   C31   1.420488 A    
C12   C28   1.419483 A    
C2    C45   1.447365 S    
C58   O23   1.223277 D    
N2    C18   1.441451 S    
C30   C36   1.411734 A    
C5    O9    1.347367 S    
O6    Cu2   1.954375 S    
N1    C7    1.365103 A    
C48   H14   1.080084 S    
O4    C1    1.289343 A    
C26   C37   1.398044 A    
C56   H24   1.111038 S    
Cu1   N3    2.009747 S    
C55   H22   1.109999 S    
C24   C56   1.513231 S    
C22   C24   1.423281 A    
C14   C16   1.418307 A    
C15   C17   1.412108 A    
C57   O21   1.223162 D    
C6    C22   1.419626 A    
C15   C53   1.488709 S    
C42   H10   1.083320 S    
C47   H13   1.081712 S    
C41   H9    1.083321 S    
C14   C28   1.423187 A    
C19   C21   1.418821 A    
C3    C27   1.481157 S    
C43   H11   1.083315 S    
C9    C11   1.394737 A    
O4    Cu2   1.961960 S    
O2    Cu2   1.961956 S    
O7    C4    1.296127 A    
O8    C3    1.295202 A    
C23   C39   1.400197 A    
O5    Cu1   1.954375 S    
O1    Cu1   1.961956 S    
C6    O10   1.347386 S    
C19   C34   1.420699 A    
C20   C33   1.420712 A    
C52   O15   1.222966 D    
C29   C33   1.420341 A    
C30   C34   1.420308 A    
C58   O24   1.398256 S    
