data_mof_unit_20923.cif
_audit_creation_date              2012-10-26T20:23:53-0400
_audit_creation_method            fapswitch 2.2
_symmetry_space_group_name_H-M    P1
_symmetry_Int_Tables_number       1
_space_group_crystal_system       triclinic
_cell_length_a                    12.74788
_cell_length_b                    13.921356
_cell_length_c                    15.914917
_cell_angle_alpha                 90.369899
_cell_angle_beta                  93.081092
_cell_angle_gamma                 97.978516
_cell_volume                      2792.72558016

loop_
_atom_site_label
_atom_site_type_symbol
_atom_type_description
_atom_site_fract_x
_atom_site_fract_y
_atom_site_fract_z
_atom_type_partial_charge
C1    C     C_R   0.483513 0.315990 0.499760 0.548855
C2    C     C_1   0.145420 0.481301 0.482551 0.140605
C3    C     C_R   0.500307 0.499972 0.339687 0.544171
C4    C     C_R   0.499778 0.500162 0.660292 0.542928
C5    C     C_3   0.423918 0.438021 0.965818 0.274913
C6    C     C_3   0.582220 0.563311 0.034548 0.222557
C7    C     C_3   0.510152 0.411944 0.030357 0.229235
C8    C     C_3   0.494802 0.589203 0.970417 0.220302
C9    C     C_1   0.500268 0.500292 0.250454 -0.006972
C10   C     C_1   0.500498 0.500405 0.749499 -0.015428
C11   C     C_3   0.409145 0.527446 0.019085 0.256865
C12   C     C_R   0.516475 0.684026 0.500609 0.550853
C13   C     C_3   0.596919 0.473749 0.981042 0.191121
C14   C     C_3   0.495783 0.501291 0.083769 -0.038255
C15   C     C_3   0.509084 0.499767 0.916230 -0.069997
C16   C     C_1   0.498228 0.500649 0.175183 0.011828
C17   C     C_1   0.504235 0.500434 0.824773 -0.013018
C18   C     C_1   0.525973 0.786983 0.499156 -0.006093
C19   C     C_1   0.473972 0.213100 0.502477 -0.011175
C20   C     C_3   0.582850 0.267615 0.036411 0.030173
C21   C     C_3   0.559717 0.161742 0.062626 -0.272739
C22   C     C_3   0.641556 0.102225 0.030383 -0.489719
C23   C     C_2   0.542535 0.977558 0.495238 -0.022851
C24   C     C_3   0.482810 0.753028 0.993671 0.034741
C25   C     C_3   0.383501 0.800755 0.973780 -0.254651
C26   C     C_3   0.369523 0.876265 0.040671 -0.499007
C27   C     C_3   0.368856 0.293270 0.892884 0.023517
C28   C     C_3   0.288026 0.253572 0.822486 -0.258058
C29   C     C_3   0.320520 0.164465 0.779942 -0.481508
C30   C     C_3   0.730859 0.679534 0.021201 0.042823
C31   C     C_3   0.844751 0.662070 0.043755 -0.252344
C32   C     C_3   0.921974 0.712485 0.982627 -0.492604
C33   C     C_3   0.738878 0.466860 0.893415 0.000764
C34   C     C_2   0.457631 0.022659 0.508518 -0.023709
C35   C     C_3   0.719876 0.376529 0.836271 -0.274835
C36   C     C_3   0.774401 0.394620 0.753671 -0.458378
C37   C     C_3   0.292908 0.594173 0.105319 0.002404
C38   C     C_3   0.231621 0.520838 0.162296 -0.254549
C39   C     C_3   0.210984 0.567792 0.245622 -0.461056
C40   C     C_1   0.355601 0.969455 0.526358 0.208634
C41   C     C_1   0.644643 0.030853 0.477711 0.211056
C42   C     C_1   0.465653 0.126385 0.505306 -0.048697
C43   C     C_1   0.534313 0.873763 0.497458 -0.043637
C44   C     C_2   0.028352 0.474795 0.475013 -0.159041
C45   C     C_2   0.971647 0.525133 0.525026 -0.156514
C46   C     C_1   0.854577 0.518659 0.517484 0.144072
Cu1   Cu    Cu3+1 0.395330 0.493960 0.494680 0.996267
Cu2   Cu    Cu3+1 0.604670 0.506040 0.505320 0.998371
H1    H     H_    0.013588 0.573051 0.573615 0.133817
H2    H     H_    0.553456 0.808870 0.989293 0.132468
H3    H     H_    0.483413 0.727445 0.059818 0.133393
H4    H     H_    0.389666 0.836384 0.911585 0.174116
H5    H     H_    0.312450 0.744552 0.970034 0.198457
H6    H     H_    0.360214 0.841619 0.103018 0.144864
H7    H     H_    0.297432 0.910047 0.023820 0.151293
H8    H     H_    0.439158 0.933924 0.044710 0.148627
H9    H     H_    0.372434 0.236911 0.941667 0.167832
H10   H     H_    0.447748 0.309037 0.865268 0.101243
H11   H     H_    0.209032 0.233681 0.848810 0.178907
H12   H     H_    0.986427 0.426892 0.426407 0.133080
H13   H     H_    0.281611 0.310646 0.774663 0.186114
H14   H     H_    0.398204 0.183428 0.751356 0.148594
H15   H     H_    0.260084 0.137161 0.729413 0.168426
H16   H     H_    0.326505 0.105991 0.826409 0.146773
H17   H     H_    0.726452 0.758158 0.029119 0.131226
H18   H     H_    0.710119 0.661227 0.953559 0.138960
H19   H     H_    0.868566 0.689977 0.108577 0.173092
H20   H     H_    0.849397 0.583024 0.042543 0.206545
H21   H     H_    0.901261 0.683737 0.917680 0.145491
H22   H     H_    0.003804 0.698972 0.001259 0.155297
H23   H     H_    0.662291 0.298623 0.064360 0.198346
H24   H     H_    0.919796 0.791973 0.983716 0.150851
H25   H     H_    0.825891 0.488168 0.903677 0.155249
H26   H     H_    0.708824 0.529779 0.862544 0.123903
H27   H     H_    0.751476 0.315409 0.869003 0.168433
H28   H     H_    0.633546 0.355056 0.822536 0.144546
H29   H     H_    0.747493 0.457911 0.721272 0.179263
H30   H     H_    0.754670 0.329773 0.711827 0.160211
H31   H     H_    0.861839 0.408786 0.765773 0.149175
H32   H     H_    0.244952 0.653931 0.093221 0.142580
H33   H     H_    0.368454 0.628340 0.137653 0.104132
H34   H     H_    0.582615 0.269544 0.966473 0.129735
H35   H     H_    0.154360 0.491226 0.129899 0.183006
H36   H     H_    0.277067 0.459488 0.174907 0.183866
H37   H     H_    0.286921 0.599838 0.278516 0.173041
H38   H     H_    0.169585 0.512201 0.286598 0.162189
H39   H     H_    0.160195 0.625650 0.234438 0.143937
H40   H     H_    0.560933 0.157945 0.132416 0.186586
H41   H     H_    0.479492 0.130072 0.036874 0.159965
H42   H     H_    0.639161 0.102446 0.960500 0.144803
H43   H     H_    0.623853 0.026120 0.051469 0.143899
H44   H     H_    0.722476 0.132492 0.055471 0.158538
N1    N     N_1   0.238040 0.484880 0.486690 -0.185195
N2    N     N_1   0.761960 0.515120 0.513310 -0.185948
N3    N     N_1   0.274044 0.926925 0.540640 -0.290478
N4    N     N_1   0.726253 0.073483 0.463709 -0.288480
O1    O     O_R   0.399110 0.356330 0.494860 -0.489306
O2    O     O_3   0.488335 0.679918 0.932676 -0.559029
O3    O     O_3   0.335845 0.376058 0.929330 -0.518588
O4    O     O_3   0.662344 0.628412 0.077693 -0.562620
O5    O     O_3   0.698181 0.444953 0.972790 -0.590198
O6    O     O_3   0.305157 0.549872 0.027089 -0.527918
O7    O     O_R   0.600890 0.643670 0.505140 -0.487682
O8    O     O_R   0.575890 0.366540 0.503840 -0.487198
O9    O     O_R   0.424110 0.633460 0.496160 -0.486750
O10   O     O_R   0.411620 0.494890 0.374590 -0.507768
O11   O     O_R   0.588380 0.505110 0.625410 -0.511316
O12   O     O_R   0.588400 0.505100 0.383570 -0.478076
O13   O     O_R   0.411600 0.494900 0.616430 -0.482546
O14   O     O_3   0.505105 0.319232 0.067150 -0.567991

loop_
_geom_bond_atom_site_label_1
_geom_bond_atom_site_label_2
_ccdc_geom_bond_type
C4    O13   A    
C29   H15   S    
C20   H34   S    
C38   H35   S    
C35   C36   S    
C34   C42   S    
C39   H39   S    
C12   O9    A    
C33   O5    S    
C26   H7    S    
C32   H24   S    
C21   H41   S    
C45   C46   S    
C31   H19   S    
C35   H27   S    
Cu2   N2    S    
C24   O2    S    
C28   C29   S    
C9    C16   T    
C25   H5    S    
C5    C11   S    
C36   H29   S    
C30   C31   S    
C11   C14   S    
Cu2   O11   S    
C10   C17   T    
Cu2   O8    S    
C30   O4    S    
C23   C43   S    
C8    O2    S    
C7    C14   S    
C5    O3    S    
C2    C44   S    
Cu1   O9    S    
C22   H43   S    
C20   H23   S    
C23   C41   S    
C19   C42   T    
C28   H13   S    
C23   C34   D    
C24   H3    S    
C21   H40   S    
C21   C22   S    
C37   H33   S    
C26   H6    S    
C4    O11   A    
C2    N1    T    
C3    O10   A    
C24   H2    S    
C31   H20   S    
C37   H32   S    
C35   H28   S    
C1    C19   S    
C5    C15   S    
C38   C39   S    
C24   C25   S    
C12   O7    A    
C27   H9    S    
C1    O1    A    
C5    C7    S    
C6    C8    S    
C25   C26   S    
Cu1   O13   S    
Cu2   O7    S    
C27   H10   S    
C37   O6    S    
C6    O4    S    
C37   C38   S    
C3    C9    S    
C6    C14   S    
Cu1   Cu2   S    
C46   N2    T    
C45   H1    S    
Cu1   O10   S    
C27   O3    S    
C22   H42   S    
C1    O8    A    
C30   H18   S    
C20   O14   S    
C33   H25   S    
C8    C15   S    
C13   C15   S    
C14   C16   S    
C39   H37   S    
C40   N3    T    
C13   O5    S    
C44   C45   D    
C28   H11   S    
C15   C17   S    
C29   H14   S    
Cu1   N1    S    
C38   H36   S    
C31   C32   S    
C36   H31   S    
C26   H8    S    
C32   H22   S    
C32   H21   S    
C3    O12   A    
Cu1   O1    S    
C7    O14   S    
C25   H4    S    
C36   H30   S    
C18   C43   T    
C6    C13   S    
Cu2   O12   S    
C44   H12   S    
C8    C11   S    
C33   C35   S    
C11   O6    S    
C29   H16   S    
C30   H17   S    
C41   N4    T    
C33   H26   S    
C7    C13   S    
C20   C21   S    
C12   C18   S    
C27   C28   S    
C22   H44   S    
C34   C40   S    
C39   H38   S    
C4    C10   S    
