data_mof_unit_56719.cif
_audit_creation_date              2012-12-10T18:06:00-0500
_audit_creation_method            fapswitch 2.2
_symmetry_space_group_name_H-M    P1
_symmetry_Int_Tables_number       1
_space_group_crystal_system       triclinic
_cell_length_a                    12.655947
_cell_length_b                    13.137864
_cell_length_c                    14.882419
_cell_angle_alpha                 91.875878
_cell_angle_beta                  102.664481
_cell_angle_gamma                 81.515108
_cell_volume                      2387.90198804

loop_
_atom_site_label
_atom_site_type_symbol
_atom_type_description
_atom_site_fract_x
_atom_site_fract_y
_atom_site_fract_z
_atom_type_partial_charge
Br1   Br    Br    0.400130 0.073632 0.285507 -0.498052
Br2   Br    Br    0.829599 0.432468 0.219679 -0.471623
Br3   Br    Br    0.945914 0.715206 0.762573 -0.418007
Br4   Br    Br    0.777148 0.334240 0.408869 -0.460313
Br5   Br    Br    0.241315 0.762681 0.871637 -0.331091
Br6   Br    Br    0.382468 0.707786 0.722514 -0.469838
Br7   Br    Br    0.701528 0.224096 0.923499 -0.445705
C1    C     C_R   0.438846 0.691325 0.491493 0.880639
C2    C     C_R   0.436128 0.589405 0.802577 0.229663
C3    C     C_R   0.499446 0.507071 0.768023 -0.129807
C4    C     C_R   0.500325 0.501892 0.672439 0.917831
C5    C     C_R   0.556658 0.424525 0.821595 -0.229708
C6    C     C_R   0.715978 0.060412 0.611235 -0.146046
C7    C     C_R   0.599172 0.199903 0.522460 -0.052854
C8    C     C_R   0.313163 0.830679 0.403577 -0.235232
C9    C     C_R   0.307579 0.921325 0.356569 -0.137746
C10   C     C_R   0.389539 0.983552 0.382133 0.246316
C11   C     C_R   0.469425 0.963568 0.466397 0.007126
C12   C     C_R   0.550890 0.416872 0.099925 0.082128
C13   C     C_R   0.474518 0.870861 0.513660 0.064355
C14   C     C_R   0.546269 0.029892 0.504723 0.098691
C15   C     C_R   0.637114 0.996009 0.577155 0.146072
C16   C     C_R   0.561278 0.309014 0.510904 0.892107
C17   C     C_R   0.641548 0.903363 0.620982 -0.208165
C18   C     C_R   0.556871 0.845708 0.594063 -0.128519
C19   C     C_R   0.526384 0.133425 0.482538 -0.180167
C20   C     C_R   0.697674 0.162541 0.582689 -0.136497
C21   C     C_R   0.402170 0.800930 0.476166 -0.070663
C22   C     C_R   0.076293 0.418033 0.328295 -0.191116
C23   C     C_R   0.359575 0.657415 0.029134 -0.231166
C24   C     C_R   0.804083 0.611327 0.624574 -0.033899
C25   C     C_R   0.910012 0.634110 0.654334 0.244648
C26   C     C_R   0.989295 0.597390 0.604821 -0.174450
C27   C     C_R   0.961918 0.539478 0.523760 -0.076642
C28   C     C_R   0.498845 0.499362 0.327424 0.893735
C29   C     C_R   0.852245 0.519541 0.494767 0.109963
C30   C     C_R   0.039433 0.498008 0.471152 -0.034555
C31   C     C_R   0.001429 0.461814 0.380516 0.053743
C32   C     C_R   0.889343 0.463378 0.346679 0.200705
C33   C     C_R   0.823557 0.466280 0.410495 0.247605
C34   C     C_R   0.355857 0.660611 0.935248 0.330338
C35   C     C_R   0.153136 0.489785 0.504687 0.014496
C36   C     C_R   0.186964 0.408636 0.366532 0.016967
C37   C     C_R   0.553283 0.417109 0.193479 -0.151225
C38   C     C_R   0.494821 0.498770 0.231374 -0.052843
C39   C     C_R   0.429339 0.578265 0.177515 -0.212388
C40   C     C_R   0.425829 0.578992 0.083754 0.082572
C41   C     C_R   0.488199 0.499210 0.044544 0.074901
C42   C     C_R   0.425505 0.585811 0.894962 -0.011520
C43   C     C_R   0.488765 0.502045 0.950790 -0.055079
C44   C     C_R   0.553689 0.420991 0.913582 0.066461
C45   C     C_R   0.613602 0.337793 0.969099 0.279407
C46   C     C_R   0.611371 0.336351 0.061749 -0.158401
H1    H     H_    0.600714 0.354421 0.236921 0.189113
H2    H     H_    0.070243 0.617826 0.629195 0.187924
H3    H     H_    0.307977 0.715690 0.059547 0.189710
H4    H     H_    0.603104 0.363200 0.789936 0.186176
H5    H     H_    0.447549 0.165631 0.442569 0.196127
H6    H     H_    0.245450 0.377982 0.325842 0.162921
H7    H     H_    0.050880 0.388899 0.259359 0.207182
H8    H     H_    0.658520 0.272888 0.104384 0.207496
H9    H     H_    0.754808 0.213955 0.614143 0.185180
H10   H     H_    0.706595 0.878807 0.679947 0.186741
H11   H     H_    0.787273 0.034071 0.664513 0.179195
H12   H     H_    0.256410 0.777735 0.375076 0.179996
H13   H     H_    0.245652 0.937278 0.293856 0.193285
H14   H     H_    0.558373 0.778938 0.635259 0.183531
H15   H     H_    0.382432 0.639669 0.209024 0.141204
H16   H     H_    0.188595 0.519693 0.570995 0.146682
H17   H     H_    0.742659 0.638669 0.663443 0.161315
N1    N     N_R   0.222190 0.444670 0.452360 -0.116992
N2    N     N_R   0.776970 0.554790 0.547140 -0.129686
O1    O     O_R   0.366740 0.627160 0.477250 -0.600376
O2    O     O_R   0.544830 0.662520 0.507680 -0.623236
O3    O     O_R   0.410940 0.482340 0.616930 -0.602032
O4    O     O_R   0.589030 0.517700 0.647360 -0.621639
O5    O     O_R   0.455170 0.337480 0.492320 -0.621041
O6    O     O_R   0.633260 0.372840 0.522750 -0.573545
O7    O     O_R   0.410970 0.482300 0.352640 -0.630429
O8    O     O_R   0.589060 0.517660 0.383070 -0.582538
Zn1   Zn    Zn3+2 0.381090 0.476390 0.479680 0.977229
Zn2   Zn    Zn3+2 0.618910 0.523610 0.520320 0.993353

loop_
_geom_bond_atom_site_label_1
_geom_bond_atom_site_label_2
_ccdc_geom_bond_type
C26   H2    S    
C14   C19   A    
C27   C30   A    
C18   H14   S    
Br6   C2    S    
C38   C39   A    
C37   C38   A    
Br7   C45   S    
C4    O4    A    
C31   C32   A    
C13   C18   A    
C8    C9    A    
C11   C14   A    
C28   O8    A    
O1    Zn1   S    
C30   C35   A    
C35   N1    A    
C46   H8    S    
Br2   C32   S    
C24   H17   S    
C40   C41   A    
C9    C10   A    
C22   C31   A    
C23   C34   A    
C7    C20   A    
C2    C3    A    
C27   C29   A    
C36   H6    S    
C12   C46   A    
C41   C43   A    
C14   C15   A    
C22   C36   A    
O2    Zn2   S    
C34   C42   A    
C26   C27   A    
C44   C45   A    
Br4   C33   S    
C23   C40   A    
C29   C33   A    
C2    C42   A    
C17   C18   A    
O8    Zn2   S    
O4    Zn2   S    
C32   C33   A    
O7    Zn1   S    
C12   C41   A    
O3    Zn1   S    
C13   C21   A    
C43   C44   A    
C23   H3    S    
C35   H16   S    
C16   O5    A    
C7    C16   S    
C39   H15   S    
C30   C31   A    
C20   H9    S    
O6    Zn2   S    
C24   C25   A    
C22   H7    S    
O5    Zn1   S    
C1    O2    A    
C10   C11   A    
C45   C46   A    
C7    C19   A    
C19   H5    S    
C3    C5    A    
C5    H4    S    
C24   N2    A    
C17   H10   S    
C1    C21   S    
C15   C17   A    
C9    H13   S    
C28   C38   S    
C5    C44   A    
C12   C37   A    
Br5   C34   S    
C39   C40   A    
C36   N1    A    
Br1   C10   S    
C25   C26   A    
C4    O3    A    
C8    C21   A    
C6    H11   S    
C28   O7    A    
C1    O1    A    
C6    C15   A    
C11   C13   A    
C16   O6    A    
Br3   C25   S    
C3    C4    S    
C37   H1    S    
C42   C43   A    
C6    C20   A    
N2    Zn2   S    
C29   N2    A    
N1    Zn1   S    
C8    H12   S    
