data_mof_unit_5948.cif
_audit_creation_date              2012-12-11T16:05:06-0500
_audit_creation_method            fapswitch 2.2
_symmetry_space_group_name_H-M    P1
_symmetry_Int_Tables_number       1
_space_group_crystal_system       triclinic
_cell_length_a                    10.634021
_cell_length_b                    10.639371
_cell_length_c                    16.899117
_cell_angle_alpha                 98.344565
_cell_angle_beta                  98.708781
_cell_angle_gamma                 61.729453
_cell_volume                      1658.55535943

loop_
_atom_site_label
_atom_site_type_symbol
_atom_type_description
_atom_site_fract_x
_atom_site_fract_y
_atom_site_fract_z
_atom_type_partial_charge
C1    C     C_R   0.350294 0.784534 0.402731 0.536567
C2    C     C_3   0.380426 0.743728 0.255263 -0.102273
C3    C     C_3   0.327253 0.850147 0.328795 0.051172
C4    C     C_R   0.367251 0.343987 0.359876 0.531982
C5    C     C_3   0.383270 0.945165 0.302743 -0.130984
C6    C     C_3   0.234705 0.028517 0.255728 -0.155553
C7    C     C_3   0.179799 0.932330 0.283584 -0.125479
C8    C     C_3   0.232862 0.825756 0.209679 -0.091634
C9    C     C_3   0.287943 0.920986 0.182482 0.055686
C10   C     C_3   0.438180 0.335281 0.786187 -0.151537
C11   C     C_3   0.329231 0.452433 0.731431 -0.118810
C12   C     C_3   0.683275 0.325390 0.235402 -0.134171
C13   C     C_3   0.340973 0.334220 0.664214 0.050273
C14   C     C_3   0.450199 0.218004 0.717963 -0.106073
C15   C     C_3   0.323635 0.208402 0.744949 -0.115316
C16   C     C_R   0.705183 0.416692 0.390737 0.563167
C17   C     C_3   0.214869 0.324752 0.689891 -0.143514
C18   C     C_3   0.203196 0.441557 0.758664 -0.000012
C19   C     C_3   0.312551 0.325885 0.812971 0.048334
C20   C     C_1   0.817315 0.341844 0.709633 -0.041002
C21   C     C_1   0.843275 0.315400 0.778284 -0.040860
C22   C     C_1   0.337726 0.813861 0.709403 -0.059420
C23   C     C_3   0.744286 0.389445 0.309101 0.042345
C24   C     C_1   0.312335 0.841339 0.778085 -0.062432
C25   C     C_R   0.895770 0.308857 0.092245 0.540977
C26   C     C_R   0.292447 0.262403 0.122909 0.532950
C27   C     C_R   0.257181 0.958665 0.099430 0.552855
C28   C     C_R   0.356341 0.772382 0.626983 0.545319
C29   C     C_R   0.884043 0.299897 0.861114 0.551480
C30   C     C_R   0.306146 0.293525 0.891154 0.541250
C31   C     C_R   0.278896 0.886822 0.858446 0.536389
C32   C     C_R   0.369023 0.346405 0.586167 0.546536
C33   C     C_R   0.774483 0.379331 0.629530 0.550272
C34   C     C_3   0.898180 0.284796 0.291355 -0.116006
C35   C     C_1   0.326662 0.318690 0.277852 -0.071331
C36   C     C_1   0.307184 0.294185 0.207082 -0.078842
C37   C     C_3   0.838986 0.220181 0.216350 -0.122466
C38   C     C_R   0.064221 0.573840 0.775350 0.037076
C39   C     C_R   0.953276 0.625953 0.713179 -0.073482
C40   C     C_R   0.825300 0.750096 0.727312 -0.096501
C41   C     C_R   0.807645 0.824707 0.803289 -0.110088
C42   C     C_R   0.918473 0.775790 0.864955 -0.081050
C43   C     C_R   0.046343 0.651612 0.850865 -0.048411
C44   C     C_R   0.574252 0.512700 0.118641 0.006129
C45   C     C_3   0.896049 0.396629 0.242047 -0.127499
C46   C     C_R   0.452930 0.491361 0.097985 -0.086824
C47   C     C_R   0.365216 0.541357 0.027732 -0.098935
C48   C     C_R   0.401050 0.608106 0.976098 -0.086962
C49   C     C_R   0.517997 0.635684 0.998080 -0.064148
C50   C     C_R   0.601060 0.593042 0.070661 -0.079997
C51   C     C_3   0.741232 0.502610 0.260544 -0.126879
C52   C     C_3   0.682862 0.437366 0.185873 -0.020237
C53   C     C_3   0.835930 0.332790 0.167845 0.053470
C54   C     C_3   0.435725 0.839241 0.227646 -0.106888
Cr1   Cr    Cr6+3 0.608340 0.611040 0.520430 0.996744
Cr2   Cr    Cr6+3 0.287650 0.601120 0.489350 1.017497
Cr3   Cr    Cr6+3 0.604040 0.287870 0.490280 1.014482
Cr4   Cr    Cr6+3 0.054020 0.052700 0.970850 0.996723
Cr5   Cr    Cr6+3 0.059230 0.375120 0.993390 0.985099
Cr6   Cr    Cr6+3 0.374950 0.061200 0.992340 0.993801
H1    H     H_    0.596336 0.296238 0.236317 0.123333
H2    H     H_    0.880128 0.104699 0.196132 0.123578
H3    H     H_    0.983386 0.226662 0.338449 0.124362
H4    H     H_    0.984895 0.424169 0.243343 0.123768
H5    H     H_    0.703323 0.616961 0.282181 0.118458
H6    H     H_    0.436705 0.626276 0.258955 0.105777
H7    H     H_    0.539005 0.804436 0.202819 0.117128
H8    H     H_    0.444167 0.993836 0.342952 0.136191
H9    H     H_    0.966030 0.571669 0.653416 0.129640
H10   H     H_    0.740169 0.788942 0.679188 0.126216
H11   H     H_    0.708733 0.920968 0.814158 0.117637
H12   H     H_    0.176084 0.145923 0.252904 0.095786
H13   H     H_    0.905722 0.834505 0.923610 0.104016
H14   H     H_    0.130869 0.617014 0.898815 0.098163
H15   H     H_    0.427072 0.435014 0.135671 0.132141
H16   H     H_    0.271291 0.525632 0.012952 0.143550
H17   H     H_    0.338018 0.639210 0.919469 0.108550
H18   H     H_    0.544653 0.689835 0.959039 0.128554
H19   H     H_    0.689105 0.618370 0.087880 0.130076
H20   H     H_    0.076107 0.968437 0.308381 0.121418
H21   H     H_    0.172368 0.774513 0.171402 0.133346
H22   H     H_    0.331499 0.553082 0.723889 0.126864
H23   H     H_    0.527959 0.341100 0.826878 0.115981
H24   H     H_    0.550911 0.124412 0.699797 0.129132
H25   H     H_    0.321561 0.107324 0.752010 0.126051
H26   H     H_    0.126815 0.316277 0.648777 0.106781
O1    O     O_R   0.751220 0.499230 0.435170 -0.516957
O2    O     O_R   0.412990 0.180750 0.091610 -0.515976
O3    O     O_R   0.366620 0.943130 0.065760 -0.513835
O4    O     O_R   0.477220 0.727600 0.436870 -0.522529
O5    O     O_R   0.160510 0.906330 0.879210 -0.507919
O6    O     O_R   0.930190 0.179050 0.889450 -0.491594
O7    O     O_R   0.909140 0.398170 0.896710 -0.505822
O8    O     O_R   0.186190 0.363460 0.918830 -0.515631
O9    O     O_R   0.401670 0.173200 0.913310 -0.511639
O10   O     O_R   0.356120 0.936130 0.900470 -0.505713
O11   O     O_3   0.162740 0.163010 0.985530 -0.283141
O12   O     O_R   0.297880 0.469080 0.560050 -0.503407
O13   O     O_R   0.258650 0.745120 0.411470 -0.513671
O14   O     O_R   0.297070 0.467240 0.395960 -0.494547
O15   O     O_R   0.488830 0.252610 0.387790 -0.526951
O16   O     O_R   0.724400 0.302390 0.420980 -0.498542
O17   O     O_R   0.752100 0.501210 0.612190 -0.522517
O18   O     O_R   0.478040 0.729440 0.600970 -0.503709
O19   O     O_R   0.259530 0.747110 0.588490 -0.509134
O20   O     O_R   0.489720 0.254590 0.564810 -0.522189
O21   O     O_R   0.725220 0.304230 0.585080 -0.489629
O22   O     O_3   0.500010 0.500010 0.500020 -0.274199
O23   O     O_R   0.171830 0.913880 0.057510 -0.524952
O24   O     O_R   0.940690 0.186050 0.054730 -0.519795
O25   O     O_R   0.920470 0.405720 0.075010 -0.539456
O26   O     O_R   0.196690 0.370460 0.084120 -0.516000

loop_
_geom_bond_atom_site_label_1
_geom_bond_atom_site_label_2
_ccdc_geom_bond_type
C11   C18   S    
C1    O4    A    
Cr4   O23   S    
Cr4   O24   S    
C41   C42   A    
C13   C32   S    
C35   C36   T    
C33   O21   A    
C14   H24   S    
C50   H19   S    
C1    O13   A    
C6    C9    S    
C37   H2    S    
Cr6   O2    S    
C7    C8    S    
Cr6   O3    S    
C6    H12   S    
Cr3   O16   S    
C12   C23   S    
C40   H10   S    
C25   C53   S    
C47   H16   S    
Cr1   O4    S    
C3    C7    S    
C38   C39   A    
C45   C51   S    
C31   O10   A    
C34   C37   S    
Cr1   O17   S    
C10   H23   S    
C26   C36   S    
C49   H18   S    
C18   C19   S    
C51   H5    S    
C12   C37   S    
Cr2   O22   S    
C8    C9    S    
C16   O1    A    
Cr5   O25   S    
Cr5   O8    S    
Cr2   O12   S    
Cr4   O5    S    
C28   O19   A    
C15   H25   S    
C37   C53   S    
C44   C52   S    
C43   H14   S    
Cr3   O20   S    
C4    C35   S    
C45   C53   S    
C32   O20   A    
C13   C14   S    
Cr4   O11   S    
C5    H8    S    
C46   H15   S    
C12   C52   S    
C44   C46   A    
Cr5   O26   S    
C11   H22   S    
C17   H26   S    
C5    C54   S    
Cr6   O11   S    
C10   C14   S    
C39   C40   A    
C54   H7    S    
C3    C5    S    
C21   C29   S    
Cr1   O18   S    
C8    H21   S    
C1    C3    S    
C48   H17   S    
C15   C19   S    
C41   H11   S    
C30   O9    A    
C28   O18   A    
C23   C51   S    
C47   C48   A    
C10   C19   S    
C23   C34   S    
C4    O15   A    
C17   C18   S    
C39   H9    S    
C34   C45   S    
C25   O24   A    
C20   C33   S    
Cr6   O10   S    
C16   O16   A    
C40   C41   A    
Cr3   O21   S    
C16   C23   S    
C31   O5    A    
C4    O14   A    
C2    C54   S    
Cr5   O11   S    
C22   C24   T    
C42   C43   A    
Cr2   O14   S    
C26   O26   A    
C52   C53   S    
C9    C27   S    
C44   C50   A    
C15   C17   S    
C46   C47   A    
C48   C49   A    
C42   H13   S    
C33   O17   A    
C2    C8    S    
C2    H6    S    
C6    C7    S    
Cr3   O15   S    
C45   H4    S    
C13   C17   S    
Cr1   O22   S    
C2    C3    S    
C18   C38   S    
C24   C31   S    
C51   C52   S    
C30   O8    A    
C29   O7    A    
C12   H1    S    
C11   C13   S    
C5    C6    S    
C34   H3    S    
C32   O12   A    
C27   O3    A    
Cr1   O1    S    
Cr2   O19   S    
C10   C11   S    
C25   O25   A    
Cr6   O9    S    
C38   C43   A    
Cr3   O22   S    
C20   C21   T    
C27   O23   A    
C26   O2    A    
C49   C50   A    
C14   C15   S    
C22   C28   S    
C9    C54   S    
Cr5   O7    S    
Cr2   O13   S    
C19   C30   S    
Cr4   O6    S    
C29   O6    A    
C7    H20   S    
