data_mof_unit_7638.cif
_audit_creation_date              2012-12-11T21:09:35-0500
_audit_creation_method            fapswitch 2.2
_symmetry_space_group_name_H-M    P1
_symmetry_Int_Tables_number       1
_space_group_crystal_system       triclinic
_cell_length_a                    8.356502
_cell_length_b                    19.100664
_cell_length_c                    26.856786
_cell_angle_alpha                 99.069902
_cell_angle_beta                  93.379543
_cell_angle_gamma                 88.088045
_cell_volume                      4224.51899848

loop_
_atom_site_label
_atom_site_type_symbol
_atom_type_description
_atom_site_fract_x
_atom_site_fract_y
_atom_site_fract_z
_atom_type_partial_charge
Ba1   Ba    Ba6+2 0.160260 0.465850 0.521400 1.642963
Ba2   Ba    Ba6+2 0.649930 0.534160 0.478640 1.651925
C1    C     C_3   0.414941 0.263514 0.701264 -0.381794
C2    C     C_3   0.448080 0.292463 0.653404 0.343913
C3    C     C_3   0.372757 0.306278 0.383268 0.321539
C4    C     C_3   0.275668 0.244274 0.355258 -0.325101
C5    C     C_3   0.017134 0.688728 0.339193 0.518304
C6    C     C_3   0.010643 0.769799 0.349250 -0.387970
C7    C     C_3   0.577082 0.742367 0.377797 0.346713
C8    C     C_3   0.606908 0.794570 0.341908 -0.407368
C9    C     C_R   0.959785 0.802996 0.531191 -0.154237
C10   C     C_R   0.993738 0.729148 0.522241 0.047261
C11   C     C_R   0.138222 0.815899 0.466756 -0.159668
C12   C     C_3   0.970000 0.276550 0.628722 0.378393
C13   C     C_R   0.205311 0.748919 0.471829 0.056860
C14   C     C_R   0.691945 0.191317 0.548184 -0.155627
C15   C     C_R   0.624055 0.257858 0.542710 -0.006729
C16   C     C_R   0.856374 0.199927 0.478708 -0.159131
C17   C     C_R   0.825431 0.274115 0.485810 0.072661
C18   C     C_R   0.022603 0.848748 0.499967 -0.007045
C19   C     C_R   0.125036 0.703830 0.495786 -0.238711
C20   C     C_R   0.800848 0.156839 0.513165 -0.004606
C21   C     C_R   0.703883 0.301785 0.516788 -0.226896
C22   C     C_R   0.228581 0.968068 0.477236 -0.078320
C23   C     C_3   0.998815 0.205002 0.647370 -0.028952
C24   C     C_R   0.318192 0.018583 0.460358 -0.084137
C25   C     C_R   0.272717 0.088923 0.471428 -0.066520
C26   C     C_R   0.132275 0.107010 0.496059 -0.075225
C27   C     C_R   0.017320 0.056014 0.499649 0.011007
C28   C     C_R   0.069961 0.982721 0.492601 0.037481
C29   C     C_R   0.857787 0.078222 0.512570 -0.016712
C30   C     C_R   0.755619 0.023650 0.522705 0.040540
C31   C     C_R   0.806875 0.950216 0.514035 0.014328
C32   C     C_R   0.966613 0.927878 0.501573 -0.013832
C33   C     C_R   0.599549 0.038379 0.540597 -0.078791
C34   C     C_3   0.834740 0.620292 0.632378 0.283580
C35   C     C_R   0.511125 0.986561 0.556610 -0.084156
C36   C     C_R   0.553364 0.916202 0.542266 -0.062817
C37   C     C_R   0.690423 0.899353 0.515792 -0.078738
C38   C     C_R   0.264891 0.430462 0.169634 0.586382
C39   C     C_R   0.143043 0.545678 0.169659 0.582764
C40   C     C_2   0.020736 0.509508 0.268343 -0.050378
C41   C     C_3   0.001840 0.514266 0.324946 -0.074881
C42   C     C_1   0.285310 0.490889 0.333916 0.037553
C43   C     C_2   0.309387 0.488008 0.285349 -0.091774
C44   C     C_2   0.167697 0.495505 0.249130 0.223183
C45   C     C_3   0.824157 0.639062 0.689299 -0.389843
C46   C     C_R   0.270355 0.487307 0.094381 -0.079805
C47   C     C_R   0.302738 0.427754 0.118694 -0.032508
C48   C     C_R   0.368714 0.366357 0.091122 -0.065047
C49   C     C_R   0.187614 0.546167 0.119928 -0.028620
C50   C     C_2   0.160602 0.525139 0.354175 -0.253516
C51   C     C_2   0.654261 0.474482 0.638338 -0.295598
C52   C     C_R   0.464831 0.430272 0.970922 0.019423
C53   C     C_R   0.324285 0.545933 0.968908 0.023991
C54   C     C_R   0.415152 0.487331 0.944707 0.030897
C55   C     C_R   0.577594 0.379105 0.947753 0.048299
C56   C     C_3   0.922629 0.372031 0.361695 0.293998
C57   C     C_R   0.603961 0.375285 0.896433 -0.064348
C58   C     C_R   0.545316 0.428238 0.869186 -0.044723
C59   C     C_R   0.459215 0.486439 0.894025 -0.084369
C60   C     C_R   0.417678 0.543759 0.868176 -0.026063
C61   C     C_R   0.468453 0.543196 0.818782 0.583776
C62   C     C_R   0.580531 0.426087 0.818286 0.578549
C63   C     C_2   0.745593 0.460461 0.727676 0.019287
C64   C     C_3   0.760386 0.433403 0.671612 -0.056879
C65   C     C_1   0.522352 0.507440 0.656124 0.022682
C66   C     C_2   0.477526 0.503304 0.702389 -0.143902
C67   C     C_3   0.844986 0.353036 0.308674 -0.342416
C68   C     C_2   0.596463 0.483012 0.742280 0.222271
C69   C     C_R   0.402531 0.427751 0.019056 0.020688
C70   C     C_R   0.318687 0.487563 0.044240 0.049130
C71   C     C_R   0.280841 0.547138 0.019647 0.020000
C72   C     C_R   0.411603 0.365675 0.041705 -0.113531
C73   C     C_R   0.152182 0.604833 0.095527 -0.063942
C74   C     C_R   0.280792 0.601713 0.941317 -0.100812
C75   C     C_R   0.328088 0.600908 0.892421 -0.067252
C76   C     C_R   0.198288 0.605599 0.046720 -0.102010
C77   C     C_3   0.277701 0.685042 0.650651 0.314307
C78   C     C_3   0.304253 0.684209 0.707454 -0.346975
H1    H     H_    0.424720 0.350762 0.659553 0.046679
H2    H     H_    0.736442 0.683583 0.698294 0.131597
H3    H     H_    0.785041 0.593010 0.705294 0.069954
H4    H     H_    0.943354 0.654885 0.707180 0.113183
H5    H     H_    0.050227 0.384564 0.359278 -0.042195
H6    H     H_    0.859071 0.419363 0.381050 0.079086
H7    H     H_    0.916918 0.310660 0.286350 0.113767
H8    H     H_    0.835459 0.399683 0.288864 0.063661
H9    H     H_    0.722013 0.333791 0.310836 0.151452
H10   H     H_    0.163787 0.659705 0.636723 0.084115
H11   H     H_    0.296906 0.283585 0.715067 0.138405
H12   H     H_    0.285745 0.630296 0.715752 0.124439
H13   H     H_    0.216432 0.720332 0.728793 0.085168
H14   H     H_    0.427612 0.700846 0.720758 0.134820
H15   H     H_    0.576724 0.281277 0.646425 -0.064166
H16   H     H_    0.508874 0.280695 0.731034 0.138331
H17   H     H_    0.302325 0.334171 0.413766 0.098824
H18   H     H_    0.348600 0.210893 0.326867 0.111259
H19   H     H_    0.235581 0.211002 0.382378 0.086000
H20   H     H_    0.168576 0.264319 0.335062 0.130605
H21   H     H_    0.416792 0.204623 0.693943 0.106929
H22   H     H_    0.988306 0.161944 0.614383 0.039774
H23   H     H_    0.085057 0.670362 0.371869 -0.035394
H24   H     H_    0.940931 0.788685 0.382845 0.087955
H25   H     H_    0.133348 0.790723 0.355579 0.112092
H26   H     H_    0.953380 0.791402 0.316369 0.106510
H27   H     H_    0.577744 0.687797 0.356667 0.096122
H28   H     H_    0.673701 0.747322 0.408431 0.052590
H29   H     H_    0.492926 0.811498 0.323439 0.129551
H30   H     H_    0.683775 0.769611 0.311521 0.125357
H31   H     H_    0.023017 0.273117 0.591359 0.055134
H32   H     H_    0.664806 0.842659 0.363085 0.099675
H33   H     H_    0.879331 0.822812 0.560521 0.079753
H34   H     H_    0.177918 0.840902 0.436675 0.087812
H35   H     H_    0.658537 0.168228 0.580067 0.057999
H36   H     H_    0.930543 0.177438 0.448252 0.073927
H37   H     H_    0.168208 0.649618 0.495080 0.074063
H38   H     H_    0.661210 0.355947 0.517079 0.069790
H39   H     H_    0.294201 0.920431 0.481262 0.077747
H40   H     H_    0.434138 0.004233 0.445196 0.079522
H41   H     H_    0.352852 0.128994 0.464239 0.099291
H42   H     H_    0.838781 0.286136 0.623932 -0.088893
H43   H     H_    0.113155 0.161132 0.512484 0.123798
H44   H     H_    0.534366 0.087037 0.539491 0.077342
H45   H     H_    0.397315 0.000376 0.573382 0.078148
H46   H     H_    0.473177 0.875271 0.548097 0.098611
H47   H     H_    0.706792 0.846183 0.496947 0.120999
H48   H     H_    0.429620 0.480463 0.271885 0.101919
H49   H     H_    0.385220 0.318032 0.107402 0.120122
H50   H     H_    0.683166 0.333636 0.878852 0.116346
H51   H     H_    0.122235 0.200695 0.664241 0.126821
H52   H     H_    0.448554 0.315146 0.021306 0.083113
H53   H     H_    0.915026 0.513595 0.243374 0.100843
H54   H     H_    0.089520 0.651208 0.114398 0.117331
H55   H     H_    0.209077 0.647184 0.956189 0.067042
H56   H     H_    0.292572 0.645428 0.873397 0.116841
H57   H     H_    0.353252 0.511823 0.711358 0.128332
H58   H     H_    0.168273 0.653596 0.031637 0.067271
H59   H     H_    0.168256 0.553252 0.392671 0.058470
H60   H     H_    0.667687 0.462741 0.597923 0.080382
H61   H     H_    0.714859 0.605694 0.615158 0.047456
H62   H     H_    0.920416 0.574824 0.624128 0.065060
N1    N     N_R   0.190005 0.490126 0.195181 -0.427810
N2    N     N_R   0.548945 0.484517 0.794043 -0.419861
O1    O     O_2   0.103290 0.325410 0.465600 -0.471214
O2    O     O_3   0.407427 0.651980 0.624232 -0.613425
O3    O     O_3   0.043182 0.331311 0.662869 -0.600442
O4    O     O_2   0.707020 0.674640 0.534420 -0.427028
O5    O     O_3   0.952550 0.585840 0.530020 -0.490157
O6    O     O_3   0.436140 0.628890 0.444040 -0.467057
O7    O     O_3   0.887443 0.679702 0.614260 -0.644027
O8    O     O_3   0.350480 0.462320 0.439870 -0.481728
O9    O     O_3   0.840680 0.592440 0.417430 -0.480007
O10   O     O_2   0.677537 0.556918 0.330574 -0.494380
O11   O     O_3   0.858564 0.664604 0.333740 -0.619231
O12   O     O_3   0.857760 0.414170 0.470020 -0.490715
O13   O     O_3   0.459840 0.537690 0.560170 -0.452793
O14   O     O_2   0.582520 0.462630 0.379680 -0.461275
O15   O     O_3   0.409255 0.350745 0.349026 -0.628412
O16   O     O_2   0.526983 0.755948 0.490328 -0.510863
O17   O     O_3   0.424669 0.757378 0.395762 -0.651940
O18   O     O_2   0.297721 0.379568 0.191130 -0.591248
O19   O     O_2   0.641065 0.372166 0.795633 -0.640460
O20   O     O_2   0.063147 0.595184 0.190295 -0.615960
O21   O     O_2   0.442650 0.595339 0.798133 -0.621673
O22   O     O_3   0.374170 0.371120 0.556000 -0.458116
O23   O     O_2   0.303043 0.245752 0.514420 -0.507726
O24   O     O_3   0.913880 0.312802 0.385974 -0.645135
O25   O     O_3   0.348299 0.259518 0.613058 -0.594740
O26   O     O_2   0.227790 0.537410 0.620340 -0.484698
O27   O     O_3   0.969630 0.407570 0.582610 -0.476665
O28   O     O_2   0.088680 0.467198 0.672777 -0.494719
P1    P     P_3+3 0.926760 0.336170 0.451740 0.967366
P2    P     P_3+3 0.399470 0.558680 0.614150 0.993598
P3    P     P_3+3 0.965739 0.412186 0.647965 0.945717
P4    P     P_3+3 0.883550 0.663840 0.548300 0.992579
P5    P     P_3+3 0.847394 0.580314 0.351400 0.947484
P6    P     P_3+3 0.415331 0.282239 0.557487 0.933902
P7    P     P_3+3 0.401787 0.440878 0.375954 0.954805
P8    P     P_3+3 0.402410 0.720919 0.450464 0.926177
C79   C     C_3   0.262816 0.761594 0.640497 -0.339971
H63   H     H_    0.251243 0.762351 0.599208 0.092945
H64   H     H_    0.154848 0.788415 0.657743 0.084693
H65   H     H_    0.370956 0.791546 0.656182 0.117871
C80   C     C_3   0.527680 0.278670 0.405954 -0.316550
H66   H     H_    0.602184 0.249420 0.376159 0.112737
H67   H     H_    0.593799 0.325189 0.425325 0.073961
H68   H     H_    0.502474 0.243136 0.433363 0.059872
N3    N     N_2   0.095455 0.665239 0.292534 -0.410657
H69   H     H_    0.041321 0.685733 0.262301 0.250817
C81   C     C_3   0.268320 0.668157 0.294572 -0.246470
H70   H     H_    0.314304 0.638340 0.259247 0.138236
H71   H     H_    0.321407 0.643652 0.326710 0.108760
H72   H     H_    0.305487 0.723817 0.297824 0.112779
C82   C     C_3   0.888210 0.459030 0.765064 -0.300071
H73   H     H_    0.980551 0.495080 0.756659 0.113574
H74   H     H_    0.857840 0.478673 0.804517 0.106058
H75   H     H_    0.940217 0.404554 0.762844 0.126150
C83   C     C_3   0.694245 0.336263 0.976814 -0.420479
H76   H     H_    0.816453 0.337588 0.962775 0.118391
H77   H     H_    0.706571 0.358750 0.017480 0.129899
H78   H     H_    0.658227 0.280037 0.971420 0.115146
N4    N     N_2   0.882992 0.193116 0.683202 -0.437507
H79   H     H_    0.768315 0.184127 0.667681 0.192812
C84   C     C_3   0.889026 0.239490 0.731295 -0.169851
H80   H     H_    0.818091 0.216700 0.758247 0.115322
H81   H     H_    0.835860 0.292206 0.726650 0.139662
H82   H     H_    0.014544 0.245253 0.747176 0.112838

loop_
_geom_bond_atom_site_label_1
_geom_bond_atom_site_label_2
_ccdc_geom_bond_type
C15   P6    S    
Ba2   O6    S    
C53   C54   A    
C56   H5    S    
C57   H50   S    
C12   H42   S    
C72   H52   S    
C51   H60   S    
C33   H44   S    
C60   C75   A    
Ba1   O1    S    
C3    C80   S    
C34   H61   S    
C6    H25   S    
C21   H38   S    
C81   H71   S    
C25   H41   S    
C73   H54   S    
C5    C6    S    
C79   H63   S    
C7    H28   S    
N4    C84   S    
Ba1   P1    S    
C24   C25   A    
C31   C37   A    
C8    H29   S    
C40   H53   S    
C4    H18   S    
C26   C27   A    
C33   C35   A    
C35   C36   A    
C22   C24   A    
Ba1   Ba2   S    
C48   C72   A    
C36   C37   A    
O3    P3    S    
C41   C50   S    
C80   H67   S    
C59   C60   A    
C43   H48   S    
Ba2   O4    S    
C38   C47   A    
C76   H58   S    
Ba1   O26   S    
C50   H59   S    
Ba1   O8    S    
C1    H11   S    
C16   C17   A    
C40   C44   D    
C45   H2    S    
N3    C81   S    
O9    P5    S    
C34   H62   S    
O16   P8    D    
C77   H10   S    
C19   H37   S    
Ba2   P4    S    
C46   C49   A    
C52   C69   A    
C14   C15   A    
C3    O15   S    
C9    H33   S    
O2    P2    S    
C83   H78   S    
Ba2   O12   S    
C61   N2    Am   
C8    H32   S    
C1    H16   S    
O22   P6    S    
C75   H56   S    
C45   H3    S    
C56   O24   S    
C7    C8    S    
C11   H34   S    
C67   H7    S    
O28   P3    D    
Ba2   O14   S    
O13   P2    S    
C10   P4    S    
C82   H75   S    
C18   C32   S    
C1    H21   S    
Ba2   O5    S    
C84   H81   S    
C57   C58   A    
C5    H23   S    
C13   P8    S    
C55   C83   S    
C66   H57   S    
C12   H31   S    
C46   C70   A    
C62   O19   D    
C67   H9    S    
C56   H6    S    
C42   P7    S    
C36   H46   S    
C74   H55   S    
C77   O2    S    
C35   H45   S    
C79   H64   S    
Ba2   O8    S    
O24   P1    S    
Ba1   P2    S    
C52   C54   A    
C9    C18   A    
C26   H43   S    
C37   H47   S    
C2    O25   S    
C2    H1    S    
C65   C66   D    
C30   C33   A    
C74   C75   A    
C20   C29   S    
C16   H36   S    
C28   C32   A    
C80   H68   S    
C62   N2    Am   
C43   C44   S    
O27   P3    S    
O12   P1    S    
Ba1   O27   S    
C81   H70   S    
C58   C59   A    
C4    H20   S    
C78   H12   S    
Ba1   O12   S    
C17   C21   A    
O14   P7    D    
C17   P1    S    
C38   O18   D    
C27   C28   A    
C48   H49   S    
C2    H15   S    
C77   C78   S    
C29   C30   A    
C13   C19   A    
C71   C76   A    
C53   C71   A    
C60   C61   A    
C31   C32   A    
C5    O11   S    
C56   C67   S    
C15   C21   A    
C45   H4    S    
O17   P8    S    
C7    O17   S    
C51   C64   S    
C6    H24   S    
C8    H30   S    
C67   H8    S    
C53   C74   A    
C46   C47   A    
O1    P1    D    
C23   H22   S    
C47   C48   A    
Ba2   O9    S    
C11   C13   A    
C34   C45   S    
C39   O20   D    
C40   C41   S    
C78   H14   S    
C1    C2    S    
O4    P4    D    
C14   H35   S    
O25   P6    S    
C49   C73   A    
C42   C43   D    
O6    P8    S    
O26   P2    D    
C84   H82   S    
C64   P3    S    
C84   H80   S    
C41   P5    S    
C22   H39   S    
C14   C20   A    
O7    P4    S    
C79   H65   S    
C11   C18   A    
C16   C20   A    
C38   N1    Am   
C24   H40   S    
C70   C71   A    
C23   N4    S    
C6    H26   S    
C69   C72   A    
C9    C10   A    
C34   O7    S    
C39   N1    Am   
C44   N1    S    
C7    H27   S    
C68   N2    S    
C58   C62   A    
O5    P4    S    
C4    H19   S    
O8    P7    S    
Ba1   O13   S    
C81   H72   S    
O11   P5    S    
C69   C70   A    
C27   C29   A    
C30   C31   A    
C42   C50   D    
C80   H66   S    
C3    C4    S    
Ba1   O22   S    
Ba2   O13   S    
C12   O3    S    
C3    H17   S    
C83   H76   S    
C12   C23   S    
N3    H69   S    
C51   C65   D    
C73   C76   A    
C22   C28   A    
C55   C57   A    
C82   H73   S    
C10   C19   A    
C77   C79   S    
C61   O21   D    
O23   P6    D    
O15   P7    S    
C66   C68   S    
C63   C64   S    
O10   P5    D    
C25   C26   A    
C83   H77   S    
C54   C59   A    
C5    N3    S    
Ba1   O5    S    
C65   P2    S    
N4    H79   S    
C82   H74   S    
C78   H13   S    
C39   C49   A    
C63   C68   D    
C63   C82   S    
C52   C55   A    
C23   H51   S    
