data_mof_unit_7148.cif
_audit_creation_date              2012-12-11T16:16:52-0500
_audit_creation_method            fapswitch 2.2
_symmetry_space_group_name_H-M    P1
_symmetry_Int_Tables_number       1
_space_group_crystal_system       triclinic
_cell_length_a                    13.29639
_cell_length_b                    13.288223
_cell_length_c                    28.527072
_cell_angle_alpha                 89.984676
_cell_angle_beta                  89.999247
_cell_angle_gamma                 119.987849
_cell_volume                      4365.57670745

loop_
_atom_site_label
_atom_site_type_symbol
_atom_type_description
_atom_site_fract_x
_atom_site_fract_y
_atom_site_fract_z
_atom_type_partial_charge
C1    C     C_R   0.438808 0.549854 0.316379 0.541313
C2    C     C_R   0.549714 0.439158 0.683737 0.540026
C3    C     C_R   0.561165 0.110883 0.816392 0.538051
C4    C     C_R   0.889612 0.450301 0.683813 0.540556
C5    C     C_1   0.063213 0.526926 0.362097 -0.007015
C6    C     C_1   0.467081 0.944161 0.139137 -0.019138
C7    C     C_1   0.474849 0.534455 0.361515 -0.008227
C8    C     C_1   0.055898 0.522973 0.139139 -0.019151
C9    C     C_1   0.463558 0.939657 0.361448 -0.004235
C10   C     C_1   0.477015 0.532898 0.139138 -0.019142
C11   C     C_1   0.526523 0.060901 0.861899 -0.007167
C12   C     C_R   0.110160 0.560630 0.183822 0.535023
C13   C     C_1   0.941111 0.465168 0.638735 -0.007993
C14   C     C_1   0.534452 0.473496 0.861903 -0.007210
C15   C     C_1   0.527000 0.064240 0.637784 -0.009274
C16   C     C_1   0.939032 0.465506 0.861905 -0.007099
C17   C     C_1   0.534804 0.474557 0.638373 -0.015172
C18   C     C_R   0.015139 0.407558 0.476265 -0.154079
C19   C     C_R   0.412944 0.019319 0.025628 -0.190183
C20   C     C_R   0.589021 0.607140 0.476023 -0.184524
C21   C     C_R   0.980740 0.393586 0.025662 -0.190122
C22   C     C_R   0.379981 0.940257 0.478340 -0.177578
C23   C     C_R   0.449894 0.888829 0.316355 0.539159
C24   C     C_R   0.606339 0.587032 0.025638 -0.190160
C25   C     C_R   0.415330 0.024338 0.976854 -0.182070
C26   C     C_R   0.005900 0.403019 0.524938 -0.141642
C27   C     C_R   0.609028 0.584644 0.976864 -0.181970
C28   C     C_R   0.389262 0.953660 0.526876 -0.184430
C29   C     C_R   0.975646 0.390888 0.976889 -0.181983
C30   C     C_R   0.592212 0.602223 0.524704 -0.191532
C31   C     C_R   0.983151 0.573785 0.524308 0.295190
C32   C     C_R   0.581687 0.994845 0.975816 0.287627
C33   C     C_R   0.432279 0.402515 0.523145 0.300712
C34   C     C_R   0.439350 0.549521 0.183821 0.534677
C35   C     C_R   0.005120 0.586824 0.975794 0.287646
C36   C     C_R   0.597961 0.082354 0.519375 0.287357
C37   C     C_R   0.413174 0.418332 0.975814 0.287648
C38   C     C_R   0.577701 0.987188 0.025049 0.285429
C39   C     C_R   0.988966 0.576501 0.475156 0.289619
C40   C     C_R   0.409456 0.422315 0.025045 0.285443
C41   C     C_R   0.588085 0.071749 0.470396 0.280965
C42   C     C_R   0.012861 0.590563 0.025024 0.285461
C43   C     C_R   0.430865 0.406297 0.473938 0.297694
C44   C     C_R   0.007653 0.494260 0.451373 -0.021426
C45   C     C_R   0.111588 0.561434 0.316498 0.541822
C46   C     C_R   0.493265 0.000139 0.049799 0.004089
C47   C     C_R   0.508938 0.509980 0.450541 -0.015566
C48   C     C_R   0.999948 0.493162 0.049804 0.003995
C49   C     C_R   0.479155 0.997894 0.450211 -0.015018
C50   C     C_R   0.506815 0.506731 0.049802 0.004020
C51   C     C_R   0.498564 0.011411 0.951872 0.008500
C52   C     C_R   0.991157 0.486337 0.548993 0.005651
C53   C     C_R   0.512894 0.501433 0.951873 0.008486
C54   C     C_R   0.498010 0.023609 0.547366 -0.012197
C55   C     C_R   0.988520 0.487056 0.951875 0.008442
C56   C     C_R   0.450464 0.889838 0.183822 0.535055
C57   C     C_R   0.513992 0.500745 0.548302 -0.000578
C58   C     C_1   0.970836 0.475311 0.598501 -0.017750
C59   C     C_1   0.508708 0.031995 0.902310 -0.018068
C60   C     C_1   0.524373 0.492544 0.597944 -0.033655
C61   C     C_1   0.967916 0.476582 0.902315 -0.018145
C62   C     C_1   0.508578 0.039352 0.597082 -0.027625
C63   C     C_1   0.523359 0.491299 0.902313 -0.018147
C64   C     C_1   0.479692 0.976904 0.099193 -0.030602
C65   C     C_1   0.033842 0.507739 0.402353 -0.037105
C66   C     C_1   0.497136 0.520293 0.099195 -0.030681
C67   C     C_R   0.549753 0.438849 0.816395 0.538935
C68   C     C_1   0.471013 0.970717 0.401363 -0.019442
C69   C     C_1   0.023185 0.502852 0.099197 -0.030679
C70   C     C_1   0.495079 0.522971 0.401522 -0.035228
C71   C     C_3   0.866789 0.634103 0.558397 -0.006750
C72   C     C_3   0.867461 0.709397 0.598700 -0.359329
C73   C     C_3   0.766425 0.081452 0.947719 0.002447
C74   C     C_3   0.852099 0.060674 0.919957 -0.371083
C75   C     C_3   0.377699 0.226426 0.556868 -0.002082
C76   C     C_3   0.292924 0.140401 0.592371 -0.346892
C77   C     C_3   0.918461 0.684972 0.947675 0.002566
C78   C     C_R   0.561084 0.111037 0.683641 0.541207
C79   C     C_3   0.939299 0.791792 0.920126 -0.371010
C80   C     C_3   0.770372 0.096045 0.541005 0.013267
C81   C     C_3   0.823147 0.109073 0.589524 -0.376433
C82   C     C_3   0.314928 0.233508 0.947732 0.002550
C83   C     C_3   0.208065 0.147613 0.920253 -0.370993
C84   C     C_3   0.627398 0.861310 0.057724 0.000787
C85   C     C_3   0.703757 0.855508 0.096142 -0.360967
C86   C     C_3   0.878680 0.623241 0.428700 -0.012658
C87   C     C_3   0.866551 0.725044 0.411635 -0.359796
C88   C     C_3   0.234006 0.372719 0.057713 0.000811
C89   C     C_R   0.889112 0.450247 0.816396 0.538875
C90   C     C_3   0.151875 0.296353 0.096149 -0.360970
C91   C     C_3   0.700450 0.231191 0.425801 -0.006145
C92   C     C_3   0.774328 0.265190 0.381684 -0.364496
C93   C     C_3   0.138713 0.766119 0.057655 0.000858
C94   C     C_3   0.144536 0.848256 0.096098 -0.361057
C95   C     C_3   0.393663 0.252152 0.427220 -0.015381
C96   C     C_3   0.296699 0.132453 0.412782 -0.351742
Cr1   Cr    Cr6+3 0.505050 0.756260 0.250000 1.021156
Cr2   Cr    Cr6+3 0.251210 0.494950 0.250000 1.023439
Cr3   Cr    Cr6+3 0.243740 0.748790 0.250000 1.020186
Cr4   Cr    Cr6+3 0.756260 0.505050 0.750000 1.018615
Cr5   Cr    Cr6+3 0.494950 0.251210 0.750000 1.021318
Cr6   Cr    Cr6+3 0.748790 0.243740 0.750000 1.024118
H1    H     H_    0.030438 0.344847 0.458087 0.148839
H2    H     H_    0.312098 0.908603 0.548399 0.153930
H3    H     H_    0.961049 0.313524 0.958593 0.119366
H4    H     H_    0.654640 0.678178 0.543941 0.120827
H5    H     H_    0.811048 0.541284 0.568858 0.119241
H6    H     H_    0.828066 0.651797 0.527270 0.146800
H7    H     H_    0.914393 0.802308 0.588163 0.148475
H8    H     H_    0.777206 0.684226 0.608607 0.099465
H9    H     H_    0.911280 0.697816 0.629654 0.187135
H10   H     H_    0.804034 0.114227 0.983084 0.165346
H11   H     H_    0.754856 0.148780 0.929144 0.127892
H12   H     H_    0.347731 0.029366 0.044332 0.129289
H13   H     H_    0.816967 0.027671 0.884422 0.172799
H14   H     H_    0.935977 0.143017 0.916353 0.094970
H15   H     H_    0.867626 0.995938 0.938302 0.150944
H16   H     H_    0.466727 0.266751 0.572101 0.121749
H17   H     H_    0.374181 0.177800 0.524704 0.147043
H18   H     H_    0.203384 0.097143 0.577923 0.161292
H19   H     H_    0.316200 0.073094 0.600611 0.104191
H20   H     H_    0.295508 0.186462 0.625227 0.177474
H21   H     H_    0.885371 0.689302 0.983042 0.165084
H22   H     H_    0.851407 0.606297 0.928938 0.128014
H23   H     H_    0.646841 0.687922 0.458331 0.131184
H24   H     H_    0.972748 0.790257 0.884613 0.172788
H25   H     H_    0.856933 0.793240 0.916463 0.094894
H26   H     H_    0.003656 0.871829 0.938671 0.150932
H27   H     H_    0.841553 0.137857 0.514882 0.170949
H28   H     H_    0.719782 0.001105 0.532763 0.120474
H29   H     H_    0.753352 0.060271 0.615585 0.169722
H30   H     H_    0.883375 0.073934 0.589467 0.094986
H31   H     H_    0.871729 0.201949 0.599934 0.168644
H32   H     H_    0.310650 0.196092 0.983104 0.165118
H33   H     H_    0.393477 0.244961 0.928951 0.128054
H34   H     H_    0.970724 0.318313 0.044387 0.129321
H35   H     H_    0.209584 0.182556 0.884724 0.172858
H36   H     H_    0.206475 0.063673 0.916628 0.094956
H37   H     H_    0.128151 0.132164 0.938827 0.150992
H38   H     H_    0.637437 0.820646 0.025327 0.169555
H39   H     H_    0.535396 0.810715 0.069786 0.119658
H40   H     H_    0.701638 0.903886 0.127514 0.187773
H41   H     H_    0.671886 0.764114 0.106500 0.104094
H42   H     H_    0.794713 0.894492 0.083549 0.147715
H43   H     H_    0.804516 0.569420 0.452596 0.099105
H44   H     H_    0.872742 0.569922 0.397715 0.130585
H45   H     H_    0.295953 0.882885 0.462802 0.164680
H46   H     H_    0.938440 0.779540 0.387151 0.168662
H47   H     H_    0.782577 0.692379 0.393000 0.097133
H48   H     H_    0.869316 0.778941 0.441901 0.154868
H49   H     H_    0.183320 0.362724 0.025322 0.169552
H50   H     H_    0.275490 0.464781 0.069759 0.119618
H51   H     H_    0.202349 0.298405 0.127513 0.187721
H52   H     H_    0.092483 0.328330 0.106514 0.104160
H53   H     H_    0.099824 0.205353 0.083570 0.147671
H54   H     H_    0.745129 0.299983 0.452765 0.150581
H55   H     H_    0.616587 0.226076 0.416321 0.095733
H56   H     H_    0.681581 0.652229 0.044346 0.129281
H57   H     H_    0.728300 0.199634 0.353796 0.161573
H58   H     H_    0.790728 0.351169 0.369091 0.082901
H59   H     H_    0.858443 0.269670 0.389062 0.168236
H60   H     H_    0.179362 0.816873 0.025260 0.169514
H61   H     H_    0.189263 0.724597 0.069684 0.119602
H62   H     H_    0.096138 0.797714 0.127463 0.187658
H63   H     H_    0.235875 0.907649 0.106457 0.104124
H64   H     H_    0.105643 0.900379 0.083530 0.147701
H65   H     H_    0.454382 0.240314 0.450466 0.087605
H66   H     H_    0.441203 0.299263 0.395110 0.131560
H67   H     H_    0.352607 0.038921 0.958532 0.119369
H68   H     H_    0.234094 0.140808 0.389639 0.168903
H69   H     H_    0.333493 0.085794 0.393449 0.101125
H70   H     H_    0.250377 0.081252 0.444349 0.166050
H71   H     H_    0.011728 0.335462 0.543818 0.135891
H72   H     H_    0.686355 0.647351 0.958550 0.119359
O1    O     O_R   0.530190 0.870330 0.301660 -0.501179
O2    O     O_R   0.870330 0.530190 0.698340 -0.515528
O3    O     O_R   0.469810 0.340140 0.801660 -0.505019
O4    O     O_R   0.659860 0.129670 0.698340 -0.509537
O5    O     O_R   0.494300 0.651190 0.297490 -0.493281
O6    O     O_R   0.156890 0.505700 0.202510 -0.498237
O7    O     O_R   0.348810 0.843110 0.297490 -0.493335
O8    O     O_R   0.494300 0.651190 0.202510 -0.498260
O9    O     O_R   0.156890 0.505700 0.297490 -0.490497
O10   O     O_R   0.348810 0.843110 0.202510 -0.498221
O11   O     O_R   0.651190 0.494300 0.797490 -0.495367
O12   O     O_R   0.340140 0.469810 0.198340 -0.512968
O13   O     O_R   0.505700 0.156890 0.702510 -0.496795
O14   O     O_R   0.843110 0.348810 0.797490 -0.495571
O15   O     O_R   0.651190 0.494300 0.702510 -0.497386
O16   O     O_R   0.505700 0.156890 0.797490 -0.495498
O17   O     O_R   0.843110 0.348810 0.702510 -0.491619
O18   O     O_3   0.333333 0.666667 0.250000 -0.240204
O19   O     O_3   0.666667 0.333333 0.750000 -0.241188
O20   O     O_3   0.982379 0.663793 0.548377 -0.535911
O21   O     O_3   0.660169 0.976028 0.951010 -0.552021
O22   O     O_3   0.343767 0.309128 0.546663 -0.529916
O23   O     O_R   0.129670 0.659860 0.301660 -0.502989
O24   O     O_3   0.023870 0.684137 0.950968 -0.551895
O25   O     O_3   0.704623 0.153196 0.540156 -0.559297
O26   O     O_3   0.315891 0.339880 0.951009 -0.551882
O27   O     O_3   0.663598 0.979126 0.049159 -0.562151
O28   O     O_3   0.987134 0.666415 0.451393 -0.532516
O29   O     O_3   0.315474 0.336391 0.049148 -0.562116
O30   O     O_3   0.686404 0.124982 0.442690 -0.552088
O31   O     O_3   0.020960 0.684613 0.049103 -0.562063
O32   O     O_3   0.344683 0.312316 0.449817 -0.525803
O33   O     O_R   0.530190 0.870330 0.198340 -0.512386
O34   O     O_R   0.340140 0.469810 0.301660 -0.499698
O35   O     O_R   0.129670 0.659860 0.198340 -0.512920
O36   O     O_R   0.870330 0.530190 0.801660 -0.505285
O37   O     O_R   0.469810 0.340140 0.698340 -0.508650
O38   O     O_R   0.659860 0.129670 0.801660 -0.506076

loop_
_geom_bond_atom_site_label_1
_geom_bond_atom_site_label_2
_ccdc_geom_bond_type
C84   O27   S    
C92   H59   S    
C79   H26   S    
Cr6   O19   S    
C93   C94   S    
Cr1   O1    S    
C49   C68   S    
C71   H5    S    
C88   H49   S    
C53   C63   S    
C73   C74   S    
C91   H54   S    
C95   C96   S    
C18   C26   A    
C24   C27   A    
C48   C69   S    
C93   O31   S    
C95   H66   S    
C85   H41   S    
C7    C70   T    
C83   H37   S    
C44   C65   S    
C19   C46   A    
Cr1   O8    S    
C32   C51   A    
C20   C30   A    
Cr4   O19   S    
Cr5   O37   S    
C2    O37   A    
C76   H18   S    
C92   H57   S    
C76   H19   S    
C93   H60   S    
C91   H55   S    
C12   O35   A    
C23   O7    A    
C37   C40   A    
C26   C52   A    
Cr3   O18   S    
C24   H56   S    
C81   H29   S    
C15   C78   S    
C23   O1    A    
C93   H61   S    
C45   O23   A    
C30   C57   A    
C94   H63   S    
C82   H33   S    
C73   H11   S    
C85   H42   S    
C42   O31   S    
C37   O26   S    
C6    C64   T    
C4    C13   S    
C34   O12   A    
C1    O34   A    
Cr1   O18   S    
Cr4   O15   S    
C33   O22   S    
C87   H48   S    
Cr4   O2    S    
C14   C67   S    
C36   O25   S    
C32   C38   A    
C90   H52   S    
C77   O24   S    
C86   O28   S    
C21   H34   S    
C91   O30   S    
C21   C48   A    
C37   C53   A    
C75   O22   S    
C95   O32   S    
C77   C79   S    
C72   H9    S    
C96   H70   S    
C16   C89   S    
C36   C54   A    
C1    C7    S    
C71   H6    S    
C30   H4    S    
C43   O32   S    
C88   H50   S    
C4    O17   A    
Cr2   O34   S    
C36   C41   A    
C75   H16   S    
C32   O21   S    
C11   C59   T    
C86   H44   S    
C27   H72   S    
C41   C49   A    
C22   C28   A    
Cr5   O19   S    
C10   C66   T    
C24   C50   A    
C72   H8    S    
C80   H28   S    
C87   H46   S    
C35   C55   A    
C33   C43   A    
C3    C11   S    
C84   C85   S    
C29   H3    S    
C5    C65   T    
Cr5   O16   S    
C67   O3    A    
C3    O16   A    
C91   C92   S    
C28   C54   A    
C86   C87   S    
C9    C23   S    
C71   O20   S    
C13   C58   T    
C29   C55   A    
C19   H12   S    
C80   O25   S    
C21   C29   A    
C38   O27   S    
Cr6   O14   S    
C46   C64   S    
C41   O30   S    
C82   H32   S    
C75   C76   S    
C25   C51   A    
C47   C70   S    
C82   O26   S    
C77   H21   S    
C2    O15   A    
C18   C44   A    
C50   C66   S    
C28   H2    S    
C40   O29   S    
C8    C12   S    
C74   H14   S    
Cr3   O23   S    
Cr6   O17   S    
C8    C69   T    
C75   H17   S    
C10   C34   S    
C42   C48   A    
Cr1   O33   S    
C90   H51   S    
C96   H69   S    
Cr3   O10   S    
C39   C44   A    
C52   C58   S    
C22   C49   A    
Cr2   O18   S    
C12   O6    A    
C79   H24   S    
C88   C90   S    
C73   O21   S    
C87   H47   S    
Cr6   O4    S    
C89   O14   A    
C51   C59   S    
C16   C61   T    
Cr2   O6    S    
C86   H43   S    
C94   H62   S    
C83   H35   S    
C45   O9    A    
C73   H10   S    
Cr2   O9    S    
Cr3   O35   S    
C25   H67   S    
C3    O38   A    
C74   H15   S    
C79   H25   S    
C72   H7    S    
C33   C57   A    
C80   H27   S    
C78   O4    A    
C6    C56   S    
C80   C81   S    
C81   H30   S    
C95   H65   S    
C85   H40   S    
C31   O20   S    
C27   C53   A    
C81   H31   S    
C89   O36   A    
C56   O10   A    
C26   H71   S    
C31   C52   A    
C92   H58   S    
C76   H20   S    
Cr4   O11   S    
C9    C68   T    
C20   H23   S    
Cr2   O12   S    
C77   H22   S    
C1    O5    A    
Cr6   O38   S    
C56   O33   A    
C5    C45   S    
C84   H39   S    
C40   C50   A    
C74   H13   S    
C55   C61   S    
Cr4   O36   S    
C35   C42   A    
C15   C62   T    
C31   C39   A    
C34   O8    A    
C14   C63   T    
C18   H1    S    
C83   H36   S    
C88   O29   S    
C19   C25   A    
C94   H64   S    
C38   C46   A    
C20   C47   A    
Cr1   O5    S    
C17   C60   T    
C57   C60   S    
C71   C72   S    
C22   H45   S    
C84   H38   S    
C82   C83   S    
C4    O2    A    
C39   O28   S    
C54   C62   S    
Cr3   O7    S    
C96   H68   S    
C78   O13   A    
C90   H53   S    
Cr5   O13   S    
C43   C47   A    
Cr5   O3    S    
C67   O11   A    
C35   O24   S    
C2    C17   S    
