data_mof_unit_63269.cif
_audit_creation_date              2012-12-10T16:54:13-0500
_audit_creation_method            fapswitch 2.2
_symmetry_space_group_name_H-M    P1
_symmetry_Int_Tables_number       1
_space_group_crystal_system       triclinic
_cell_length_a                    18.534704
_cell_length_b                    18.526706
_cell_length_c                    42.981151
_cell_angle_alpha                 90.010584
_cell_angle_beta                  90.011406
_cell_angle_gamma                 90.059739
_cell_volume                      14759.1604386

loop_
_atom_site_label
_atom_site_type_symbol
_atom_type_description
_atom_site_fract_x
_atom_site_fract_y
_atom_site_fract_z
_atom_type_partial_charge
C1    C     C_R   0.500001 0.000006 0.584194 0.498794
C2    C     C_R   0.000015 0.500005 0.281358 0.357774
C3    C     C_R   0.955409 0.547399 0.332111 -0.096803
C4    C     C_R   0.953437 0.455182 0.832082 -0.097708
C5    C     C_R   0.544605 0.952595 0.832111 -0.096973
C6    C     C_R   0.046812 0.546099 0.832223 -0.096422
C7    C     C_R   0.455422 0.047413 0.832110 -0.097103
C8    C     C_R   0.499988 0.999991 0.315758 -0.063239
C9    C     C_R   0.000006 0.499995 0.315682 -0.057615
C10   C     C_R   0.000195 0.500680 0.815720 -0.060606
C11   C     C_R   0.500017 0.000007 0.815681 -0.057801
C12   C     C_R   0.499982 0.000006 0.381445 0.013083
C13   C     C_R   0.000187 0.500804 0.781389 0.359163
C14   C     C_R   0.999993 0.499984 0.381388 -0.010088
C15   C     C_R   0.999989 0.500360 0.881417 0.001504
C16   C     C_R   0.500000 0.999992 0.881387 -0.010105
C17   C     C_3   0.103029 0.793856 0.494740 -0.360330
C18   C     C_3   0.206726 0.107001 0.487096 -0.360186
C19   C     C_3   0.897000 0.206140 0.494831 -0.360404
C20   C     C_3   0.793269 0.892987 0.487111 -0.360183
C21   C     C_3   0.851393 0.758840 0.452910 -0.295284
C22   C     C_3   0.771783 0.134963 0.459187 -0.318784
C23   C     C_3   0.148567 0.241131 0.452906 -0.295290
C24   C     C_R   0.500025 0.000015 0.781357 0.357666
C25   C     C_3   0.228304 0.864874 0.459110 -0.318717
C26   C     C_3   0.607237 0.293266 0.986975 -0.357863
C27   C     C_3   0.706745 0.607144 0.986967 -0.358486
C28   C     C_3   0.397095 0.706152 0.995062 -0.360343
C29   C     C_3   0.293235 0.392909 0.986975 -0.359522
C30   C     C_3   0.351193 0.258625 0.952823 -0.297472
C31   C     C_3   0.272164 0.634532 0.959408 -0.319042
C32   C     C_3   0.648874 0.741434 0.952787 -0.295099
C33   C     C_3   0.741631 0.350948 0.952729 -0.297387
C34   C     C_R   0.936285 0.486318 0.667424 -0.114733
C35   C     C_R   0.513855 0.936121 0.667386 -0.114838
C36   C     C_R   0.063904 0.514815 0.667386 -0.114949
C37   C     C_R   0.486189 0.063922 0.667392 -0.114911
C38   C     C_R   0.436305 0.985305 0.167416 -0.114533
C39   C     C_R   0.013860 0.436120 0.167386 -0.114738
C40   C     C_R   0.563732 0.014629 0.167430 -0.114548
C41   C     C_R   0.000011 0.500028 0.584194 0.497898
C42   C     C_R   0.986186 0.563919 0.167393 -0.114716
C43   C     C_R   0.936173 0.486487 0.634977 -0.123989
C44   C     C_R   0.513461 0.936040 0.634943 -0.123914
C45   C     C_R   0.063956 0.514187 0.634938 -0.123949
C46   C     C_R   0.486568 0.063995 0.634949 -0.123966
C47   C     C_R   0.436215 0.985726 0.134965 -0.123771
C48   C     C_R   0.013466 0.436040 0.134943 -0.123856
C49   C     C_R   0.563818 0.014226 0.134978 -0.123798
C50   C     C_R   0.986566 0.563994 0.134949 -0.123880
C51   C     C_R   0.000050 0.500213 0.618451 0.035862
C52   C     C_R   0.000002 0.500006 0.084194 0.498576
C53   C     C_R   0.500009 0.000015 0.618444 0.035827
C54   C     C_R   0.500015 0.999983 0.118461 0.035863
C55   C     C_R   0.000011 0.500015 0.118444 0.035860
C56   C     C_R   0.000111 0.500673 0.683942 0.033869
C57   C     C_R   0.500026 0.000023 0.683923 0.033853
C58   C     C_R   0.500019 0.999964 0.183964 0.033967
C59   C     C_R   0.000025 0.500020 0.183924 0.033892
C60   C     C_R   0.499994 0.000002 0.415797 0.622823
C61   C     C_R   0.999999 0.499994 0.415773 0.577126
C62   C     C_R   0.999992 0.500071 0.915787 0.599998
C63   C     C_R   0.500006 0.999997 0.084197 0.498004
C64   C     C_R   0.499999 0.999996 0.915773 0.577422
C65   C     C_R   0.360714 0.137908 0.500305 0.515734
C66   C     C_R   0.862118 0.360729 0.500305 0.510791
C67   C     C_R   0.639281 0.862094 0.500305 0.515671
C68   C     C_R   0.137885 0.639269 0.500309 0.510793
C69   C     C_R   0.639428 0.138181 0.500234 0.508799
C70   C     C_R   0.138490 0.360961 0.499996 0.528828
C71   C     C_R   0.360572 0.861821 0.500228 0.508811
C72   C     C_R   0.861515 0.639036 0.499997 0.528754
C73   C     C_R   0.860719 0.637915 0.000302 0.514627
C74   C     C_R   0.000137 0.500793 0.718247 0.345450
C75   C     C_R   0.362116 0.860731 0.000303 0.510631
C76   C     C_R   0.139280 0.362092 0.000303 0.511861
C77   C     C_R   0.637901 0.139281 0.000300 0.510829
C78   C     C_R   0.139440 0.638171 0.000240 0.509960
C79   C     C_R   0.638499 0.860974 0.999990 0.528851
C80   C     C_R   0.860983 0.361503 0.999992 0.527984
C81   C     C_R   0.361508 0.139029 0.999992 0.528731
C82   C     C_2   0.179200 0.764232 0.493761 -0.011252
C83   C     C_2   0.237970 0.182301 0.490136 -0.014381
C84   C     C_2   0.820824 0.235743 0.493802 -0.011251
C85   C     C_R   0.500030 0.000024 0.718221 0.345502
C86   C     C_2   0.762022 0.817690 0.490142 -0.014361
C87   C     C_2   0.809206 0.756024 0.483024 -0.038515
C88   C     C_2   0.761276 0.185694 0.486428 -0.033884
C89   C     C_2   0.190778 0.243962 0.483021 -0.038507
C90   C     C_2   0.238759 0.814248 0.486384 -0.033958
C91   C     C_2   0.682417 0.261987 0.990055 -0.015793
C92   C     C_2   0.738041 0.682406 0.990058 -0.015167
C93   C     C_2   0.320903 0.735690 0.993909 -0.011115
C94   C     C_2   0.261976 0.317632 0.990077 -0.014881
C95   C     C_2   0.309122 0.255932 0.982969 -0.039216
C96   C     C_R   0.500016 0.999963 0.218274 0.345473
C97   C     C_2   0.261420 0.685550 0.986534 -0.033931
C98   C     C_2   0.690913 0.744107 0.982948 -0.038767
C99   C     C_2   0.744140 0.309100 0.982939 -0.039191
C100  C     C_2   0.194011 0.693954 0.499002 -0.068161
C101  C     C_2   0.306971 0.194838 0.498622 -0.066310
C102  C     C_2   0.805999 0.306038 0.498994 -0.068095
C103  C     C_2   0.693024 0.805161 0.498622 -0.066277
C104  C     C_2   0.811394 0.699448 0.502901 -0.086149
C105  C     C_2   0.700074 0.188176 0.503612 -0.093411
C106  C     C_2   0.188608 0.300549 0.502900 -0.086178
C107  C     C_R   0.000026 0.500018 0.218222 0.345559
C108  C     C_2   0.299928 0.811833 0.503600 -0.093391
C109  C     C_2   0.694852 0.193026 0.998592 -0.069380
C110  C     C_2   0.807014 0.694878 0.998602 -0.066437
C111  C     C_2   0.306019 0.806014 0.999001 -0.068121
C112  C     C_2   0.193007 0.305145 0.998612 -0.069563
C113  C     C_2   0.311378 0.199433 0.002884 -0.086282
C114  C     C_2   0.200083 0.688173 0.003627 -0.093701
C115  C     C_2   0.688636 0.800584 0.002881 -0.086103
C116  C     C_2   0.800542 0.311400 0.002895 -0.085912
C117  C     C_R   0.454347 0.952090 0.364728 0.216060
C118  C     C_R   0.499999 0.999979 0.281423 0.360775
C119  C     C_R   0.046122 0.452642 0.364642 0.177128
C120  C     C_R   0.545615 0.047919 0.364741 0.216048
C121  C     C_R   0.953866 0.547327 0.364641 0.177140
C122  C     C_R   0.953403 0.453524 0.864606 0.170247
C123  C     C_R   0.546133 0.952655 0.864641 0.177060
C124  C     C_R   0.046556 0.547520 0.864768 0.223598
C125  C     C_R   0.453879 0.047341 0.864640 0.177930
C126  C     C_R   0.454187 0.953622 0.332189 -0.096873
C127  C     C_R   0.044593 0.452582 0.332111 -0.096810
C128  C     C_R   0.545782 0.046371 0.332202 -0.096867
H1    H     H_    0.249366 0.674927 0.500102 0.095441
H2    H     H_    0.826155 0.749646 0.002364 0.101069
H3    H     H_    0.250649 0.825032 0.999982 0.095107
H4    H     H_    0.173882 0.250377 0.002372 0.099877
H5    H     H_    0.277690 0.199723 0.023580 0.097202
H6    H     H_    0.195883 0.726582 0.022655 0.101694
H7    H     H_    0.722312 0.800282 0.023586 0.096754
H8    H     H_    0.800116 0.277810 0.023626 0.097034
H9    H     H_    0.418891 0.917439 0.319539 0.195504
H10   H     H_    0.079413 0.416021 0.319463 0.195625
H11   H     H_    0.581082 0.082548 0.319562 0.195501
H12   H     H_    0.326101 0.249623 0.502344 0.100885
H13   H     H_    0.920592 0.583963 0.319462 0.195618
H14   H     H_    0.917433 0.419793 0.819385 0.196465
H15   H     H_    0.579428 0.916037 0.819463 0.195588
H16   H     H_    0.082802 0.581669 0.819626 0.194378
H17   H     H_    0.420608 0.083979 0.819462 0.195361
H18   H     H_    0.886218 0.475492 0.679544 0.146147
H19   H     H_    0.524435 0.885976 0.679488 0.146111
H20   H     H_    0.113989 0.525791 0.679478 0.145894
H21   H     H_    0.475614 0.114069 0.679499 0.145978
H22   H     H_    0.386303 0.974081 0.179520 0.146133
H23   H     H_    0.750640 0.325064 0.500058 0.095438
H24   H     H_    0.024442 0.385975 0.179488 0.146205
H25   H     H_    0.613736 0.025847 0.179544 0.146101
H26   H     H_    0.975607 0.614065 0.179500 0.146198
H27   H     H_    0.886155 0.475392 0.622846 0.141954
H28   H     H_    0.524154 0.885961 0.622795 0.141964
H29   H     H_    0.113952 0.525127 0.622774 0.141953
H30   H     H_    0.475869 0.114070 0.622804 0.141898
H31   H     H_    0.386279 0.974395 0.122811 0.141926
H32   H     H_    0.024163 0.385962 0.122794 0.142060
H33   H     H_    0.613752 0.025564 0.122833 0.141841
H34   H     H_    0.673895 0.750378 0.502339 0.100900
H35   H     H_    0.975864 0.614068 0.122805 0.141978
H36   H     H_    0.103510 0.853735 0.495999 0.119245
H37   H     H_    0.072923 0.777946 0.473491 0.167111
H38   H     H_    0.074390 0.773873 0.515746 0.129494
H39   H     H_    0.146896 0.108888 0.485837 0.118417
H40   H     H_    0.226623 0.080686 0.465549 0.172193
H41   H     H_    0.221172 0.073903 0.507719 0.130598
H42   H     H_    0.896531 0.146264 0.496112 0.119266
H43   H     H_    0.927140 0.221998 0.473591 0.167051
H44   H     H_    0.925597 0.226192 0.515842 0.129447
H45   H     H_    0.777642 0.699670 0.523578 0.096729
H46   H     H_    0.853098 0.891095 0.485859 0.118420
H47   H     H_    0.773367 0.919292 0.465563 0.172181
H48   H     H_    0.778831 0.926097 0.507734 0.130608
H49   H     H_    0.834250 0.805097 0.438247 0.142888
H50   H     H_    0.909911 0.765266 0.457689 0.156500
H51   H     H_    0.841101 0.709138 0.439219 0.238654
H52   H     H_    0.774366 0.078183 0.467373 0.149881
H53   H     H_    0.727290 0.142068 0.442224 0.203802
H54   H     H_    0.822656 0.146707 0.446522 0.138355
H55   H     H_    0.165693 0.194863 0.438241 0.142892
H56   H     H_    0.696007 0.226439 0.522701 0.101651
H57   H     H_    0.090052 0.234715 0.457683 0.156481
H58   H     H_    0.158853 0.290824 0.439217 0.238663
H59   H     H_    0.225681 0.921683 0.467263 0.149991
H60   H     H_    0.272842 0.857722 0.442179 0.203673
H61   H     H_    0.177465 0.853064 0.446420 0.138421
H62   H     H_    0.609294 0.353112 0.985654 0.118843
H63   H     H_    0.580890 0.273251 0.965443 0.171994
H64   H     H_    0.574116 0.278961 0.007612 0.132221
H65   H     H_    0.646924 0.609092 0.985646 0.118627
H66   H     H_    0.726735 0.580837 0.965433 0.172977
H67   H     H_    0.222374 0.300338 0.523579 0.096665
H68   H     H_    0.721046 0.574016 0.007599 0.131140
H69   H     H_    0.396668 0.646286 0.996422 0.119409
H70   H     H_    0.427353 0.721892 0.973837 0.166877
H71   H     H_    0.425550 0.726375 0.016080 0.129508
H72   H     H_    0.353058 0.390995 0.985680 0.118742
H73   H     H_    0.273259 0.419144 0.965423 0.171125
H74   H     H_    0.278889 0.426095 0.007587 0.131836
H75   H     H_    0.333974 0.304808 0.938133 0.140923
H76   H     H_    0.409728 0.265095 0.957552 0.157624
H77   H     H_    0.340866 0.208855 0.939182 0.237928
H78   H     H_    0.303967 0.773635 0.522708 0.101651
H79   H     H_    0.274601 0.577834 0.967707 0.149896
H80   H     H_    0.227867 0.641499 0.942340 0.203695
H81   H     H_    0.323179 0.646094 0.946819 0.138022
H82   H     H_    0.666113 0.695262 0.938091 0.143024
H83   H     H_    0.590336 0.734953 0.957495 0.156840
H84   H     H_    0.659209 0.791216 0.939166 0.238713
H85   H     H_    0.735229 0.409543 0.957362 0.157552
H86   H     H_    0.791421 0.340521 0.939152 0.237398
H87   H     H_    0.695492 0.333578 0.938027 0.141228
H88   H     H_    0.403541 0.821281 0.424520 0.357426
H89   H     H_    0.749581 0.173919 0.002328 0.100265
H90   H     H_    0.170535 0.478370 0.404621 0.337702
H91   H     H_    0.596476 0.178664 0.424579 0.357459
H92   H     H_    0.829463 0.521580 0.404601 0.337707
H93   H     H_    0.980209 0.329552 0.904727 0.336911
H94   H     H_    0.670536 0.978428 0.904615 0.337836
H95   H     H_    0.098629 0.678573 0.924317 0.357145
H96   H     H_    0.329453 0.021608 0.904584 0.337327
N1    N     N_R   0.555506 0.029883 0.265332 -0.204711
N2    N     N_R   0.471714 0.056312 0.734313 -0.215887
N3    N     N_R   0.944173 0.471798 0.734339 -0.215669
N4    N     N_R   0.528344 0.943731 0.734307 -0.215571
N5    N     N_R   0.555599 0.029720 0.234376 -0.215121
N6    N     N_R   0.971707 0.556305 0.234314 -0.215433
N7    N     N_R   0.444425 0.970214 0.234359 -0.215120
N8    N     N_R   0.028342 0.443726 0.234307 -0.215413
N9    N     N_R   0.971554 0.556222 0.265266 -0.205925
N10   N     N_R   0.444501 0.970066 0.265316 -0.204702
N11   N     N_R   0.028483 0.443795 0.265259 -0.205920
N12   N     N_R   0.056072 0.529980 0.765295 -0.205982
N13   N     N_R   0.471565 0.056232 0.765265 -0.206499
N14   N     N_R   0.944278 0.471655 0.765290 -0.205372
N15   N     N_R   0.528489 0.943802 0.765259 -0.206064
N16   N     N_R   0.056127 0.529820 0.734337 -0.215501
O1    O     O_3   0.500000 0.000000 0.500000 -0.454559
O2    O     O_R   0.560150 1.000000 0.069320 -0.548221
O3    O     O_R   0.000000 0.560150 0.069320 -0.547815
O4    O     O_R   0.439850 1.000000 0.069320 -0.548088
O5    O     O_R   0.439930 0.000000 0.430670 -0.475200
O6    O     O_R   1.000000 0.439930 0.430670 -0.471509
O7    O     O_R   0.560070 0.000000 0.430670 -0.475180
O8    O     O_R   1.000000 0.560070 0.430670 -0.471486
O9    O     O_R   0.939930 0.500000 0.930670 -0.463838
O10   O     O_R   0.500000 0.939930 0.930670 -0.471480
O11   O     O_R   0.060070 0.500000 0.930670 -0.483108
O12   O     O_3   0.000000 0.500000 0.500000 -0.456300
O13   O     O_R   0.500000 0.060070 0.930670 -0.471800
O14   O     O_R   0.415450 0.144560 0.518170 -0.538764
O15   O     O_R   0.855440 0.415450 0.518170 -0.537901
O16   O     O_R   0.584550 0.855440 0.518170 -0.538753
O17   O     O_R   0.144560 0.584550 0.518170 -0.537961
O18   O     O_R   0.584550 0.144560 0.518170 -0.535041
O19   O     O_R   0.144560 0.415450 0.518170 -0.536797
O20   O     O_R   0.415450 0.855440 0.518170 -0.535011
O21   O     O_R   0.855440 0.584550 0.518170 -0.536783
O22   O     O_R   0.915450 0.644560 0.018170 -0.539064
O23   O     O_3   0.000000 0.500000 0.000000 -0.455122
O24   O     O_R   0.355440 0.915450 0.018170 -0.538019
O25   O     O_R   0.084550 0.355440 0.018170 -0.537825
O26   O     O_R   0.644560 0.084550 0.018170 -0.538135
O27   O     O_R   0.084550 0.644560 0.018170 -0.534771
O28   O     O_R   0.644560 0.915450 0.018170 -0.536684
O29   O     O_R   0.915450 0.355440 0.018170 -0.537084
O30   O     O_R   0.355440 0.084550 0.018170 -0.536856
O31   O     O_R   0.644640 0.915430 0.481820 -0.538291
O32   O     O_R   0.084570 0.644640 0.481820 -0.541848
O33   O     O_R   0.355360 0.084570 0.481820 -0.538266
O34   O     O_3   0.500000 0.000000 0.000000 -0.456027
O35   O     O_R   0.915430 0.355360 0.481820 -0.541869
O36   O     O_R   0.355360 0.915430 0.481820 -0.539455
O37   O     O_R   0.915430 0.644640 0.481820 -0.524952
O38   O     O_R   0.644640 0.084570 0.481820 -0.539431
O39   O     O_R   0.084570 0.355360 0.481820 -0.524934
O40   O     O_R   0.144640 0.415430 0.981820 -0.542785
O41   O     O_R   0.584570 0.144640 0.981820 -0.543645
O42   O     O_R   0.855360 0.584570 0.981820 -0.539389
O43   O     O_R   0.415430 0.855360 0.981820 -0.541876
O44   O     O_R   0.855360 0.415430 0.981820 -0.526768
O45   O     O_R   0.500000 0.939850 0.569320 -0.547710
O46   O     O_R   0.415430 0.144640 0.981820 -0.524684
O47   O     O_R   0.144640 0.584570 0.981820 -0.537240
O48   O     O_R   0.584570 0.855360 0.981820 -0.524978
O49   O     O_2   0.331325 0.926676 0.394876 -0.280933
O50   O     O_2   0.375266 0.830066 0.360967 -0.256839
O51   O     O_3   0.440781 0.850166 0.413636 -0.524522
O52   O     O_2   0.066988 0.328687 0.394709 -0.248615
O53   O     O_2   0.164908 0.368593 0.360760 -0.259242
O54   O     O_3   0.148058 0.434459 0.413518 -0.520711
O55   O     O_2   0.668661 0.073341 0.394893 -0.280976
O56   O     O_R   0.060150 0.500000 0.569320 -0.548358
O57   O     O_2   0.624668 0.169959 0.361009 -0.256790
O58   O     O_3   0.559213 0.149827 0.413674 -0.524484
O59   O     O_2   0.932968 0.671288 0.394716 -0.248635
O60   O     O_2   0.835054 0.631338 0.360750 -0.259251
O61   O     O_3   0.851932 0.565499 0.413505 -0.520712
O62   O     O_2   0.829514 0.431043 0.894450 -0.247770
O63   O     O_2   0.870896 0.333491 0.860641 -0.261769
O64   O     O_3   0.935970 0.351481 0.913522 -0.523968
O65   O     O_2   0.567026 0.828713 0.894712 -0.248707
O66   O     O_2   0.664936 0.868631 0.860760 -0.259556
O67   O     O_R   0.500000 0.060150 0.569320 -0.547761
O68   O     O_3   0.648075 0.934512 0.913515 -0.520832
O69   O     O_2   0.169737 0.571132 0.895138 -0.282644
O70   O     O_2   0.127604 0.668261 0.861087 -0.258872
O71   O     O_3   0.061284 0.649396 0.913635 -0.521071
O72   O     O_2   0.433010 0.171291 0.894726 -0.250084
O73   O     O_2   0.335097 0.131395 0.860747 -0.262971
O74   O     O_3   0.351933 0.065513 0.913496 -0.521663
O75   O     O_R   0.939850 0.500000 0.569320 -0.548232
O76   O     O_R   1.000000 0.439850 0.069320 -0.548172
S1    S     S_3+6 0.397538 0.888262 0.383393 0.027326
S2    S     S_3+6 0.107860 0.393448 0.383187 0.021855
S3    S     S_3+6 0.602429 0.111749 0.383421 0.027366
S4    S     S_3+6 0.892113 0.606509 0.383183 0.021854
S5    S     S_3+6 0.894834 0.390991 0.883082 0.019619
S6    S     S_3+6 0.607885 0.893480 0.883187 0.021534
S7    S     S_3+6 0.104227 0.610505 0.883502 0.027473
S8    S     S_3+6 0.392138 0.106533 0.883182 0.019555
Zn1   Zn    Zn3+2 0.414160 1.000000 0.474030 0.997665
Zn2   Zn    Zn3+2 0.914220 0.500000 0.525960 0.947924
Zn3   Zn    Zn3+2 0.500000 0.914220 0.525960 0.948428
Zn4   Zn    Zn3+2 0.085780 0.500000 0.525960 0.947869
Zn5   Zn    Zn3+2 0.000000 0.585780 0.025960 0.948395
Zn6   Zn    Zn3+2 0.414220 1.000000 0.025960 0.948061
Zn7   Zn    Zn3+2 1.000000 0.414220 0.025960 0.948839
Zn8   Zn    Zn3+2 0.585780 1.000000 0.025960 0.948450
Zn9   Zn    Zn3+2 0.000000 0.414160 0.474030 1.000725
Zn10  Zn    Zn3+2 0.585840 1.000000 0.474030 0.997625
Zn11  Zn    Zn3+2 0.000000 0.585840 0.474030 1.000687
Zn12  Zn    Zn3+2 0.914160 0.500000 0.974030 1.009115
Zn13  Zn    Zn3+2 0.500000 0.914160 0.974030 1.000769
Zn14  Zn    Zn3+2 0.085840 0.500000 0.974030 0.988314
Zn15  Zn    Zn3+2 0.500000 0.085840 0.974030 0.999520
Zn16  Zn    Zn3+2 0.500000 0.085780 0.525960 0.948419

loop_
_geom_bond_atom_site_label_1
_geom_bond_atom_site_label_2
_ccdc_geom_bond_type
C73   O42   A    
C34   C56   A    
O18   Zn16  S    
O5    Zn1   S    
C72   O21   A    
C128  H11   S    
C68   O32   A    
C22   H53   S    
C4    H14   S    
C5    H15   S    
C20   H47   S    
C54   C63   S    
C44   C53   A    
C36   H20   S    
C80   C116  S    
C89   C106  D    
C23   C89   S    
O56   Zn4   S    
C117  C126  A    
C102  H23   S    
C21   H49   S    
C14   C121  A    
C113  H5    S    
C71   C108  S    
C66   O35   A    
O3    Zn5   S    
O59   S4    D    
C40   C58   A    
C76   O40   A    
C108  H78   S    
O27   Zn5   S    
C99   C116  D    
C69   C105  S    
O23   Zn7   S    
O70   S7    D    
C31   H79   S    
C17   H36   S    
C2    N9    A    
C31   H81   S    
O34   Zn15  S    
O1    Zn3   S    
C4    C122  A    
C85   N4    A    
C106  H67   S    
C13   N12   A    
C64   O10   A    
O74   S8    S    
C70   O19   A    
O36   Zn1   S    
O68   S6    S    
O34   Zn8   S    
C29   H74   S    
H93   O64   S    
C84   C88   S    
O1    Zn16  S    
C23   H58   S    
O71   S7    S    
C26   H63   S    
H92   O61   S    
O55   S3    D    
O76   Zn7   S    
C28   H69   S    
O32   Zn11  S    
C30   H77   S    
C46   C53   A    
C81   O30   A    
C57   C85   S    
N7    N10   A    
C105  H56   S    
C74   N16   A    
O75   Zn2   S    
C12   C117  A    
C21   H51   S    
O23   Zn14  S    
C14   C119  A    
C27   H68   S    
O9    Zn12  S    
O58   S3    S    
O63   S5    D    
C37   C57   A    
C3    C121  A    
C79   C115  S    
C84   C102  D    
C3    H13   S    
C65   C101  S    
C33   H87   S    
C67   C103  S    
C73   C110  S    
O23   Zn5   S    
O7    Zn10  S    
C47   H31   S    
C67   O16   A    
O48   Zn13  S    
C48   H32   S    
C25   C90   S    
C42   H26   S    
C17   H38   S    
C29   C94   S    
C96   N7    A    
O31   Zn10  S    
C40   C49   A    
C46   H30   S    
O34   Zn13  S    
C77   O26   A    
C17   C82   S    
O35   Zn9   S    
O40   Zn14  S    
C25   H59   S    
O8    Zn11  S    
O26   Zn8   S    
C8    C128  A    
C20   H46   S    
C32   C98   S    
O64   S5    S    
C16   C125  A    
C49   H33   S    
C13   N14   A    
C60   O5    A    
O34   Zn6   S    
N2    N13   A    
C83   C89   S    
C28   H71   S    
C15   C124  A    
C65   O33   A    
C44   H28   S    
O43   Zn13  S    
C45   H29   S    
C19   H44   S    
O38   Zn10  S    
O62   S5    D    
C52   O3    A    
C32   H83   S    
C61   O6    A    
N3    N14   A    
C59   C107  S    
C33   C99   S    
C68   C100  S    
C23   H55   S    
O21   Zn2   S    
C3    C9    A    
O12   Zn9   S    
O37   Zn11  S    
C79   O28   A    
C114  H6    S    
C27   H66   S    
C96   N5    A    
O39   Zn9   S    
C77   C109  S    
O66   S6    D    
C42   C50   A    
C124  S7    S    
C111  H3    S    
O2    Zn8   S    
C40   H25   S    
O57   S3    D    
C6    H16   S    
O11   Zn14  S    
O12   Zn2   S    
O22   Zn5   S    
C64   O13   A    
C83   C101  D    
C125  S8    S    
C34   C43   A    
C42   C59   A    
C18   H39   S    
C78   O27   A    
C90   C108  D    
C22   H54   S    
C25   H61   S    
H90   O54   S    
C88   C105  D    
C92   C110  D    
C98   C115  D    
C20   H48   S    
C115  H7    S    
C69   O38   A    
O67   Zn16  S    
C94   C112  D    
C41   C51   S    
O44   Zn12  S    
C109  H89   S    
C122  S5    S    
C41   O75   A    
C60   O7    A    
O25   Zn7   S    
C77   O41   A    
C97   C114  D    
C2    C9    S    
O20   Zn3   S    
C24   N13   A    
C7    H17   S    
C119  C127  A    
C48   C55   A    
C126  H9    S    
C15   C122  A    
C93   C97   S    
C19   H42   S    
C1    O45   A    
H94   O68   S    
O60   S4    D    
C61   O8    A    
C30   H75   S    
C1    O67   A    
C9    C127  A    
C36   C45   A    
O30   Zn6   S    
C5    C11   A    
O12   Zn11  S    
C68   O17   A    
O52   S2    D    
C80   O29   A    
C120  S3    S    
C38   C58   A    
O29   Zn7   S    
C20   C86   S    
C127  H10   S    
C22   C88   S    
O12   Zn4   S    
C52   C55   S    
C67   O31   A    
C107  N8    A    
C78   C114  S    
C43   H27   S    
O13   Zn15  S    
O54   S2    S    
C56   C74   S    
O65   S6    D    
C92   C98   S    
H96   O74   S    
C29   H73   S    
C22   H52   S    
C70   C106  S    
C23   H57   S    
C26   H64   S    
C86   C87   S    
C72   C104  S    
C26   C91   S    
O72   S8    D    
C63   O2    A    
O50   S1    D    
O42   Zn12  S    
C70   O39   A    
C28   C93   S    
C30   C95   S    
C36   C56   A    
C32   H82   S    
C29   H72   S    
C39   C59   A    
C65   O14   A    
O24   Zn6   S    
C18   C83   S    
C7    C125  A    
C24   N15   A    
C93   C111  D    
C47   C54   A    
C21   H50   S    
C80   O44   A    
O73   S8    D    
C18   H41   S    
C75   O24   A    
C103  H34   S    
C33   H85   S    
C52   O76   A    
C50   H35   S    
C100  H1    S    
C37   H21   S    
C6    C10   A    
C33   H86   S    
C120  C128  A    
C104  H45   S    
C116  H8    S    
C75   C111  S    
C82   C90   S    
C119  S2    S    
C35   C57   A    
O19   Zn4   S    
C31   H80   S    
C17   H37   S    
C43   C51   A    
C15   C62   S    
C110  H2    S    
C31   C97   S    
C94   C95   S    
C28   H70   S    
C87   C104  D    
O49   S1    D    
C107  N6    A    
C81   C113  S    
O41   Zn15  S    
C45   C51   A    
C37   C46   A    
C39   C48   A    
C21   C87   S    
C123  S6    S    
O33   Zn1   S    
C66   C102  S    
C6    C124  A    
O53   S2    D    
C26   H62   S    
C8    C118  S    
C7    C11   A    
O47   Zn14  S    
C16   C123  A    
C19   H43   S    
C32   H84   S    
C63   O4    A    
C49   C54   A    
O15   Zn2   S    
C75   O43   A    
C11   C24   S    
N6    N9    A    
C72   O37   A    
O46   Zn15  S    
C58   C96   S    
C1    C53   S    
H91   O58   S    
C12   C120  A    
C62   O9    A    
O4    Zn6   S    
C27   H65   S    
C121  S4    S    
O16   Zn3   S    
C76   O25   A    
H95   O71   S    
C86   C103  D    
C101  H12   S    
C71   O36   A    
C118  N1    A    
O17   Zn4   S    
O6    Zn9   S    
N4    N15   A    
C18   H40   S    
C71   O20   A    
C14   C61   S    
C39   H24   S    
N8    N11   A    
C112  H4    S    
N12   N16   A    
C74   N3    A    
C25   H60   S    
C118  N10   A    
C76   C112  S    
O10   Zn13  S    
C27   C92   S    
O51   S1    S    
C35   H19   S    
C35   C44   A    
C38   C47   A    
O28   Zn8   S    
C4    C10   A    
C19   C84   S    
C78   O47   A    
C73   O22   A    
C8    C126  A    
C79   O48   A    
C62   O11   A    
C82   C100  D    
C10   C13   S    
C81   O46   A    
H88   O51   S    
C30   H76   S    
C5    C123  A    
O61   S4    S    
C50   C55   A    
C34   H18   S    
C91   C99   S    
O1    Zn10  S    
C91   C109  D    
O14   Zn16  S    
C117  S1    S    
C95   C113  D    
O69   S7    D    
C12   C60   S    
C41   O56   A    
C2    N11   A    
C66   O15   A    
N1    N5    A    
O1    Zn1   S    
C69   O18   A    
C85   N2    A    
C16   C64   S    
O45   Zn3   S    
C38   H22   S    
O23   Zn12  S    
