data_mof_unit_52535.cif
_audit_creation_date              2012-12-10T19:08:08-0500
_audit_creation_method            fapswitch 2.2
_symmetry_space_group_name_H-M    P1
_symmetry_Int_Tables_number       1
_space_group_crystal_system       triclinic
_cell_length_a                    9.067611
_cell_length_b                    10.881811
_cell_length_c                    9.687523
_cell_angle_alpha                 91.137308
_cell_angle_beta                  89.888487
_cell_angle_gamma                 94.425559
_cell_volume                      952.849674466

loop_
_atom_site_label
_atom_site_type_symbol
_atom_type_description
_atom_site_fract_x
_atom_site_fract_y
_atom_site_fract_z
_atom_type_partial_charge
C1    C     C_R   0.499172 0.263344 0.499076 0.802653
C2    C     C_R   0.434528 0.929483 0.389977 -0.155160
C3    C     C_R   0.490976 0.870036 0.504140 -0.069531
C4    C     C_R   0.539853 0.945106 0.615525 0.062683
C5    C     C_3   0.605466 0.948582 0.756865 -0.459415
C6    C     C_3   0.607844 0.090044 0.751847 -0.050768
C7    C     C_R   0.613980 0.556626 0.072625 0.145014
C8    C     C_R   0.394806 0.428281 0.072231 0.196693
C9    C     C_R   0.390211 0.435860 0.923909 0.070911
C10   C     C_R   0.621099 0.547410 0.927042 0.193468
C11   C     C_3   0.692599 0.675273 0.917543 -0.365248
C12   C     C_R   0.221057 0.499147 0.499999 0.834358
C13   C     C_3   0.673125 0.689526 0.074765 -0.202817
C14   C     C_R   0.498262 0.737112 0.501540 0.801606
C15   C     C_R   0.778859 0.500038 0.499885 0.846399
C16   C     C_1   0.065567 0.498870 0.499816 -0.178730
C17   C     C_1   0.934249 0.499164 0.499571 -0.131008
C18   C     C_R   0.541879 0.069417 0.612011 0.155399
C19   C     C_R   0.495791 0.130871 0.498363 -0.085938
C20   C     C_R   0.441270 0.058694 0.385331 -0.210141
Cu1   Cu    Cu3+1 0.499990 0.499980 0.640670 0.984484
Cu2   Cu    Cu3+1 0.500010 0.500020 0.359330 0.981523
H1    H     H_    0.403073 0.101515 0.294786 0.166692
H2    H     H_    0.621699 0.729717 0.854603 0.149319
H3    H     H_    0.383503 0.876716 0.305363 0.201394
H4    H     H_    0.524712 0.909831 0.833804 0.201386
H5    H     H_    0.716295 0.912325 0.758132 0.232730
H6    H     H_    0.529119 0.128698 0.826224 0.168933
N1    N     N_R   0.500920 0.500930 0.147930 -0.199626
N2    N     N_R   0.500930 0.500890 0.852020 -0.254880
O1    O     O_R   0.500000 0.319640 0.618810 -0.552173
O2    O     O_R   0.500020 0.319680 0.381230 -0.607915
O3    O     O_R   0.288380 0.499980 0.618770 -0.564165
O4    O     O_R   0.288400 0.500020 0.381190 -0.599559
O5    O     O_R   0.499980 0.680320 0.618770 -0.593447
O6    O     O_R   0.500000 0.680360 0.381190 -0.561563
O7    O     O_R   0.711600 0.499980 0.618810 -0.561949
O8    O     O_R   0.711620 0.500020 0.381230 -0.569759
C21   C     C_2   0.812069 0.708617 0.162814 0.907838
O9    O     O_2   0.828312 0.795932 0.244292 -0.566728
O10   O     O_R   0.920774 0.624224 0.152878 -0.732224
H7    H     H_    0.007581 0.646246 0.216852 0.341454
C22   C     C_2   0.559560 0.782520 0.100613 0.852086
O11   O     O_2   0.427494 0.749445 0.102872 -0.594082
O12   O     O_R   0.605909 0.908170 0.104852 -0.731040
H8    H     H_    0.520287 0.962759 0.105706 0.314284
C23   C     C_3   0.763186 0.159664 0.756532 -0.366531
C24   C     C_3   0.865139 0.133063 0.634797 -0.750228
H9    H     H_    0.881478 0.033303 0.625100 0.269073
H10   H     H_    0.819103 0.165090 0.536897 0.238841
H11   H     H_    0.974891 0.183685 0.651534 0.244843
H12   H     H_    0.749500 0.260269 0.760413 0.224053
H13   H     H_    0.818353 0.136875 0.854068 0.234944
C25   C     C_3   0.277079 0.341556 0.142424 -0.357423
C26   C     C_3   0.267045 0.207389 0.088257 -0.884972
H14   H     H_    0.194016 0.192914 0.997292 0.284218
H15   H     H_    0.378577 0.177138 0.063913 0.246931
H16   H     H_    0.213019 0.146359 0.167065 0.248606
H17   H     H_    0.297869 0.332489 0.251385 0.260850
H18   H     H_    0.167119 0.379192 0.134273 0.242484
C27   C     C_2   0.261379 0.375388 0.849708 0.889349
O13   O     O_2   0.275832 0.287435 0.772064 -0.613400
O14   O     O_R   0.120352 0.412203 0.878235 -0.748294
H19   H     H_    0.040069 0.360551 0.826107 0.339689
C28   C     C_2   0.849918 0.685689 0.866005 0.930963
O15   O     O_2   0.918694 0.786844 0.865656 -0.595336
O16   O     O_R   0.916982 0.581973 0.818426 -0.707675
H20   H     H_    0.020408 0.604100 0.782220 0.355575

loop_
_geom_bond_atom_site_label_1
_geom_bond_atom_site_label_2
_ccdc_geom_bond_type
C7    C10   A    
C26   H14   S    
C15   O8    A    
C23   H12   S    
C7    N1    A    
Cu2   N1    S    
Cu1   O1    S    
Cu1   N2    S    
C10   N2    A    
C19   C20   A    
C20   H1    S    
C13   C22   S    
C23   H13   S    
C4    C18   A    
C24   H10   S    
C2    C3    A    
Cu1   O7    S    
C21   O10   S    
C25   H18   S    
O12   H8    S    
C4    C5    S    
C22   O12   S    
C5    H5    S    
C24   H11   S    
C27   O13   D    
C3    C14   S    
Cu2   O2    S    
C9    N2    A    
O16   H20   S    
Cu1   O5    S    
C8    N1    A    
C24   H9    S    
C6    C23   S    
C28   O15   D    
C2    H3    S    
C25   H17   S    
C26   H15   S    
C22   O11   D    
C14   O6    A    
C5    C6    S    
Cu2   O4    S    
C6    C18   S    
C9    C27   S    
C13   C21   S    
C11   C13   S    
Cu1   O3    S    
C10   C11   S    
C12   O4    A    
C5    H4    S    
Cu2   O8    S    
C23   C24   S    
C11   C28   S    
C11   H2    S    
C1    O1    A    
Cu2   O6    S    
C27   O14   S    
C18   C19   A    
O10   H7    S    
C26   H16   S    
C8    C25   S    
C21   O9    D    
C15   C17   S    
C25   C26   S    
C15   O7    A    
C7    C13   S    
C12   C16   S    
C12   O3    A    
Cu1   Cu2   S    
C1    C19   S    
C2    C20   A    
C14   O5    A    
C1    O2    A    
C6    H6    S    
C3    C4    A    
O14   H19   S    
C16   C17   T    
C8    C9    A    
C28   O16   S    
