data_mof_unit_45685.cif
_audit_creation_date              2012-12-11T14:34:17-0500
_audit_creation_method            fapswitch 2.2
_symmetry_space_group_name_H-M    P1
_symmetry_Int_Tables_number       1
_space_group_crystal_system       triclinic
_cell_length_a                    14.05776
_cell_length_b                    14.050223
_cell_length_c                    27.350264
_cell_angle_alpha                 89.62953
_cell_angle_beta                  90.117702
_cell_angle_gamma                 120.128087
_cell_volume                      4672.18486515

loop_
_atom_site_label
_atom_site_type_symbol
_atom_type_description
_atom_site_fract_x
_atom_site_fract_y
_atom_site_fract_z
_atom_type_partial_charge
C1    C     C_R   0.256677 0.769998 0.574380 0.526255
C2    C     C_1   0.696314 0.859522 0.862658 -0.024823
C3    C     C_1   0.116199 0.871736 0.854250 -0.059809
C4    C     C_1   0.160114 0.306395 0.862961 -0.076785
C5    C     C_1   0.555247 0.771761 0.667929 0.061175
C6    C     C_1   0.209192 0.790213 0.665242 0.072078
C7    C     C_1   0.189625 0.384985 0.660956 0.020896
C8    C     C_1   0.532128 0.755949 0.625158 0.059152
C9    C     C_1   0.231508 0.780850 0.623812 0.070935
C10   C     C_1   0.199079 0.408411 0.618233 0.026915
C11   C     C_R   0.107173 0.222454 0.087571 0.590499
C12   C     C_R   0.213744 0.449649 0.569454 0.533778
C13   C     C_R   0.776832 0.884037 0.087302 0.590616
C14   C     C_R   0.115611 0.892357 0.087322 0.604074
C15   C     C_R   0.107604 0.221470 0.951458 0.549374
C16   C     C_R   0.780765 0.887486 0.950807 0.545250
C17   C     C_R   0.091960 0.928536 0.943106 0.552848
C18   C     C_R   0.634625 0.893002 0.359817 -0.140941
C19   C     C_R   0.107120 0.743129 0.360514 -0.140106
C20   C     C_R   0.255768 0.362971 0.360819 -0.141247
C21   C     C_R   0.653646 0.909420 0.309486 0.006474
C22   C     C_R   0.090499 0.745297 0.310208 0.006164
C23   C     C_R   0.506928 0.738976 0.574071 0.536766
C24   C     C_R   0.252704 0.343083 0.310621 0.006649
C25   C     C_R   0.700924 0.940305 0.209284 -0.002360
C26   C     C_R   0.059201 0.760059 0.209899 -0.002079
C27   C     C_R   0.236710 0.295488 0.210551 -0.002091
C28   C     C_R   0.236699 0.785797 0.430002 0.559645
C29   C     C_R   0.214476 0.451366 0.429977 0.550578
C30   C     C_R   0.548620 0.763439 0.429910 0.562263
C31   C     C_R   0.733023 0.031294 0.239826 -0.130744
C32   C     C_R   0.968394 0.701287 0.240921 -0.130694
C33   C     C_R   0.294403 0.262619 0.241792 -0.130480
C34   C     C_3   0.699535 0.763508 0.787375 -0.025522
C35   C     C_R   0.709353 0.015905 0.289692 -0.137127
C36   C     C_R   0.983992 0.693738 0.290838 -0.136903
C37   C     C_R   0.302577 0.286529 0.291558 -0.136649
C38   C     C_R   0.735703 0.955521 0.160949 -0.171004
C39   C     C_R   0.043809 0.779025 0.161428 -0.172147
C40   C     C_R   0.217901 0.261264 0.162170 -0.171489
C41   C     C_R   0.713493 0.864714 0.131992 0.032083
C42   C     C_R   0.134521 0.847509 0.131978 0.030711
C43   C     C_R   0.151100 0.285035 0.132401 0.031781
C44   C     C_R   0.544214 0.695175 0.347712 -0.126922
C45   C     C_3   0.209655 0.957711 0.776217 -0.022877
C46   C     C_R   0.304787 0.851768 0.347623 -0.128040
C47   C     C_R   0.149619 0.454146 0.347422 -0.126369
C48   C     C_R   0.560131 0.709990 0.297747 0.007215
C49   C     C_R   0.289776 0.852210 0.297655 0.007059
C50   C     C_R   0.148277 0.437551 0.297537 0.007155
C51   C     C_R   0.616886 0.817357 0.278403 0.062867
C52   C     C_R   0.182385 0.800660 0.278706 0.062285
C53   C     C_R   0.198145 0.380118 0.278909 0.062336
C54   C     C_R   0.520607 0.618759 0.267027 -0.133691
C55   C     C_R   0.380831 0.903800 0.266518 -0.133986
C56   C     C_3   0.060396 0.323636 0.791477 0.006965
C57   C     C_R   0.097422 0.477423 0.266161 -0.133937
C58   C     C_R   0.543025 0.633469 0.217259 -0.134171
C59   C     C_R   0.365929 0.910276 0.216673 -0.134364
C60   C     C_R   0.090262 0.455200 0.216461 -0.134305
C61   C     C_R   0.606366 0.740046 0.197544 0.019678
C62   C     C_R   0.259325 0.866144 0.197306 0.019108
C63   C     C_R   0.133078 0.391575 0.197424 0.019507
C64   C     C_3   0.493840 0.745269 0.755266 -0.263851
C65   C     C_3   0.237918 0.774307 0.754225 -0.270168
C66   C     C_3   0.262020 0.467871 0.741015 -0.241476
C67   C     C_3   0.665755 0.744734 0.732034 0.025335
C68   C     C_R   0.639868 0.832538 0.228218 0.042153
C69   C     C_R   0.166999 0.807459 0.228458 0.041884
C70   C     C_R   0.190696 0.357120 0.228780 0.041926
C71   C     C_R   0.642954 0.756844 0.148743 0.079365
C72   C     C_R   0.242354 0.884953 0.148349 0.079277
C73   C     C_R   0.114386 0.355928 0.148571 0.079483
C74   C     C_R   0.582138 0.786000 0.378955 0.002800
C75   C     C_R   0.214138 0.798139 0.379220 0.002243
C76   C     C_R   0.202320 0.416510 0.379259 0.003740
C77   C     C_3   0.657312 0.926785 0.727743 0.305813
C78   C     C_3   0.221356 0.933163 0.721508 0.014154
C79   C     C_3   0.050947 0.737196 0.723878 0.312658
C80   C     C_3   0.205687 0.267301 0.725937 0.309017
C81   C     C_3   0.711966 0.948776 0.780565 0.000345
C82   C     C_3   0.026196 0.777690 0.774157 -0.010788
C83   C     C_3   0.182045 0.239059 0.782406 -0.008408
C84   C     C_1   0.730811 0.872552 0.903806 -0.015380
C85   C     C_1   0.104454 0.896870 0.894902 -0.024282
C86   C     C_1   0.141850 0.273758 0.904608 -0.029703
C87   C     C_3   0.592741 0.797068 0.719137 0.066129
C88   C     C_3   0.179835 0.807656 0.714659 0.059642
C89   C     C_3   0.061394 0.328025 0.733984 0.015662
C90   C     C_3   0.179049 0.361483 0.713939 0.073248
C91   C     C_3   0.532452 0.782288 0.808347 -0.232609
C92   C     C_3   0.197689 0.780734 0.806201 -0.219827
C93   C     C_3   0.266144 0.445677 0.796494 -0.217854
C94   C     C_3   0.659837 0.839082 0.811357 0.042152
C95   C     C_3   0.136287 0.846586 0.804268 0.035627
C96   C     C_3   0.169074 0.329868 0.809950 0.036914
Cr1   Cr    Cr6+3 0.164410 0.584450 0.499910 1.053056
Cr2   Cr    Cr6+3 0.415550 0.579960 0.499910 1.036728
Cr3   Cr    Cr6+3 0.420040 0.835590 0.499910 1.055639
Cr4   Cr    Cr6+3 0.155170 0.075460 0.019960 1.025777
Cr5   Cr    Cr6+3 0.924540 0.079710 0.019960 1.032808
Cr6   Cr    Cr6+3 0.920290 0.844830 0.019960 1.034314
H1    H     H_    0.503899 0.838858 0.820695 0.113366
H2    H     H_    0.791250 0.808392 0.788455 0.136206
H3    H     H_    0.165814 0.004872 0.776797 0.195154
H4    H     H_    0.989038 0.243147 0.803291 0.117988
H5    H     H_    0.788400 0.038485 0.147212 0.132280
H6    H     H_    0.960901 0.748663 0.147955 0.131214
H7    H     H_    0.247415 0.208054 0.148953 0.131288
H8    H     H_    0.660427 0.962618 0.383966 0.126435
H9    H     H_    0.037638 0.698863 0.384973 0.127501
H10   H     H_    0.299305 0.337185 0.385404 0.124052
H11   H     H_    0.779508 0.114392 0.225414 0.114342
H12   H     H_    0.142613 0.696904 0.821155 0.160749
H13   H     H_    0.885286 0.664146 0.226819 0.114421
H14   H     H_    0.330443 0.215646 0.227976 0.114589
H15   H     H_    0.736910 0.087174 0.312920 0.117038
H16   H     H_    0.912863 0.649976 0.314418 0.117705
H17   H     H_    0.345641 0.258638 0.315277 0.116964
H18   H     H_    0.513639 0.560701 0.194982 0.115211
H19   H     H_    0.438575 0.953502 0.194035 0.115158
H20   H     H_    0.047775 0.485172 0.193670 0.115457
H21   H     H_    0.474744 0.535860 0.281688 0.122556
H22   H     H_    0.463729 0.941543 0.280881 0.122506
H23   H     H_    0.346422 0.453070 0.805805 0.091720
H24   H     H_    0.060907 0.523729 0.280233 0.122855
H25   H     H_    0.430217 0.764144 0.743948 0.108998
H26   H     H_    0.225447 0.690960 0.747639 0.128555
H27   H     H_    0.344081 0.500956 0.724041 0.104476
H28   H     H_    0.498623 0.611858 0.362097 0.137671
H29   H     H_    0.388090 0.890024 0.361719 0.136583
H30   H     H_    0.112594 0.500314 0.361260 0.136912
H31   H     H_    0.800477 0.975022 0.775883 0.175898
H32   H     H_    0.993937 0.834040 0.765765 0.162887
H33   H     H_    0.101013 0.162820 0.786732 0.160109
H34   H     H_    0.451630 0.655747 0.754918 0.113080
H35   H     H_    0.742138 0.787711 0.710216 0.238734
H36   H     H_    0.166792 0.952033 0.699999 0.259930
H37   H     H_    0.003754 0.243609 0.721896 0.222383
H38   H     H_    0.642233 0.616121 0.131293 0.227173
H39   H     H_    0.528262 0.620511 0.113358 0.226035
H40   H     H_    0.383114 0.024926 0.129615 0.226695
H41   H     H_    0.378310 0.905943 0.112805 0.227094
H42   H     H_    0.975676 0.358309 0.129749 0.227460
H43   H     H_    0.095512 0.472206 0.112557 0.227058
H44   H     H_    0.787036 0.165323 0.670304 0.359010
H45   H     H_    0.327141 0.831860 0.752661 0.111737
H46   H     H_    0.814257 0.598932 0.665448 0.362942
H47   H     H_    0.232568 0.179611 0.627176 0.362867
H48   H     H_    0.525901 0.945402 0.752723 0.185199
H49   H     H_    0.621161 0.053963 0.722125 0.251201
H50   H     H_    0.038608 0.597622 0.759180 0.256606
H51   H     H_    0.933108 0.569179 0.722958 0.255454
H52   H     H_    0.375756 0.365183 0.738233 0.212294
H53   H     H_    0.337096 0.240422 0.717719 0.281391
H54   H     H_    0.748682 0.110686 0.785955 0.258421
H55   H     H_    0.632031 0.020714 0.816318 0.229077
H56   H     H_    0.238537 0.531950 0.736054 0.157507
H57   H     H_    0.919571 0.716592 0.832769 0.236647
H58   H     H_    0.870032 0.645736 0.781932 0.269794
H59   H     H_    0.229274 0.168083 0.836537 0.228121
H60   H     H_    0.332913 0.288908 0.816402 0.236824
H61   H     H_    0.541246 0.578711 0.736965 0.224325
H62   H     H_    0.665068 0.597698 0.726143 0.295737
H63   H     H_    0.391217 0.993296 0.719032 0.244906
H64   H     H_    0.353652 0.086670 0.705465 0.280281
H65   H     H_    0.940172 0.367899 0.726476 0.239667
H66   H     H_    0.015402 0.393387 0.676929 0.254745
H67   H     H_    0.492062 0.710399 0.833559 0.113438
H68   H     H_    0.701489 0.675590 0.848170 0.238913
H69   H     H_    0.577901 0.618057 0.820080 0.235135
H70   H     H_    0.306203 0.046430 0.835249 0.245781
H71   H     H_    0.363351 0.988414 0.801526 0.227611
H72   H     H_    0.964695 0.392013 0.808071 0.233278
H73   H     H_    0.056923 0.413722 0.850559 0.232678
H74   H     H_    0.268676 0.818610 0.831747 0.113950
H75   H     H_    0.261582 0.510323 0.817893 0.147351
N1    N     N_3   0.613909 0.666091 0.116423 -0.618494
N2    N     N_3   0.613088 0.628177 0.717385 -0.593768
N3    N     N_3   0.332119 0.004497 0.701092 -0.587353
N4    N     N_3   0.021556 0.399930 0.714968 -0.595317
N5    N     N_3   0.662635 0.659433 0.814133 -0.654822
N6    N     N_3   0.317275 0.027776 0.799556 -0.628521
N7    N     N_3   0.046532 0.412122 0.812685 -0.608543
N8    N     N_3   0.332947 0.946130 0.115479 -0.614209
N9    N     N_3   0.054420 0.386425 0.115546 -0.617524
N10   N     N_3   0.579353 0.968034 0.723067 -0.604702
N11   N     N_3   0.018322 0.619308 0.725892 -0.575351
N12   N     N_3   0.321938 0.305594 0.713851 -0.596435
N13   N     N_3   0.711534 0.039084 0.807304 -0.650907
N14   N     N_3   0.941549 0.685372 0.803002 -0.649880
N15   N     N_3   0.263634 0.216305 0.805167 -0.642007
O1    O     O_R   0.137150 0.468200 0.553200 -0.496951
O2    O     O_R   0.140110 0.470540 0.446010 -0.512266
O3    O     O_R   0.529460 0.669570 0.446010 -0.508291
O4    O     O_R   0.330430 0.859890 0.446010 -0.512101
O5    O     O_R   0.176710 0.690910 0.450560 -0.497708
O6    O     O_R   0.309090 0.485800 0.450560 -0.504334
O7    O     O_R   0.514200 0.823290 0.450560 -0.499987
O8    O     O_3   0.333333 0.666667 0.499990 -0.336006
O9    O     O_R   0.176750 0.985260 0.074180 -0.479303
O10   O     O_R   0.014740 0.191490 0.074180 -0.481721
O11   O     O_R   0.808510 0.823250 0.074180 -0.482108
O12   O     O_R   0.531800 0.668950 0.553200 -0.471077
O13   O     O_R   0.146100 0.172630 0.068980 -0.515673
O14   O     O_R   0.827370 0.973470 0.068980 -0.514733
O15   O     O_R   0.026530 0.853900 0.068980 -0.509151
O16   O     O_3   0.000000 0.000000 0.020040 -0.251757
O17   O     O_R   0.148270 0.170520 0.969620 -0.520853
O18   O     O_R   0.829480 0.977750 0.969620 -0.495638
O19   O     O_R   0.022250 0.851730 0.969620 -0.487994
O20   O     O_2   0.850320 0.970137 0.683222 -0.170000
O21   O     O_2   0.715287 0.981756 0.631341 -0.246489
O22   O     O_3   0.821515 0.136996 0.693382 -0.572857
O23   O     O_R   0.331050 0.862850 0.553200 -0.482472
O24   O     O_2   0.988220 0.863639 0.668383 -0.161099
O25   O     O_2   0.996623 0.715954 0.626284 -0.260169
O26   O     O_3   0.836395 0.665018 0.685684 -0.563539
O27   O     O_2   0.055546 0.046390 0.720041 -0.288662
O28   O     O_2   0.044445 0.159165 0.655121 -0.209794
O29   O     O_3   0.204486 0.120757 0.652392 -0.495438
O30   O     O_R   0.179100 0.982980 0.967000 -0.500869
O31   O     O_R   0.017020 0.196120 0.967000 -0.501806
O32   O     O_R   0.803880 0.820900 0.967000 -0.520616
O33   O     O_R   0.173970 0.688730 0.549930 -0.462724
O34   O     O_R   0.311270 0.485240 0.549930 -0.513801
O35   O     O_R   0.514760 0.826030 0.549930 -0.469208
S1    S     S_3+6 0.763298 0.001844 0.681930 0.030063
S2    S     S_3+6 0.970291 0.749697 0.674128 0.017438
S3    S     S_3+6 0.122215 0.145395 0.688263 0.027128

loop_
_geom_bond_atom_site_label_1
_geom_bond_atom_site_label_2
_ccdc_geom_bond_type
C25   C31   A    
C65   C92   S    
Cr1   O33   S    
C54   H21   S    
C64   H34   S    
C26   C32   A    
C55   C59   A    
C82   N14   S    
C7    C10   T    
C18   C21   A    
C12   O1    A    
H69   N5    S    
C2    C84   T    
H70   N6    S    
C66   H56   S    
H50   N11   S    
C6    C9    T    
C13   C41   S    
C73   N9    S    
Cr4   O16   S    
Cr6   O32   S    
C66   C90   S    
C29   C76   S    
H42   N9    S    
C27   C33   A    
H49   N10   S    
C46   C49   A    
C60   C63   A    
C17   C85   S    
C32   C36   A    
C71   N1    S    
Cr2   O12   S    
C47   C76   A    
Cr5   O10   S    
H59   N15   S    
C30   C74   S    
Cr6   O19   S    
C4    C86   T    
C44   H28   S    
C29   O2    A    
C14   O9    A    
Cr4   O17   S    
C16   C84   S    
C8    C23   S    
C6    C88   S    
C20   C76   A    
C33   C37   A    
C80   N12   S    
Cr1   O1    S    
C38   H5    S    
C39   C42   A    
H55   N13   S    
C79   S2    S    
C17   O30   A    
H53   N12   S    
O25   S2    D    
C4    C96   S    
C43   C73   A    
C48   C51   A    
C20   C24   A    
C89   H37   S    
O29   S3    S    
C1    O23   A    
H38   N1    S    
C11   C43   S    
C45   C78   S    
C52   C69   A    
Cr4   O30   S    
C65   H45   S    
O22   S1    S    
Cr6   O15   S    
C64   C87   S    
C83   H33   S    
C41   C71   A    
C66   H27   S    
Cr5   O31   S    
C58   C61   A    
C30   O7    A    
C18   C74   A    
C20   H10   S    
C14   O15   A    
H68   N5    S    
C80   C90   S    
H41   N8    S    
Cr1   O8    S    
C25   C68   A    
H47   O29   S    
C80   C83   S    
C67   H35   S    
C53   C70   A    
C78   H36   S    
H60   N15   S    
C46   C75   A    
C45   H3    S    
O24   S2    D    
C47   C50   A    
C10   C12   S    
C40   C43   A    
C39   H6    S    
C59   C62   A    
C78   C88   S    
C50   C53   A    
C79   N11   S    
C91   H67   S    
H39   N1    S    
C65   H26   S    
Cr1   O5    S    
C83   N15   S    
C2    C94   S    
C19   C22   A    
C1    C9    S    
H58   N14   S    
C38   C41   A    
H72   N7    S    
C57   H24   S    
Cr2   O6    S    
C57   C60   A    
C63   C73   A    
C24   C53   A    
C49   C55   A    
C7    C90   S    
Cr3   O4    S    
C92   C95   S    
C92   H74   S    
C13   O11   A    
C62   C69   A    
C80   S3    S    
C11   O10   A    
C89   N4    S    
Cr1   O2    S    
C82   H32   S    
C48   C54   A    
Cr6   O11   S    
O26   S2    S    
Cr5   O16   S    
H57   N14   S    
C25   C38   A    
C79   C82   S    
Cr4   O9    S    
C12   O34   A    
C30   O3    A    
C37   H17   S    
C63   C70   A    
C77   C81   S    
C27   C40   A    
C64   H25   S    
C56   H4    S    
C58   H18   S    
C24   C37   A    
C62   C72   A    
C14   C42   S    
C60   H20   S    
C27   C70   A    
C34   H2    S    
H44   O22   S    
H62   N2    S    
C79   C88   S    
H46   O26   S    
C15   C86   S    
C56   C89   S    
H52   N12   S    
C29   O6    A    
C93   C96   S    
C66   C93   S    
H61   N2    S    
C77   N10   S    
C31   C35   A    
C3    C85   T    
C16   O32   A    
H64   N3    S    
O27   S3    D    
C45   C95   S    
C21   C51   A    
C5    C87   S    
C36   H16   S    
C45   N6    S    
C65   C88   S    
C22   C52   A    
C54   C58   A    
C1    O33   A    
C56   C96   S    
H40   N8    S    
C55   H22   S    
C33   H14   S    
C93   H75   S    
C82   C95   S    
C50   C57   A    
H48   N10   S    
C22   C36   A    
C34   C94   S    
C49   C52   A    
C91   H1    S    
C44   C74   A    
C17   O19   A    
Cr3   O8    S    
C34   C67   S    
C5    C8    T    
C23   O35   A    
Cr4   O13   S    
Cr6   O16   S    
C81   H31   S    
C40   H7    S    
C21   C35   A    
H51   N11   S    
C19   H9    S    
Cr5   O18   S    
C56   N7    S    
H43   N9    S    
C67   C87   S    
C28   O5    A    
Cr2   O8    S    
C23   O12   A    
C78   N3    S    
C81   N13   S    
C16   O18   A    
C89   C90   S    
C15   O17   A    
O21   S1    D    
C67   N2    S    
C91   C94   S    
C81   C94   S    
C61   C68   A    
C61   C71   A    
H65   N4    S    
Cr3   O23   S    
C46   H29   S    
C83   C96   S    
C19   C75   A    
C28   O4    A    
Cr2   O3    S    
C34   N5    S    
C51   C68   A    
C32   H13   S    
C15   O31   A    
C26   C39   A    
C93   H23   S    
C72   N8    S    
C35   H15   S    
Cr5   O14   S    
C59   H19   S    
O20   S1    D    
C77   C87   S    
C77   S1    S    
C18   H8    S    
H66   N4    S    
Cr3   O7    S    
O28   S3    D    
H63   N3    S    
C13   O14   A    
H71   N6    S    
C3    C95   S    
C26   C69   A    
C11   O13   A    
C64   C91   S    
C42   C72   A    
C28   C75   S    
C92   H12   S    
C31   H11   S    
Cr3   O35   S    
C44   C48   A    
C47   H30   S    
H73   N7    S    
Cr2   O34   S    
H54   N13   S    
