data_mof_unit_30550.cif
_audit_creation_date              2012-12-10T16:50:07-0500
_audit_creation_method            fapswitch 2.2
_symmetry_space_group_name_H-M    P1
_symmetry_Int_Tables_number       1
_space_group_crystal_system       triclinic
_cell_length_a                    23.484986
_cell_length_b                    8.680306
_cell_length_c                    7.436553
_cell_angle_alpha                 103.009138
_cell_angle_beta                  94.363885
_cell_angle_gamma                 92.424301
_cell_volume                      1470.04290861

loop_
_atom_site_label
_atom_site_type_symbol
_atom_type_description
_atom_site_fract_x
_atom_site_fract_y
_atom_site_fract_z
_atom_type_partial_charge
C1    C     C_R   0.498260 0.199621 0.453169 0.886395
C2    C     C_R   0.501740 0.800379 0.546831 0.886416
C3    C     C_R   0.235360 0.566194 0.382838 -0.138432
C4    C     C_R   0.764655 0.434027 0.617287 -0.138452
C5    C     C_R   0.294490 0.567218 0.375468 0.351328
C6    C     C_R   0.705524 0.432949 0.624635 0.351391
C7    C     C_R   0.328669 0.509177 0.507892 -0.129151
C8    C     C_R   0.671334 0.490854 0.492120 -0.129205
C9    C     C_R   0.302422 0.454608 0.647586 -0.215684
C10   C     C_R   0.697575 0.545333 0.352353 -0.215659
C11   C     C_R   0.243207 0.453726 0.653050 -0.049749
C12   C     C_R   0.756790 0.546257 0.346903 -0.049742
C13   C     C_R   0.209643 0.508771 0.520021 0.269003
C14   C     C_R   0.790364 0.491353 0.480023 0.269005
C15   C     C_2   0.497407 0.031711 0.426776 -0.328092
C16   C     C_2   0.502593 0.968289 0.573223 -0.328112
C17   C     C_R   0.391061 0.503554 0.502509 0.842613
C18   C     C_R   0.608940 0.496450 0.497493 0.842588
C19   C     C_R   0.882476 0.634963 0.542933 0.583849
C20   C     C_R   0.117530 0.365174 0.457126 0.583843
C21   C     C_R   0.876790 0.355308 0.419370 0.564544
C22   C     C_R   0.123218 0.644837 0.580639 0.564549
C23   C     C_R   0.937024 0.352026 0.434048 -0.115580
C24   C     C_R   0.062983 0.648118 0.565987 -0.115566
C25   C     C_R   0.969803 0.497949 0.496148 -0.062446
C26   C     C_R   0.030203 0.502195 0.503903 -0.062448
C27   C     C_R   0.942286 0.639937 0.551116 -0.081090
C28   C     C_R   0.057720 0.360204 0.448942 -0.081083
C29   C     C_R   0.965775 0.209634 0.385573 0.413852
C30   C     C_R   0.034231 0.790510 0.614468 0.413854
C31   C     C_R   0.025208 0.216168 0.388046 -0.117926
C32   C     C_R   0.974798 0.783974 0.612011 -0.117935
Cu1   Cu    Cu3+1 0.506340 0.517380 0.684380 1.014313
Cu2   Cu    Cu3+1 0.493660 0.482620 0.315620 1.014310
H1    H     H_    0.045937 0.106071 0.347120 0.202706
H2    H     H_    0.954068 0.894071 0.652941 0.202709
H3    H     H_    0.209047 0.610012 0.281379 0.175854
H4    H     H_    0.790979 0.390322 0.718815 0.175815
H5    H     H_    0.327645 0.410046 0.750826 0.191515
H6    H     H_    0.672342 0.589792 0.249053 0.191606
H7    H     H_    0.223367 0.409830 0.760001 0.170031
H8    H     H_    0.776629 0.590079 0.239903 0.170033
H9    H     H_    0.492503 0.959953 0.285696 0.186140
H10   H     H_    0.507496 0.040047 0.714304 0.186130
H11   H     H_    0.454824 0.379169 0.948573 0.229454
H12   H     H_    0.545176 0.620831 0.051427 0.229460
N1    N     N_R   0.851291 0.494378 0.478068 -0.461791
N2    N     N_R   0.148716 0.505761 0.521968 -0.461783
N3    N     N_2   0.484110 0.456420 0.038520 -0.194621
N4    N     N_2   0.515890 0.543580 0.961480 -0.194614
O1    O     O_R   0.504120 0.286130 0.619770 -0.578772
O2    O     O_R   0.495880 0.713870 0.380230 -0.578758
O3    O     O_R   0.493410 0.256770 0.308360 -0.584491
O4    O     O_R   0.506590 0.743230 0.691640 -0.584494
O5    O     O_R   0.423230 0.514630 0.655730 -0.592416
O6    O     O_R   0.576770 0.485370 0.344270 -0.592423
O7    O     O_R   0.412530 0.485280 0.344320 -0.532535
O8    O     O_R   0.587470 0.514720 0.655680 -0.532513
O9    O     O_2   0.855532 0.769439 0.599716 -0.512814
O10   O     O_2   0.144470 0.230692 0.400362 -0.512840
O11   O     O_2   0.843617 0.222407 0.343877 -0.479864
O12   O     O_2   0.156391 0.777745 0.656083 -0.479890
O13   O     O_3   0.937782 0.061741 0.338586 -0.678556
H13   H     H_    0.911261 0.057146 0.434930 0.362531
O14   O     O_3   0.062223 0.938404 0.661452 -0.678550
H14   H     H_    0.088738 0.943006 0.565088 0.362529
Cl1   Cl    Cl    0.323246 0.648824 0.202598 -0.590110
Cl2   Cl    Cl    0.676781 0.351432 0.797592 -0.590180

loop_
_geom_bond_atom_site_label_1
_geom_bond_atom_site_label_2
_ccdc_geom_bond_type
Cu1   O5    S    
C13   N2    S    
C22   N2    A    
C22   O12   S    
C29   O13   S    
Cu2   O6    S    
Cu1   O8    S    
C1    C15   S    
H11   N3    S    
Cu1   O1    S    
C19   C27   A    
C17   O5    A    
C21   O11   S    
C3    C13   A    
C18   O6    A    
C5    Cl1   S    
C7    C9    A    
C3    C5    A    
C6    Cl2   S    
Cu1   Cu2   S    
C25   C26   A    
C15   H9    S    
C29   C31   A    
Cu1   N4    S    
C21   N1    A    
C32   H2    S    
C30   C32   A    
C11   C13   A    
C24   C26   A    
C20   N2    A    
C12   H8    S    
C2    O2    A    
Cu2   O7    S    
C10   C12   A    
C4    C6    A    
C26   C28   A    
C12   C14   A    
C11   H7    S    
C31   H1    S    
C9    C11   A    
C21   C23   A    
C4    C14   A    
C22   C24   A    
C20   O10   S    
C24   C30   A    
C25   C27   A    
O14   H14   S    
C1    O3    A    
C15   C16   D    
C30   O14   S    
C23   C29   A    
C9    H5    S    
C23   C25   A    
C2    C16   S    
C3    H3    S    
Cu2   O3    S    
C8    C10   A    
N3    N4    D    
C2    O4    A    
C19   N1    A    
Cu1   O4    S    
C5    C7    A    
H12   N4    S    
C10   H6    S    
C6    C8    A    
C1    O1    A    
C20   C28   A    
C19   O9    S    
C27   C32   A    
C4    H4    S    
C14   N1    S    
Cu2   O2    S    
C16   H10   S    
C28   C31   A    
C8    C18   S    
O13   H13   S    
C17   O7    A    
C18   O8    A    
Cu2   N3    S    
C7    C17   S    
