data_mof_unit_23252.cif
_audit_creation_date              2012-12-11T17:24:06-0500
_audit_creation_method            fapswitch 2.2
_symmetry_space_group_name_H-M    P1
_symmetry_Int_Tables_number       1
_space_group_crystal_system       triclinic
_cell_length_a                    22.944099
_cell_length_b                    7.201411
_cell_length_c                    20.78571
_cell_angle_alpha                 89.999079
_cell_angle_beta                  93.901932
_cell_angle_gamma                 90.00085
_cell_volume                      3426.45947324

loop_
_atom_site_label
_atom_site_type_symbol
_atom_type_description
_atom_site_fract_x
_atom_site_fract_y
_atom_site_fract_z
_atom_type_partial_charge
O1    O     O_R   0.307200 0.614510 0.194080 -0.535159
O2    O     O_R   0.692800 0.385490 0.805920 -0.540763
O3    O     O_R   0.192800 0.114510 0.305920 -0.535175
O4    O     O_R   0.807200 0.885490 0.694080 -0.540762
O5    O     O_R   0.188140 0.283260 0.181690 -0.544740
O6    O     O_R   0.811860 0.716740 0.818310 -0.536301
O7    O     O_R   0.311860 0.783260 0.318310 -0.544671
O8    O     O_R   0.688140 0.216740 0.681690 -0.536296
C1    C     C_R   0.169002 0.453138 0.165463 0.746369
C2    C     C_R   0.830878 0.546657 0.834686 0.745219
C3    C     C_R   0.331002 0.953139 0.334531 0.746272
C4    C     C_R   0.669122 0.046657 0.665315 0.745225
O9    O     O_R   0.306460 0.284700 0.186400 -0.537672
O10   O     O_R   0.693540 0.715300 0.813600 -0.533755
O11   O     O_R   0.193540 0.784700 0.313600 -0.537623
O12   O     O_R   0.806460 0.215300 0.686400 -0.533751
O13   O     O_R   0.311970 0.115840 0.310660 -0.534763
O14   O     O_R   0.688030 0.884160 0.689340 -0.542887
O15   O     O_R   0.188030 0.615840 0.189340 -0.534672
O16   O     O_R   0.811970 0.384160 0.810660 -0.542894
C5    C     C_R   0.325340 0.453236 0.171873 0.735239
C6    C     C_R   0.674919 0.546682 0.828444 0.731836
C7    C     C_R   0.174660 0.953233 0.328126 0.735273
C8    C     C_R   0.825081 0.046685 0.671556 0.731829
O17   O     O_3   0.251670 0.448440 0.290760 -0.380877
O18   O     O_3   0.748330 0.551560 0.709240 -0.380833
O19   O     O_3   0.248330 0.948440 0.209240 -0.380874
O20   O     O_3   0.751670 0.051560 0.790760 -0.380846
V1    V     V_3+5 0.249690 0.173030 0.242440 1.393513
V2    V     V_3+5 0.750310 0.826970 0.757560 1.397126
V3    V     V_3+5 0.250310 0.673030 0.257560 1.393696
V4    V     V_3+5 0.749690 0.326970 0.742440 1.397138
C9    C     C_R   0.964990 0.162742 0.500511 0.386535
C10   C     C_R   0.031912 0.834029 0.495741 0.385653
C11   C     C_R   0.535009 0.662744 0.999482 0.386537
C12   C     C_R   0.468083 0.334034 0.004258 0.385646
C13   C     C_R   0.953753 0.012533 0.542306 -0.254830
C14   C     C_R   0.043372 0.984615 0.454216 -0.253667
C15   C     C_R   0.546245 0.512529 0.957691 -0.254828
C16   C     C_R   0.456624 0.484624 0.045780 -0.253672
C17   C     C_R   0.987703 0.847914 0.539335 0.370666
C18   C     C_R   0.009114 0.148663 0.456806 0.370121
C19   C     C_R   0.512293 0.347913 0.960665 0.370673
C20   C     C_R   0.490884 0.648671 0.043187 0.370146
C21   C     C_1   0.907875 0.026810 0.587757 -0.001829
C22   C     C_1   0.090197 0.971877 0.409904 -0.004317
C23   C     C_1   0.592124 0.526801 0.912242 -0.001818
C24   C     C_1   0.409801 0.471888 0.090094 -0.004347
C25   C     C_1   0.128923 0.962434 0.372912 -0.174049
C26   C     C_1   0.869975 0.037088 0.625748 -0.170637
C27   C     C_1   0.371076 0.462444 0.127087 -0.174042
C28   C     C_1   0.630025 0.537079 0.874251 -0.170632
C29   C     C_R   0.438115 0.006599 0.362561 0.282653
C30   C     C_R   0.560500 0.045129 0.636877 0.277938
C31   C     C_R   0.061887 0.506459 0.137434 0.282665
C32   C     C_R   0.939501 0.545245 0.863123 0.277939
C33   C     C_R   0.381812 0.963079 0.382347 -0.279171
C34   C     C_R   0.618461 0.038634 0.617222 -0.278070
C35   C     C_R   0.118195 0.463066 0.117643 -0.279213
C36   C     C_R   0.881540 0.538638 0.882778 -0.278059
C37   C     C_R   0.373035 0.939590 0.448127 0.386957
C38   C     C_R   0.628498 0.026563 0.551333 0.394344
C39   C     C_R   0.126979 0.439710 0.051860 0.386937
C40   C     C_R   0.871506 0.526485 0.948667 0.394306
C41   C     C_R   0.418436 0.986698 0.495462 -0.056053
C42   C     C_R   0.580999 0.044893 0.503974 -0.055367
C43   C     C_R   0.081572 0.486827 0.004531 -0.056028
C44   C     C_R   0.919003 0.544832 0.996028 -0.055363
C45   C     C_R   0.475576 0.018747 0.476026 -0.155374
C46   C     C_R   0.523106 0.035001 0.523268 -0.158126
C47   C     C_R   0.024428 0.518785 0.023971 -0.155365
C48   C     C_R   0.976897 0.535041 0.976732 -0.158114
C49   C     C_R   0.485334 0.033076 0.409556 -0.026702
C50   C     C_R   0.512671 0.040728 0.589674 -0.023494
C51   C     C_R   0.014668 0.532995 0.090444 -0.026704
C52   C     C_R   0.987331 0.540859 0.910326 -0.023496
C53   C     C_R   0.407514 0.008871 0.561231 0.212620
C54   C     C_R   0.590221 0.075832 0.438220 0.225724
C55   C     C_R   0.092491 0.509083 0.938765 0.212605
C56   C     C_R   0.909778 0.575678 0.061787 0.225746
C57   C     C_R   0.454165 0.049434 0.607242 0.365862
C58   C     C_R   0.542074 0.079733 0.391723 0.358131
C59   C     C_R   0.045836 0.549645 0.892759 0.365850
C60   C     C_R   0.957924 0.579562 0.108285 0.358101
O21   O     O_3   0.016917 0.301035 0.417619 -0.584227
H1    H     H_    0.047291 0.276011 0.387264 0.300703
O22   O     O_3   0.979653 0.694968 0.578179 -0.581496
H2    H     H_    0.947607 0.716911 0.606685 0.303516
O23   O     O_3   0.483082 0.801047 0.082369 -0.584223
H3    H     H_    0.452702 0.776036 0.112720 0.300698
O24   O     O_3   0.520342 0.194964 0.921824 -0.581493
H4    H     H_    0.552389 0.216901 0.893319 0.303512
O25   O     O_3   0.933976 0.327827 0.500128 -0.577457
H5    H     H_    0.904549 0.325415 0.532680 0.308943
O26   O     O_3   0.062837 0.668789 0.496010 -0.575983
H6    H     H_    0.091297 0.669541 0.462413 0.309782
O27   O     O_3   0.566026 0.827827 0.999863 -0.577455
H7    H     H_    0.595453 0.825410 0.967311 0.308940
O28   O     O_3   0.437156 0.168796 0.003992 -0.575990
H8    H     H_    0.408693 0.169555 0.037587 0.309769
O29   O     O_3   0.448840 0.016953 0.297852 -0.618941
H9    H     H_    0.415006 0.972350 0.270162 0.276014
O30   O     O_3   0.548997 0.046858 0.701508 -0.616562
H10   H     H_    0.585376 0.049932 0.729749 0.280558
O31   O     O_3   0.051168 0.516665 0.202146 -0.618929
H11   H     H_    0.084943 0.471476 0.229801 0.275967
O32   O     O_3   0.951002 0.547080 0.798492 -0.616568
H12   H     H_    0.914622 0.550005 0.770249 0.280561
O33   O     O_3   0.318198 0.883243 0.464939 -0.550161
C61   C     C_3   0.321028 0.702615 0.492514 0.132395
H13   H     H_    0.289271 0.698278 0.530533 0.170609
H14   H     H_    0.364474 0.666448 0.516697 0.095838
C62   C     C_3   0.303618 0.555094 0.441905 -0.364666
H15   H     H_    0.261308 0.594066 0.416276 0.229991
H16   H     H_    0.337751 0.546284 0.406620 0.200889
C63   C     C_3   0.297380 0.364620 0.472728 -0.740047
H17   H     H_    0.339474 0.322198 0.497943 0.237306
H18   H     H_    0.284917 0.260861 0.434766 0.255205
H19   H     H_    0.262934 0.367459 0.507760 0.237142
O34   O     O_3   0.685586 0.002061 0.534509 -0.552851
C64   C     C_3   0.692675 0.822529 0.507651 0.117267
H20   H     H_    0.729189 0.830955 0.475303 0.167310
H21   H     H_    0.653832 0.773713 0.477175 0.114466
C65   C     C_3   0.708487 0.678374 0.560092 -0.373659
H22   H     H_    0.747754 0.725905 0.589719 0.225897
H23   H     H_    0.671513 0.662675 0.591470 0.202792
C66   C     C_3   0.721129 0.489112 0.531013 -0.731854
H24   H     H_    0.681948 0.436835 0.502237 0.249739
H25   H     H_    0.732722 0.388333 0.570239 0.255921
H26   H     H_    0.758316 0.499086 0.499652 0.229661
O35   O     O_3   0.181822 0.383456 0.035042 -0.550170
C67   C     C_3   0.179012 0.202842 0.007457 0.132402
H27   H     H_    0.210796 0.198528 0.969467 0.170586
H28   H     H_    0.135580 0.166691 0.983234 0.095897
C68   C     C_3   0.196386 0.055290 0.058070 -0.364812
H29   H     H_    0.238686 0.094229 0.083726 0.230008
H30   H     H_    0.162231 0.046483 0.093330 0.200883
C69   C     C_3   0.202627 0.864823 0.027246 -0.739986
H31   H     H_    0.160540 0.822423 0.002010 0.237326
H32   H     H_    0.215070 0.761050 0.065210 0.255215
H33   H     H_    0.237088 0.867660 0.992232 0.237144
O36   O     O_3   0.814421 0.501894 0.965490 -0.552848
C70   C     C_3   0.807352 0.322335 0.992337 0.117297
H34   H     H_    0.770858 0.330715 0.024713 0.167334
H35   H     H_    0.846212 0.273498 0.022782 0.114419
C71   C     C_3   0.791514 0.178228 0.939889 -0.373585
H36   H     H_    0.752234 0.225786 0.910289 0.225884
H37   H     H_    0.828470 0.162563 0.908487 0.202806
C72   C     C_3   0.778885 0.988939 0.968958 -0.731873
H38   H     H_    0.818080 0.936625 0.997698 0.249709
H39   H     H_    0.767263 0.888202 0.929729 0.255906
H40   H     H_    0.741721 0.998886 0.000352 0.229671
O37   O     O_3   0.350567 0.002649 0.579157 -0.634058
H41   H     H_    0.350320 0.988112 0.626500 0.311722
O38   O     O_3   0.646270 0.112032 0.420835 -0.632995
H42   H     H_    0.647922 0.100609 0.373553 0.312341
O39   O     O_3   0.149438 0.502926 0.920836 -0.634055
H43   H     H_    0.149685 0.488436 0.873492 0.311732
O40   O     O_3   0.853725 0.611790 0.079176 -0.632991
H44   H     H_    0.852074 0.600315 0.126456 0.312344
O41   O     O_3   0.442269 0.094168 0.669928 -0.540055
C73   C     C_3   0.421955 0.279986 0.672428 0.120794
H45   H     H_    0.394020 0.290467 0.713880 0.150475
H46   H     H_    0.393846 0.321671 0.628880 0.101111
C74   C     C_3   0.473010 0.416296 0.683429 -0.325702
H47   H     H_    0.499248 0.378879 0.728481 0.236392
H48   H     H_    0.501593 0.408730 0.642470 0.187463
C75   C     C_3   0.451234 0.615324 0.688992 -0.773246
H49   H     H_    0.425651 0.656771 0.643990 0.219286
H50   H     H_    0.489161 0.710218 0.696781 0.274307
H51   H     H_    0.423407 0.628755 0.730426 0.244310
O42   O     O_3   0.551180 0.124433 0.328286 -0.540662
C76   C     C_3   0.557825 0.319385 0.321687 0.122614
H52   H     H_    0.594564 0.343417 0.290521 0.141681
H53   H     H_    0.569357 0.393973 0.367977 0.090503
C77   C     C_3   0.502277 0.404072 0.288784 -0.311783
H54   H     H_    0.490713 0.329651 0.242817 0.239150
H55   H     H_    0.465660 0.388877 0.320739 0.197653
C78   C     C_3   0.510361 0.609582 0.274143 -0.765648
H56   H     H_    0.520579 0.688146 0.319501 0.248226
H57   H     H_    0.469422 0.665211 0.249894 0.237590
H58   H     H_    0.546266 0.628996 0.241528 0.247335
O43   O     O_3   0.057727 0.594430 0.830075 -0.540044
C79   C     C_3   0.078032 0.780264 0.827586 0.120802
H59   H     H_    0.105983 0.790774 0.786149 0.150452
H60   H     H_    0.106122 0.821966 0.871146 0.101077
C80   C     C_3   0.026969 0.916530 0.816561 -0.325634
H61   H     H_    0.000757 0.879119 0.771491 0.236387
H62   H     H_    0.998364 0.908908 0.857500 0.187495
C81   C     C_3   0.048733 0.115583 0.811025 -0.773276
H63   H     H_    0.074287 0.157024 0.856046 0.219275
H64   H     H_    0.010802 0.210445 0.803213 0.274288
H65   H     H_    0.076587 0.129065 0.769615 0.244320
O44   O     O_3   0.948813 0.624099 0.171734 -0.540683
C82   C     C_3   0.942154 0.819027 0.178386 0.122529
H66   H     H_    0.905480 0.842933 0.209652 0.141758
H67   H     H_    0.930514 0.893659 0.132130 0.090584
C83   C     C_3   0.997745 0.903771 0.211172 -0.311730
H68   H     H_    0.009416 0.829280 0.257100 0.239246
H69   H     H_    0.034295 0.888728 0.179117 0.197562
C84   C     C_3   0.989653 0.109229 0.225887 -0.765811
H70   H     H_    0.979338 0.187892 0.180569 0.248304
H71   H     H_    0.030622 0.164878 0.250062 0.237476
H72   H     H_    0.953813 0.128488 0.258597 0.247334

loop_
_geom_bond_atom_site_label_1
_geom_bond_atom_site_label_2
_ccdc_geom_bond_type
C44   C56   A    
C68   C69   S    
C55   C59   A    
O22   H2    S    
C34   C38   A    
C74   H47   S    
C32   C52   A    
C31   C35   A    
O19   V1    S    
O13   V1    S    
C84   H70   S    
O3    C7    A    
O26   H6    S    
C56   C60   A    
C37   O33   S    
O27   H7    S    
C68   H29   S    
O21   H1    S    
C79   H59   S    
O1    C5    A    
C22   C25   T    
O25   H5    S    
C31   O31   S    
C9    C18   A    
C40   C44   A    
C6    C28   S    
O42   C76   S    
C14   C18   A    
C72   H39   S    
C30   C34   A    
C11   C15   A    
O4    C8    A    
C80   H62   S    
C54   O38   S    
C7    C25   S    
C70   H34   S    
C73   C74   S    
O1    V3    S    
C63   H17   S    
O2    V4    S    
O3    V1    S    
C16   C24   S    
C61   H13   S    
C64   C65   S    
O30   H10   S    
C81   H65   S    
C53   O37   S    
C30   C50   A    
C1    O15   A    
C24   C27   T    
C3    O13   A    
O28   H8    S    
C60   O44   S    
C67   H27   S    
C80   C81   S    
C46   C50   A    
O32   H12   S    
C45   C49   A    
C83   H68   S    
O14   V2    S    
C39   O35   S    
C16   C20   A    
C71   H37   S    
C44   C48   A    
C62   C63   S    
C31   C51   A    
C77   H55   S    
O44   C82   S    
O15   V3    S    
O12   C8    A    
C68   H30   S    
C78   H57   S    
O39   H43   S    
C84   H71   S    
C19   O24   S    
C10   C17   A    
O10   V2    S    
C42   C54   A    
C52   C59   A    
O41   C73   S    
O5    V1    S    
C76   H53   S    
C8    C26   S    
C17   O22   S    
C39   C43   A    
O7    V3    S    
C55   O39   S    
C38   C42   A    
C59   O43   S    
O8    V4    S    
O29   H9    S    
C30   O30   S    
C12   C16   A    
C41   C53   A    
C10   O26   S    
C62   H15   S    
C70   C71   S    
C2    O16   A    
O24   H4    S    
C29   C33   A    
O18   V4    S    
C56   O40   S    
C15   C19   A    
C76   H52   S    
C15   C23   S    
C9    C13   A    
C82   H66   S    
C1    C35   S    
O7    C3    A    
O43   C79   S    
C66   H25   S    
C32   O32   S    
O5    C1    A    
C71   C72   S    
C54   C58   A    
O40   H44   S    
C53   C57   A    
O8    C4    A    
C83   C84   S    
C4    O14   A    
O9    C5    A    
C48   C52   A    
C18   O21   S    
C33   C37   A    
C11   C20   A    
C61   C62   S    
C64   H20   S    
C71   H36   S    
C69   H32   S    
C58   O42   S    
C67   H28   S    
C75   H49   S    
O6    V2    S    
C74   C75   S    
C65   C66   S    
C84   H72   S    
C35   C39   A    
C72   H40   S    
C81   H63   S    
C50   C57   A    
C13   C21   S    
O35   C67   S    
C49   C58   A    
C5    C27   S    
C64   H21   S    
O34   C64   S    
C65   H23   S    
C73   H45   S    
O16   V4    S    
C76   C77   S    
O9    V1    S    
C70   H35   S    
C2    C36   S    
C77   H54   S    
C81   H64   S    
C10   C14   A    
C57   O41   S    
O17   V3    S    
C29   C49   A    
C69   H33   S    
C9    O25   S    
O6    C2    A    
C78   H58   S    
C83   H69   S    
C63   H19   S    
O11   V3    S    
C23   C28   T    
O12   V4    S    
O31   H11   S    
C29   O29   S    
C79   H60   S    
C79   C80   S    
C36   C40   A    
C75   H50   S    
C77   C78   S    
O20   V2    S    
O23   H3    S    
C66   H26   S    
C4    C34   S    
C38   O34   S    
C73   H46   S    
C11   O27   S    
C72   H38   S    
C47   C51   A    
O10   C6    A    
C42   C46   A    
C40   O36   S    
C21   C26   T    
C67   C68   S    
C41   C45   A    
O11   C7    A    
O2    C6    A    
C63   H18   S    
C12   O28   S    
C43   C47   A    
C13   C17   A    
C45   C46   A    
C51   C60   A    
C61   H14   S    
C14   C22   S    
C69   H31   S    
C78   H56   S    
C82   C83   S    
C37   C41   A    
C47   C48   A    
C32   C36   A    
C74   H48   S    
O33   C61   S    
O38   H42   S    
O36   C70   S    
C12   C19   A    
C80   H61   S    
C75   H51   S    
C62   H16   S    
O37   H41   S    
C3    C33   S    
C43   C55   A    
O4    V2    S    
C20   O23   S    
C66   H24   S    
C65   H22   S    
C82   H67   S    
