data_mof_unit_10897.cif
_audit_creation_date              2012-12-11T15:22:27-0500
_audit_creation_method            fapswitch 2.2
_symmetry_space_group_name_H-M    P1
_symmetry_Int_Tables_number       1
_space_group_crystal_system       triclinic
_cell_length_a                    22.451921
_cell_length_b                    12.997668
_cell_length_c                    27.016696
_cell_angle_alpha                 89.997569
_cell_angle_beta                  90.461764
_cell_angle_gamma                 89.999579
_cell_volume                      7883.82682782

loop_
_atom_site_label
_atom_site_type_symbol
_atom_type_description
_atom_site_fract_x
_atom_site_fract_y
_atom_site_fract_z
_atom_type_partial_charge
C1    C     C_R   0.720490 0.344113 0.177979 0.546804
C2    C     C_R   0.479176 0.256914 0.897246 -0.133543
C3    C     C_R   0.009401 0.585924 0.555100 -0.119093
C4    C     C_R   0.502925 0.082974 0.394456 -0.128364
C5    C     C_R   0.497119 0.082998 0.605565 -0.128343
C6    C     C_R   0.002948 0.582978 0.394468 -0.128384
C7    C     C_R   0.997134 0.582994 0.605574 -0.128184
C8    C     C_R   0.739856 0.956403 0.371875 0.024956
C9    C     C_R   0.260106 0.956265 0.628165 0.025005
C10   C     C_R   0.239865 0.456351 0.371860 0.025003
C11   C     C_R   0.759942 0.456003 0.628247 0.024993
C12   C     C_R   0.689400 0.922817 0.397646 -0.125954
C13   C     C_R   0.020865 0.756931 0.102745 -0.133528
C14   C     C_R   0.310544 0.922625 0.602388 -0.125949
C15   C     C_R   0.189406 0.422801 0.397641 -0.125932
C16   C     C_R   0.810229 0.421418 0.602560 -0.125993
C17   C     C_R   0.692462 0.907253 0.448241 -0.123014
C18   C     C_R   0.307440 0.906920 0.551804 -0.122982
C19   C     C_R   0.192485 0.407187 0.448231 -0.122978
C20   C     C_R   0.807105 0.405554 0.551983 -0.122899
C21   C     C_R   0.746415 0.921923 0.473642 0.037820
C22   C     C_R   0.253464 0.921509 0.526424 0.037842
C23   C     C_R   0.246454 0.421770 0.473618 0.037841
C24   C     C_R   0.979163 0.756914 0.897249 -0.133523
C25   C     C_R   0.753249 0.420982 0.526532 0.037889
C26   C     C_R   0.798154 0.946268 0.447203 -0.120289
C27   C     C_R   0.201741 0.945869 0.552881 -0.120149
C28   C     C_R   0.298194 0.446059 0.447166 -0.120162
C29   C     C_R   0.701623 0.446242 0.552913 -0.120215
C30   C     C_R   0.794806 0.964253 0.396540 -0.129741
C31   C     C_R   0.205131 0.963996 0.603531 -0.129528
C32   C     C_R   0.294829 0.464100 0.396508 -0.129548
C33   C     C_R   0.705037 0.464457 0.603549 -0.129411
C34   C     C_R   0.784255 0.979917 0.555926 -0.120033
C35   C     C_R   0.509140 0.258323 0.051676 0.014600
C36   C     C_R   0.215603 0.979562 0.444156 -0.120046
C37   C     C_R   0.284335 0.479762 0.555890 -0.120047
C38   C     C_R   0.715868 0.479568 0.444192 -0.119997
C39   C     C_R   0.721106 0.346976 0.321798 0.543887
C40   C     C_R   0.278874 0.347060 0.678230 0.543957
C41   C     C_R   0.221121 0.847042 0.321777 0.543956
C42   C     C_R   0.778871 0.847066 0.678233 0.543973
C43   C     C_R   0.790624 0.964401 0.606592 -0.129420
C44   C     C_R   0.209282 0.964177 0.393478 -0.129441
C45   C     C_R   0.290687 0.464298 0.606560 -0.129432
C46   C     C_R   0.490909 0.258311 0.948313 0.014613
C47   C     C_R   0.709586 0.464250 0.393502 -0.129564
C48   C     C_R   0.720071 0.823151 0.601867 -0.126191
C49   C     C_R   0.279867 0.822971 0.398164 -0.126160
C50   C     C_R   0.220066 0.323146 0.601866 -0.126186
C51   C     C_R   0.779324 0.321809 0.398357 -0.126121
C52   C     C_R   0.714802 0.837085 0.551264 -0.123174
C53   C     C_R   0.285088 0.836775 0.448779 -0.123139
C54   C     C_R   0.214811 0.337030 0.551259 -0.123147
C55   C     C_R   0.784477 0.335535 0.448976 -0.123251
C56   C     C_R   0.748271 0.913398 0.527681 0.037643
C57   C     C_R   0.009128 0.758322 0.051679 0.014614
C58   C     C_R   0.251588 0.913010 0.472385 0.037620
C59   C     C_R   0.248320 0.413267 0.527659 0.037623
C60   C     C_R   0.751400 0.412419 0.472498 0.037544
C61   C     C_R   0.760284 0.883295 0.629441 0.024987
C62   C     C_R   0.239668 0.883165 0.370598 0.024962
C63   C     C_R   0.260303 0.383265 0.629429 0.024961
C64   C     C_R   0.739595 0.382745 0.370690 0.025006
C65   C     C_R   0.554463 0.158884 0.321693 0.543170
C66   C     C_R   0.445541 0.158887 0.678309 0.543191
C67   C     C_R   0.054465 0.658884 0.321695 0.543187
C68   C     C_R   0.990894 0.758311 0.948316 0.014626
C69   C     C_R   0.945546 0.658888 0.678312 0.543254
C70   C     C_R   0.731604 0.002155 0.323014 0.544587
C71   C     C_R   0.268390 0.002136 0.676995 0.544679
C72   C     C_R   0.231606 0.502146 0.323012 0.544665
C73   C     C_R   0.768366 0.502090 0.677014 0.544741
C74   C     C_R   0.516462 0.070019 0.102311 -0.133156
C75   C     C_R   0.483462 0.069993 0.897712 -0.133114
C76   C     C_R   0.016459 0.570018 0.102313 -0.133193
C77   C     C_R   0.983454 0.569993 0.897714 -0.133148
C78   C     C_R   0.507005 0.070028 0.051455 0.009303
C79   C     C_R   0.503866 0.164350 0.025818 0.065366
C80   C     C_R   0.492912 0.070013 0.948569 0.009312
C81   C     C_R   0.007000 0.570027 0.051457 0.009279
C82   C     C_R   0.992903 0.570012 0.948571 0.009291
C83   C     C_R   0.496658 0.976773 0.974405 -0.136267
C84   C     C_R   0.503191 0.976781 0.025636 -0.136266
C85   C     C_R   0.996652 0.476772 0.974406 -0.136274
C86   C     C_R   0.003187 0.476780 0.025637 -0.136278
C87   C     C_R   0.496115 0.164343 0.974188 0.065365
C88   C     C_R   0.003856 0.664350 0.025821 0.065374
C89   C     C_R   0.279506 0.344121 0.822018 0.546778
C90   C     C_R   0.996104 0.664343 0.974191 0.065374
C91   C     C_R   0.504870 0.351521 0.025617 -0.136692
C92   C     C_R   0.495245 0.351517 0.974356 -0.136691
C93   C     C_R   0.004854 0.851521 0.025620 -0.136661
C94   C     C_R   0.995227 0.851516 0.974359 -0.136659
C95   C     C_R   0.739104 0.957877 0.129897 0.021596
C96   C     C_R   0.260877 0.957822 0.870090 0.021612
C97   C     C_R   0.239079 0.457924 0.129886 0.021591
C98   C     C_R   0.760899 0.457859 0.870099 0.021608
C99   C     C_R   0.794681 0.961577 0.106581 -0.136941
C100  C     C_R   0.220491 0.844113 0.177979 0.546758
C101  C     C_R   0.205306 0.961616 0.893414 -0.136916
C102  C     C_R   0.294671 0.461462 0.106590 -0.137023
C103  C     C_R   0.705313 0.461493 0.893405 -0.136967
C104  C     C_R   0.798937 0.940224 0.056170 -0.128470
C105  C     C_R   0.201044 0.940243 0.943822 -0.128493
C106  C     C_R   0.298929 0.440119 0.056178 -0.128561
C107  C     C_R   0.701049 0.440119 0.943812 -0.128518
C108  C     C_R   0.747582 0.916233 0.028486 0.076007
C109  C     C_R   0.252388 0.916134 0.971497 0.075983
C110  C     C_R   0.247560 0.416307 0.028474 0.075997
C111  C     C_R   0.779508 0.844115 0.822019 0.546762
C112  C     C_R   0.752405 0.416178 0.971507 0.076003
C113  C     C_R   0.692481 0.909257 0.052181 -0.067699
C114  C     C_R   0.307480 0.909047 0.947793 -0.067737
C115  C     C_R   0.192439 0.409515 0.052146 -0.067676
C116  C     C_R   0.807517 0.409270 0.947825 -0.067716
C117  C     C_R   0.553955 0.157192 0.177395 0.547290
C118  C     C_R   0.446043 0.157187 0.822606 0.547304
C119  C     C_R   0.053955 0.657192 0.177396 0.547280
C120  C     C_R   0.946041 0.657187 0.822607 0.547275
C121  C     C_R   0.688401 0.928348 0.102553 -0.133108
C122  C     C_R   0.473495 0.162579 0.872121 -0.004250
C123  C     C_R   0.311564 0.928159 0.897422 -0.133140
C124  C     C_R   0.188355 0.428594 0.102518 -0.133079
C125  C     C_R   0.811605 0.428379 0.897453 -0.133112
C126  C     C_R   0.723041 0.817469 0.951545 0.244441
C127  C     C_R   0.276894 0.817345 0.048443 0.244436
C128  C     C_R   0.222967 0.317604 0.951528 0.244451
C129  C     C_R   0.776960 0.317447 0.048456 0.244444
C130  C     C_R   0.728116 0.805423 0.900250 -0.118762
C131  C     C_R   0.271833 0.805330 0.099740 -0.118763
C132  C     C_R   0.228047 0.305548 0.900234 -0.118774
C133  C     C_R   0.526496 0.162601 0.127884 -0.004268
C134  C     C_R   0.771890 0.305420 0.099752 -0.118767
C135  C     C_R   0.788898 0.959213 0.895319 -0.141382
C136  C     C_R   0.211120 0.959199 0.104667 -0.141387
C137  C     C_R   0.288952 0.459195 0.895320 -0.141351
C138  C     C_R   0.711071 0.459170 0.104663 -0.141376
C139  C     C_R   0.782661 0.973628 0.946061 -0.163233
C140  C     C_R   0.217350 0.973590 0.053923 -0.163261
C141  C     C_R   0.282714 0.473617 0.946061 -0.163197
C142  C     C_R   0.717300 0.473563 0.053919 -0.163224
C143  C     C_R   0.750957 0.902082 0.974583 0.069390
C144  C     C_R   0.973487 0.662579 0.872123 -0.004245
C145  C     C_R   0.249015 0.901994 0.025402 0.069389
C146  C     C_R   0.250943 0.402148 0.974573 0.069403
C147  C     C_R   0.749022 0.402029 0.025407 0.069403
C148  C     C_R   0.762493 0.874086 0.872240 -0.007516
C149  C     C_R   0.237497 0.874050 0.127750 -0.007522
C150  C     C_R   0.262488 0.374130 0.872233 -0.007529
C151  C     C_R   0.737499 0.374074 0.127753 -0.007534
C152  C     C_R   0.527910 0.168886 0.371014 0.022727
C153  C     C_R   0.472108 0.168899 0.628993 0.022752
C154  C     C_R   0.027925 0.668889 0.371020 0.022737
C155  C     C_R   0.026492 0.662600 0.127886 -0.004268
C156  C     C_R   0.972133 0.668901 0.629003 0.022768
C157  C     C_R   0.537157 0.259662 0.398272 -0.126216
C158  C     C_R   0.462855 0.259667 0.601727 -0.126199
C159  C     C_R   0.037181 0.759666 0.398277 -0.126204
C160  C     C_R   0.962912 0.759686 0.601742 -0.126248
C161  C     C_R   0.525737 0.262080 0.448801 -0.121267
C162  C     C_R   0.474287 0.262082 0.551201 -0.121266
C163  C     C_R   0.025778 0.762086 0.448808 -0.121288
C164  C     C_R   0.974358 0.762106 0.551217 -0.121302
C165  C     C_R   0.731151 0.002269 0.179282 0.543421
C166  C     C_R   0.520874 0.256931 0.102743 -0.133546
C167  C     C_R   0.268846 0.002259 0.820715 0.543418
C168  C     C_R   0.231148 0.502278 0.179279 0.543382
C169  C     C_R   0.768849 0.502266 0.820717 0.543377
C170  C     C_R   0.503933 0.174329 0.472892 0.036543
C171  C     C_R   0.496111 0.174336 0.527121 0.036566
C172  C     C_R   0.003979 0.674337 0.472904 0.036546
C173  C     C_R   0.996164 0.674349 0.527134 0.036561
C174  C     C_R   0.490685 0.085902 0.444935 -0.119204
C175  C     C_R   0.509371 0.085923 0.555087 -0.119168
C176  C     C_R   0.990723 0.585909 0.444950 -0.119196
Cr1   Cr    Cr6+3 0.756570 0.170940 0.251190 1.011206
Cr2   Cr    Cr6+3 0.374010 0.036240 0.749520 1.010883
Cr3   Cr    Cr6+3 0.125990 0.536240 0.250480 1.010907
Cr4   Cr    Cr6+3 0.874010 0.536240 0.749520 1.010907
Cr5   Cr    Cr6+3 0.243430 0.170940 0.748810 1.011210
Cr6   Cr    Cr6+3 0.256570 0.670940 0.251190 1.011226
Cr7   Cr    Cr6+3 0.743430 0.670940 0.748810 1.011183
Cr8   Cr    Cr6+3 0.623740 0.299110 0.249580 1.014147
Cr9   Cr    Cr6+3 0.376260 0.299110 0.750420 1.014110
Cr10  Cr    Cr6+3 0.123740 0.799110 0.249580 1.014126
Cr11  Cr    Cr6+3 0.876260 0.799110 0.750420 1.014109
Cr12  Cr    Cr6+3 0.625990 0.036240 0.250480 1.010871
H1    H     H_    0.479486 0.996737 0.878760 0.128630
H2    H     H_    0.347865 0.892848 0.968578 0.151546
H3    H     H_    0.152039 0.393557 0.031336 0.151567
H4    H     H_    0.847908 0.393212 0.968626 0.151522
H5    H     H_    0.644700 0.926682 0.119243 0.129949
H6    H     H_    0.355259 0.926406 0.880724 0.129881
H7    H     H_    0.144643 0.427071 0.119192 0.130002
H8    H     H_    0.855311 0.426768 0.880773 0.129926
H9    H     H_    0.557036 0.326850 0.381377 0.133277
H10   H     H_    0.442959 0.326847 0.618614 0.133185
H11   H     H_    0.057056 0.826854 0.381377 0.133203
H12   H     H_    0.520390 0.996768 0.121277 0.128633
H13   H     H_    0.943028 0.826876 0.618630 0.133171
H14   H     H_    0.527929 0.018154 0.537729 0.100900
H15   H     H_    0.472144 0.018126 0.462303 0.100902
H16   H     H_    0.027948 0.518146 0.537740 0.100890
H17   H     H_    0.972185 0.518133 0.462321 0.101031
H18   H     H_    0.504808 0.012182 0.625761 0.123096
H19   H     H_    0.495244 0.012149 0.374267 0.123102
H20   H     H_    0.004802 0.512166 0.625767 0.123117
H21   H     H_    0.995260 0.512152 0.374282 0.123134
H22   H     H_    0.536728 0.331126 0.469352 0.099125
H23   H     H_    0.979480 0.496737 0.878762 0.128624
H24   H     H_    0.463287 0.331116 0.530642 0.099039
H25   H     H_    0.036777 0.831133 0.469355 0.099031
H26   H     H_    0.963377 0.831154 0.530662 0.099044
H27   H     H_    0.646282 0.916499 0.379612 0.134170
H28   H     H_    0.353679 0.916384 0.620399 0.134150
H29   H     H_    0.146277 0.416556 0.379620 0.134188
H30   H     H_    0.853295 0.414537 0.620632 0.133784
H31   H     H_    0.808911 0.041666 0.538640 0.100836
H32   H     H_    0.190921 0.041257 0.461459 0.100991
H33   H     H_    0.309022 0.541457 0.538590 0.100975
H34   H     H_    0.020391 0.496766 0.121278 0.128630
H35   H     H_    0.691515 0.541722 0.461442 0.101129
H36   H     H_    0.821540 0.012090 0.627321 0.122766
H37   H     H_    0.178369 0.011896 0.372759 0.122814
H38   H     H_    0.321623 0.511969 0.627278 0.122815
H39   H     H_    0.679026 0.512493 0.372703 0.122645
H40   H     H_    0.493780 0.903881 0.955052 0.109378
H41   H     H_    0.506017 0.903894 0.045001 0.109414
H42   H     H_    0.993776 0.403880 0.955054 0.109428
H43   H     H_    0.006017 0.403892 0.045002 0.109459
H44   H     H_    0.651831 0.889066 0.467710 0.099034
H45   H     H_    0.815989 0.012500 0.874442 0.137723
H46   H     H_    0.348061 0.888726 0.532323 0.099033
H47   H     H_    0.151852 0.389044 0.467709 0.099037
H48   H     H_    0.847646 0.386592 0.532557 0.098961
H49   H     H_    0.686991 0.784345 0.530381 0.098964
H50   H     H_    0.312904 0.784014 0.469648 0.099038
H51   H     H_    0.186972 0.284314 0.530387 0.099037
H52   H     H_    0.811901 0.282274 0.469908 0.099153
H53   H     H_    0.696289 0.759567 0.618495 0.134695
H54   H     H_    0.303683 0.759452 0.381513 0.134788
H55   H     H_    0.196251 0.259617 0.618509 0.134760
H56   H     H_    0.184058 0.012528 0.125546 0.137725
H57   H     H_    0.802797 0.257827 0.381773 0.135169
H58   H     H_    0.840737 0.954488 0.465898 0.100255
H59   H     H_    0.159142 0.954024 0.534205 0.100245
H60   H     H_    0.340788 0.454208 0.465851 0.100250
H61   H     H_    0.659100 0.455049 0.534185 0.100154
H62   H     H_    0.834335 0.989381 0.377252 0.122947
H63   H     H_    0.165613 0.989145 0.622828 0.122943
H64   H     H_    0.334360 0.489192 0.377212 0.122942
H65   H     H_    0.665619 0.490314 0.622773 0.123088
H66   H     H_    0.471532 0.328626 0.877715 0.124630
H67   H     H_    0.316092 0.512421 0.874451 0.137739
H68   H     H_    0.528571 0.328641 0.122260 0.124673
H69   H     H_    0.971517 0.828626 0.877718 0.124642
H70   H     H_    0.028559 0.828640 0.122262 0.124680
H71   H     H_    0.491281 0.424331 0.955084 0.106292
H72   H     H_    0.508888 0.424339 0.044876 0.106313
H73   H     H_    0.991261 0.924331 0.955088 0.106304
H74   H     H_    0.008869 0.924339 0.044880 0.106320
H75   H     H_    0.834283 0.984847 0.126815 0.123638
H76   H     H_    0.165715 0.984984 0.873189 0.123644
H77   H     H_    0.334288 0.484583 0.126844 0.123640
H78   H     H_    0.683968 0.512448 0.125534 0.137731
H79   H     H_    0.665709 0.484722 0.873161 0.123633
H80   H     H_    0.708673 0.738027 0.882908 0.124908
H81   H     H_    0.291253 0.737915 0.117086 0.124945
H82   H     H_    0.208552 0.238203 0.882885 0.124856
H83   H     H_    0.791348 0.238043 0.117104 0.124907
H84   H     H_    0.842008 0.944931 0.038519 0.108912
H85   H     H_    0.157980 0.945035 0.961479 0.108894
H86   H     H_    0.342015 0.444689 0.038541 0.108945
H87   H     H_    0.657971 0.444773 0.961455 0.108920
H88   H     H_    0.803676 0.039692 0.963309 0.145230
H89   H     H_    0.652088 0.893154 0.031388 0.151559
H90   H     H_    0.196361 0.039679 0.036672 0.145148
H91   H     H_    0.303781 0.539625 0.963317 0.145183
H92   H     H_    0.696268 0.539605 0.036662 0.145159
H93   H     H_    0.678003 0.689966 0.958153 0.313219
H94   H     H_    0.321840 0.689746 0.041837 0.313239
H95   H     H_    0.177888 0.190141 0.958134 0.313209
H96   H     H_    0.822066 0.190013 0.041868 0.313200
O1    O     O_R   0.769900 0.064540 0.196060 -0.524385
O2    O     O_R   0.433710 0.069580 0.694600 -0.521938
O3    O     O_R   0.066290 0.569580 0.305400 -0.521937
O4    O     O_R   0.933710 0.569580 0.694600 -0.521802
O5    O     O_R   0.680760 0.993330 0.302620 -0.506028
O6    O     O_R   0.319240 0.993330 0.697380 -0.506049
O7    O     O_R   0.180760 0.493330 0.302620 -0.506044
O8    O     O_R   0.819240 0.493330 0.697380 -0.505940
O9    O     O_3   0.668770 0.168760 0.250420 -0.239115
O10   O     O_3   0.331230 0.168760 0.749580 -0.239067
O11   O     O_3   0.168770 0.668760 0.250420 -0.239098
O12   O     O_R   0.230100 0.064540 0.803940 -0.524414
O13   O     O_3   0.831230 0.668760 0.749580 -0.239052
O14   O     O_R   0.750800 0.274080 0.199250 -0.506139
O15   O     O_R   0.249200 0.274080 0.800750 -0.506172
O16   O     O_R   0.250800 0.774080 0.199250 -0.506181
O17   O     O_R   0.749200 0.774080 0.800750 -0.506181
O18   O     O_R   0.669990 0.371670 0.194150 -0.516409
O19   O     O_R   0.330010 0.371670 0.805850 -0.516428
O20   O     O_R   0.169990 0.871670 0.194150 -0.516390
O21   O     O_R   0.830010 0.871670 0.805850 -0.516416
O22   O     O_R   0.574600 0.238480 0.197800 -0.500541
O23   O     O_R   0.269900 0.564540 0.196060 -0.524404
O24   O     O_R   0.425400 0.238480 0.802200 -0.500531
O25   O     O_R   0.074600 0.738480 0.197800 -0.500535
O26   O     O_R   0.925400 0.738480 0.802200 -0.500539
O27   O     O_R   0.566130 0.068680 0.194240 -0.526002
O28   O     O_R   0.433870 0.068680 0.805760 -0.526004
O29   O     O_R   0.066130 0.568680 0.194240 -0.526018
O30   O     O_R   0.933870 0.568680 0.805760 -0.526040
O31   O     O_R   0.680610 0.992490 0.199570 -0.504906
O32   O     O_R   0.319390 0.992490 0.800430 -0.504918
O33   O     O_R   0.180610 0.492490 0.199570 -0.504913
O34   O     O_R   0.730100 0.564540 0.803940 -0.524416
O35   O     O_R   0.819390 0.492490 0.800430 -0.504958
O36   O     O_R   0.770060 0.065440 0.307230 -0.523112
O37   O     O_R   0.229940 0.065440 0.692770 -0.522964
O38   O     O_R   0.270060 0.565440 0.307230 -0.522954
O39   O     O_R   0.729940 0.565440 0.692770 -0.523099
O40   O     O_R   0.750960 0.274920 0.302300 -0.505771
O41   O     O_R   0.249040 0.274920 0.697700 -0.505666
O42   O     O_R   0.250960 0.774920 0.302300 -0.505669
O43   O     O_R   0.749040 0.774920 0.697700 -0.505662
O44   O     O_R   0.670160 0.372580 0.305320 -0.523017
O45   O     O_R   0.574760 0.239320 0.300850 -0.504646
O46   O     O_R   0.329840 0.372580 0.694680 -0.523168
O47   O     O_R   0.170160 0.872580 0.305320 -0.523160
O48   O     O_R   0.829840 0.872580 0.694680 -0.523157
O49   O     O_3   0.694176 0.744760 0.979989 -0.729738
O50   O     O_3   0.305706 0.744576 0.019999 -0.729765
O51   O     O_3   0.194035 0.244966 0.979967 -0.729705
O52   O     O_3   0.805843 0.244752 0.020021 -0.729737
O53   O     O_R   0.425240 0.239320 0.699150 -0.504633
O54   O     O_R   0.074760 0.739320 0.300850 -0.504639
O55   O     O_R   0.925240 0.739320 0.699150 -0.504652
O56   O     O_R   0.566290 0.069580 0.305400 -0.521949

loop_
_geom_bond_atom_site_label_1
_geom_bond_atom_site_label_2
_ccdc_geom_bond_type
C21   C26   A    
C34   C56   A    
C114  H2    S    
C128  O51   S    
C113  H89   S    
C132  C150  A    
C107  C112  A    
Cr5   O12   S    
C120  C144  S    
Cr6   O11   S    
C136  C140  A    
C117  C133  S    
C79   C87   A    
C135  C139  A    
C89   O15   A    
C86   H43   S    
C72   O7    A    
C97   C124  A    
C132  H82   S    
C95   C99   A    
C75   C122  A    
C29   C33   A    
C126  C143  A    
Cr7   O17   S    
C91   H72   S    
C98   C169  S    
Cr7   O43   S    
C162  C171  A    
C20   H48   S    
Cr9   O24   S    
C68   C90   A    
C25   C60   S    
C103  H79   S    
C107  H87   S    
C44   H37   S    
C81   C86   A    
C83   H40   S    
C115  H3    S    
C116  H4    S    
C99   H75   S    
C72   O38   A    
C3    H16   S    
C80   C83   A    
C2    H66   S    
C42   O43   A    
Cr12  O5    S    
Cr10  O54   S    
C25   C29   A    
C109  C145  S    
C27   C31   A    
C140  H90   S    
C1    O14   A    
Cr11  O21   S    
C141  H91   S    
C47   C64   A    
C34   H31   S    
C111  O17   A    
C17   C21   A    
Cr8   O44   S    
C120  O30   A    
C38   H35   S    
C100  O20   A    
C19   C23   A    
Cr7   O34   S    
Cr3   O29   S    
C27   H59   S    
Cr5   O37   S    
C39   O40   A    
C156  C160  A    
C16   C20   A    
C31   H63   S    
C164  C173  A    
Cr8   O22   S    
Cr10  O11   S    
C137  H67   S    
C127  C145  A    
C89   C150  S    
C74   H12   S    
C22   C27   A    
Cr1   O14   S    
C36   C44   A    
C37   C45   A    
C43   C61   A    
C170  C174  A    
C152  C157  A    
C49   C62   A    
Cr9   O19   S    
Cr10  O20   S    
C51   C64   A    
C140  C145  A    
C22   C58   S    
C66   C153  S    
C53   C58   A    
C18   H46   S    
C138  C151  A    
C82   C85   A    
C161  H22   S    
C76   C155  A    
C44   C62   A    
Cr12  O27   S    
C77   H23   S    
C37   H33   S    
C111  C148  S    
Cr1   O1    S    
C165  O31   A    
C77   C82   A    
C49   C53   A    
C134  C151  A    
Cr3   O3    S    
C158  H10   S    
C73   O8    A    
C51   C55   A    
C127  C131  A    
C129  C147  A    
C81   C88   A    
C169  O35   A    
C70   O36   A    
C48   C52   A    
C69   O4    A    
C117  O22   A    
C103  C107  A    
Cr8   O45   S    
C133  C166  A    
C26   H58   S    
C69   O55   A    
C41   O47   A    
C85   C86   A    
C23   C59   S    
Cr4   O8    S    
C67   C154  S    
H93   O49   S    
C167  O32   A    
C51   H57   S    
Cr12  O31   S    
H95   O51   S    
C13   C57   A    
C170  C171  S    
C118  C122  S    
C165  O1    A    
C153  C158  A    
C139  C143  A    
C98   C125  A    
C7    C156  A    
Cr4   O13   S    
C123  H6    S    
C16   H30   S    
C66   O53   A    
C50   C63   A    
C17   H44   S    
C54   C59   A    
C160  H13   S    
C4    C152  A    
C71   O37   A    
C69   C156  S    
Cr5   O15   S    
Cr6   O16   S    
C66   O2    A    
C67   O54   A    
C50   H55   S    
C142  H92   S    
C91   C92   A    
C164  H26   S    
C68   C94   A    
C41   O42   A    
C29   H61   S    
Cr11  O26   S    
C83   C84   A    
C8    C12   A    
C14   H28   S    
Cr1   O36   S    
C23   C28   A    
C37   C59   A    
C109  C114  A    
C38   C60   A    
C114  C123  A    
C71   O6    A    
C26   C30   A    
C116  C125  A    
C119  O25   A    
C162  H24   S    
C1    O18   A    
C112  C116  A    
C92   H71   S    
C65   O45   A    
C46   C87   A    
C167  O12   A    
C111  O21   A    
C105  C109  A    
C96   C123  A    
C18   C22   A    
C120  O26   A    
C142  C147  A    
Cr2   O28   S    
C168  O33   A    
C175  H14   S    
C39   O44   A    
C11   C33   A    
C97   C168  S    
C8    C70   S    
C76   C81   A    
C112  C147  S    
C105  H85   S    
C154  C159  A    
C128  C146  A    
C35   C79   A    
C137  C150  A    
C40   O41   A    
C89   O19   A    
C47   H39   S    
C101  H76   S    
C55   C60   A    
C172  C176  A    
C10   C72   S    
C117  O27   A    
Cr1   O9    S    
C118  O28   A    
Cr2   O6    S    
C168  O23   A    
Cr3   O11   S    
Cr2   O32   S    
C136  C149  A    
C6    H21   S    
Cr2   O2    S    
C15   C19   A    
C39   C64   S    
C50   C54   A    
C40   C63   S    
Cr10  O25   S    
Cr6   O38   S    
C160  C164  A    
C75   H1    S    
C54   H51   S    
C93   H74   S    
C3    C7    A    
C46   C92   A    
C20   C25   A    
C126  C130  A    
C98   C103  A    
C35   C166  A    
Cr6   O23   S    
C28   H60   S    
C5    H18   S    
Cr11  O48   S    
C40   O46   A    
C102  H77   S    
C12   C17   A    
Cr1   O40   S    
C55   H52   S    
C15   H29   S    
C97   C102  A    
C130  H80   S    
C95   C121  A    
C159  H11   S    
C99   C104  A    
C4    C174  A    
C96   C101  A    
C5    C175  A    
C41   C62   S    
C95   C165  S    
C121  H5    S    
Cr11  O55   S    
C2    C122  A    
C34   C43   A    
C138  C142  A    
C7    H20   S    
C24   H69   S    
C176  H17   S    
C53   H50   S    
C9    C14   A    
C104  H84   S    
C11   C16   A    
C110  C146  S    
C28   C32   A    
C96   C167  S    
C84   H41   S    
C6    C154  A    
C141  C146  A    
C88   C90   A    
C11   C73   S    
C157  C161  A    
C104  C108  A    
C4    H19   S    
C137  C141  A    
C115  C124  A    
C85   H42   S    
C9    C71   S    
C19   H47   S    
C21   C56   S    
C100  C149  S    
C82   C90   A    
C8    C30   A    
C163  H25   S    
C24   C144  A    
C1    C151  S    
C157  H9    S    
C45   H38   S    
C24   C68   A    
C129  C134  A    
C94   H73   S    
C74   C78   A    
C73   O39   A    
C12   H27   S    
C110  C115  A    
Cr7   O13   S    
C108  C143  S    
C108  C113  A    
Cr7   O39   S    
C93   C94   A    
C14   C18   A    
C106  H86   S    
C36   H32   S    
C49   H54   S    
C2    C46   A    
Cr12  O56   S    
H94   O50   S    
Cr4   O30   S    
C80   C87   A    
C36   C58   A    
C10   C15   A    
C74   C133  A    
C129  O52   S    
C13   C155  A    
C67   O3    A    
C3    C173  A    
C118  O24   A    
Cr2   O10   S    
C166  H68   S    
C135  H45   S    
Cr3   O7    S    
C100  O16   A    
C75   C80   A    
C42   O48   A    
Cr12  O9    S    
Cr3   O33   S    
Cr5   O41   S    
C57   C93   A    
H96   O52   S    
C128  C132  A    
C101  C105  A    
C136  H56   S    
C126  O49   S    
C130  C148  A    
C70   O5    A    
Cr5   O10   S    
C9    C31   A    
C78   C79   A    
C138  H78   S    
C125  H8    S    
C76   H34   S    
C134  H83   S    
C171  C175  A    
C45   C63   A    
C30   H62   S    
Cr4   O4    S    
C13   H70   S    
C163  C172  A    
C10   C32   A    
Cr8   O9    S    
C131  H81   S    
C119  O29   A    
C113  C121  A    
C42   C61   S    
C38   C47   A    
C52   H49   S    
C161  C170  A    
C169  O34   A    
Cr10  O47   S    
C159  C163  A    
C139  H88   S    
C172  C173  S    
C106  C110  A    
C119  C155  S    
C48   H53   S    
Cr9   O46   S    
C32   H64   S    
Cr6   O42   S    
C57   C88   A    
C65   C152  S    
C33   H65   S    
C43   H36   S    
C77   C144  A    
Cr11  O13   S    
C48   C61   A    
C6    C176  A    
C5    C153  A    
C124  H7    S    
C174  H15   S    
C127  O50   S    
C102  C106  A    
Cr9   O53   S    
C131  C149  A    
C158  C162  A    
C78   C84   A    
C135  C148  A    
C65   O56   A    
Cr9   O10   S    
C52   C56   A    
Cr8   O18   S    
Cr4   O35   S    
C35   C91   A    
