data_mof_unit_14412.cif
_audit_creation_date              2012-12-11T14:15:36-0500
_audit_creation_method            fapswitch 2.2
_symmetry_space_group_name_H-M    P1
_symmetry_Int_Tables_number       1
_space_group_crystal_system       triclinic
_cell_length_a                    11.144002
_cell_length_b                    12.700346
_cell_length_c                    23.540516
_cell_angle_alpha                 90.229948
_cell_angle_beta                  96.450897
_cell_angle_gamma                 68.648702
_cell_volume                      3080.9816014

loop_
_atom_site_label
_atom_site_type_symbol
_atom_type_description
_atom_site_fract_x
_atom_site_fract_y
_atom_site_fract_z
_atom_type_partial_charge
C1    C     C_R   0.149578 0.616927 0.428868 0.543878
C2    C     C_2   0.181395 0.228470 0.227095 -0.111765
C3    C     C_2   0.155455 0.160886 0.264066 -0.002302
C4    C     C_R   0.747031 0.605841 0.405043 0.545577
C5    C     C_1   0.133155 0.196481 0.321524 -0.039758
C6    C     C_1   0.210379 0.195451 0.169766 -0.006496
C7    C     C_1   0.116914 0.230965 0.368984 0.007598
C8    C     C_1   0.167153 0.749133 0.123628 0.054983
C9    C     C_2   0.144351 0.685024 0.227749 -0.078007
C10   C     C_2   0.233853 0.681537 0.271666 -0.068112
C11   C     C_1   0.216873 0.655304 0.329209 -0.036425
C12   C     C_R   0.622676 0.580907 0.317013 -0.090524
C13   C     C_1   0.155416 0.718863 0.170606 0.029202
C14   C     C_1   0.193870 0.635999 0.376171 0.003281
C15   C     C_1   0.628413 0.757729 0.864783 0.012042
C16   C     C_R   0.101355 0.282245 0.423485 0.547197
C17   C     C_2   0.699158 0.715295 0.760783 -0.105733
C18   C     C_2   0.615110 0.699179 0.719411 -0.104204
C19   C     C_1   0.653021 0.667284 0.663295 -0.028704
C20   C     C_1   0.663806 0.739544 0.817884 -0.030180
C21   C     C_1   0.691171 0.638554 0.617605 0.011075
C22   C     C_R   0.207275 0.173133 0.851187 -0.018292
C23   C     C_R   0.712004 0.729623 0.319818 -0.136132
C24   C     C_R   0.113781 0.211163 0.637545 -0.054356
C25   C     C_R   0.003472 0.176683 0.714468 0.224946
C26   C     C_R   0.003924 0.200477 0.656766 -0.101267
C27   C     C_R   0.227438 0.186432 0.675504 -0.035094
C28   C     C_R   0.149738 0.616321 0.590880 0.544104
C29   C     C_R   0.217249 0.191893 0.734261 -0.018775
C30   C     C_R   0.107392 0.178298 0.754177 0.031890
C31   C     C_R   0.106752 0.163646 0.813057 -0.097790
C32   C     C_R   0.298062 0.212302 0.831368 -0.116459
C33   C     C_R   0.308875 0.215659 0.773615 -0.023321
C34   C     C_R   0.694331 0.739071 0.260463 -0.036122
C35   C     C_R   0.126723 0.747535 0.851873 -0.008535
C36   C     C_R   0.190521 0.635486 0.649638 0.004093
C37   C     C_R   0.299988 0.555501 0.742665 -0.130668
C38   C     C_R   0.289866 0.550410 0.683341 -0.128140
C39   C     C_R   0.107841 0.729221 0.675329 -0.114740
C40   C     C_R   0.749888 0.602018 0.566134 0.546296
C41   C     C_R   0.111546 0.731191 0.734059 0.022815
C42   C     C_R   0.208239 0.643896 0.768838 0.026732
C43   C     C_R   0.211868 0.649453 0.828558 -0.022667
C44   C     C_R   0.022692 0.825488 0.816523 -0.128965
C45   C     C_R   0.647579 0.663686 0.229565 0.033381
C46   C     C_R   0.015832 0.817792 0.757962 -0.135980
C47   C     C_R   0.265517 0.110165 0.069319 0.547063
C48   C     C_R   0.599499 0.774661 0.081563 0.565480
C49   C     C_R   0.189493 0.787673 0.069809 0.548882
C50   C     C_R   0.241853 0.114787 0.907203 0.541746
C51   C     C_R   0.573916 0.776710 0.918089 0.544062
C52   C     C_R   0.100994 0.275242 0.584109 0.543891
C53   C     C_R   0.163484 0.785930 0.907456 0.540522
C54   C     C_R   0.659876 0.753933 0.141117 0.003350
C55   C     C_R   0.684351 0.645199 0.347731 -0.027933
C56   C     C_R   0.641625 0.666362 0.170893 -0.130685
C57   C     C_R   0.606099 0.587972 0.257976 0.216038
C58   C     C_1   0.413641 0.246003 0.757077 0.201637
C59   C     C_1   0.352791 0.148874 0.653887 0.246625
C60   C     C_1   0.302741 0.556559 0.865343 0.211428
C61   C     C_1   0.151839 0.051783 0.248419 0.243626
C62   C     C_R   0.707743 0.828837 0.171683 0.223404
C63   C     C_R   0.727900 0.818920 0.231453 -0.098668
C64   C     C_1   0.235424 0.161862 0.122887 0.038021
Cl1   Cl    Cl    0.864289 0.159911 0.735499 -0.615491
Cl2   Cl    Cl    0.744022 0.934650 0.137381 -0.548342
Cl3   Cl    Cl    0.537191 0.497286 0.222053 -0.619016
Cr1   Cr    Cr6+3 0.189770 0.415650 0.511620 1.059314
Cr2   Cr    Cr6+3 0.930400 0.667320 0.496770 1.037109
Cr3   Cr    Cr6+3 0.879870 0.417010 0.491650 1.047637
Cr4   Cr    Cr6+3 0.149500 0.973980 0.985330 1.069994
Cr5   Cr    Cr6+3 0.457000 0.976510 0.994660 1.104937
Cr6   Cr    Cr6+3 0.411170 0.724270 0.995270 1.079967
H1    H     H_    0.611616 0.604450 0.148036 0.214589
H2    H     H_    0.938665 0.882431 0.731310 0.164232
H3    H     H_    0.355078 0.477383 0.664100 0.161463
H4    H     H_    0.031730 0.796645 0.649678 0.145233
H5    H     H_    0.766040 0.875511 0.255177 0.156000
H6    H     H_    0.597238 0.518134 0.338621 0.173497
H7    H     H_    0.757050 0.781434 0.343738 0.143581
H8    H     H_    0.183693 0.309813 0.240421 0.139111
H9    H     H_    0.317300 0.702812 0.264924 0.168452
H10   H     H_    0.059818 0.665546 0.234784 0.131122
H11   H     H_    0.518703 0.706332 0.728022 0.142750
H12   H     H_    0.796034 0.707054 0.752386 0.142236
H13   H     H_    0.033861 0.138055 0.829173 0.187594
H14   H     H_    0.370911 0.227628 0.861301 0.163314
H15   H     H_    0.916893 0.214666 0.627412 0.172969
H16   H     H_    0.952855 0.898791 0.833605 0.174096
H17   H     H_    0.377394 0.488779 0.767735 0.155699
N1    N     N_1   0.498136 0.269602 0.744139 -0.229400
N2    N     N_1   0.452512 0.118457 0.636491 -0.248255
N3    N     N_1   0.375104 0.482301 0.894569 -0.278626
N4    N     N_1   0.148916 0.964505 0.235849 -0.287146
O1    O     O_R   0.196340 0.303200 0.448500 -0.501694
O2    O     O_R   0.555390 0.700940 0.062700 -0.526578
O3    O     O_R   0.295020 0.731920 0.049950 -0.491520
O4    O     O_R   0.199310 0.519670 0.454880 -0.491036
O5    O     O_R   0.094290 0.884230 0.921550 -0.515227
O6    O     O_R   0.168980 0.069410 0.926940 -0.500034
O7    O     O_R   0.358400 0.089990 0.927950 -0.511384
O8    O     O_R   0.544850 0.873850 0.939920 -0.491180
O9    O     O_R   0.536020 0.701900 0.936430 -0.492801
O10   O     O_R   0.277070 0.732810 0.932890 -0.486513
O11   O     O_3   0.339220 0.891590 0.991750 -0.274907
O12   O     O_R   0.811960 0.658090 0.547150 -0.493560
O13   O     O_R   0.045660 0.691380 0.441680 -0.507949
O14   O     O_R   0.811930 0.659460 0.430950 -0.503137
O15   O     O_R   0.757900 0.507620 0.421760 -0.511728
O16   O     O_R   0.988630 0.322990 0.439840 -0.490529
O17   O     O_R   0.196380 0.301720 0.573850 -0.494942
O18   O     O_R   0.199350 0.518300 0.571080 -0.497164
O19   O     O_R   0.045700 0.689900 0.567030 -0.518785
O20   O     O_R   0.757930 0.506140 0.547110 -0.501395
O21   O     O_R   0.988670 0.321620 0.556040 -0.502891
O22   O     O_3   0.000020 0.499990 0.500010 -0.255749
O23   O     O_R   0.113660 0.883270 0.047820 -0.480198
O24   O     O_R   0.186930 0.068530 0.043990 -0.494045
O25   O     O_R   0.377770 0.089040 0.054220 -0.472213
O26   O     O_R   0.562800 0.872960 0.056970 -0.439526

loop_
_geom_bond_atom_site_label_1
_geom_bond_atom_site_label_2
_ccdc_geom_bond_type
C24   C52   S    
C4    O15   A    
Cr2   O22   S    
C33   C58   S    
C35   C53   S    
C41   C42   A    
C24   C27   A    
Cr2   O13   S    
C16   O16   A    
C39   C41   A    
C38   H3    S    
Cr3   O20   S    
C51   O8    A    
Cr6   O3    S    
C4    O14   A    
C45   C57   A    
C37   C38   A    
C22   C32   A    
C37   H17   S    
C17   H12   S    
C39   H4    S    
C19   C21   T    
C24   C26   A    
C30   C31   A    
C11   C14   T    
C27   C29   A    
Cr5   O7    S    
C53   O10   A    
C51   O9    A    
C12   H6    S    
C29   C33   A    
C17   C20   S    
C18   C19   S    
Cr1   O18   S    
C6    C64   T    
C37   C42   A    
C9    C13   S    
C40   O20   A    
Cr3   O16   S    
Cr6   O10   S    
C49   O23   A    
C45   C56   A    
C18   H11   S    
C41   C46   A    
C15   C51   S    
C23   H7    S    
C35   C43   A    
C9    C10   D    
C22   C50   S    
C60   N3    T    
C47   O25   A    
C31   H13   S    
C2    C6    S    
C57   Cl3   S    
C46   H2    S    
Cr2   O14   S    
C44   C46   A    
C3    C61   S    
C15   C20   T    
C54   C56   A    
Cr1   O1    S    
C56   H1    S    
C22   C31   A    
C62   Cl2   S    
C53   O5    A    
C25   Cl1   S    
C48   O26   A    
C10   C11   S    
C47   C64   S    
C5    C7    T    
Cr4   O23   S    
C61   N4    T    
C54   C62   A    
C52   O17   A    
Cr3   O22   S    
C25   C26   A    
C32   H14   S    
Cr4   O5    S    
C10   H9    S    
C28   O18   A    
C47   O24   A    
Cr1   O17   S    
C48   C54   S    
C29   C30   A    
Cr3   O15   S    
Cr6   O11   S    
C23   C34   A    
Cr2   O19   S    
Cr5   O26   S    
C62   C63   A    
C17   C18   D    
C34   C45   A    
C35   C44   A    
C43   C60   S    
C9    H10   S    
C12   C57   A    
C7    C16   S    
Cr1   O22   S    
Cr4   O11   S    
C4    C55   S    
C42   C43   A    
C40   O12   A    
C58   N1    T    
C52   O21   A    
C25   C30   A    
C16   O1    A    
C48   O2    A    
Cr4   O24   S    
C36   C39   A    
C3    C5    S    
C1    O4    A    
Cr2   O12   S    
C23   C55   A    
Cr3   O21   S    
Cr4   O6    S    
C50   O6    A    
C32   C33   A    
C36   C38   A    
C2    C3    D    
C27   C59   S    
C21   C40   S    
Cr5   O8    S    
Cr5   O25   S    
C34   C63   A    
C59   N2    T    
Cr1   O4    S    
C12   C55   A    
C28   O19   A    
C49   O3    A    
C1    O13   A    
C8    C13   T    
Cr6   O9    S    
Cr5   O11   S    
C28   C36   S    
C50   O7    A    
C26   H15   S    
C2    H8    S    
C1    C14   S    
Cr6   O2    S    
C8    C49   S    
C44   H16   S    
C63   H5    S    
