data_mof_unit_44572.cif
_audit_creation_date              2012-12-10T18:42:33-0500
_audit_creation_method            fapswitch 2.2
_symmetry_space_group_name_H-M    P1
_symmetry_Int_Tables_number       1
_space_group_crystal_system       triclinic
_cell_length_a                    8.594333
_cell_length_b                    10.729115
_cell_length_c                    9.846408
_cell_angle_alpha                 90.000542
_cell_angle_beta                  98.655115
_cell_angle_gamma                 90.117153
_cell_volume                      897.591822651

loop_
_atom_site_label
_atom_site_type_symbol
_atom_type_description
_atom_site_fract_x
_atom_site_fract_y
_atom_site_fract_z
_atom_type_partial_charge
C1    C     C_R   0.499890 0.259864 0.499938 0.863992
C2    C     C_R   0.497782 0.063840 0.623553 -0.196583
C3    C     C_R   0.500133 0.872605 0.500049 -0.009282
C4    C     C_R   0.499866 0.127395 0.499951 -0.009281
C5    C     C_R   0.594824 0.579882 0.084349 -0.077357
C6    C     C_R   0.405176 0.420118 0.915651 -0.077357
C7    C     C_R   0.594767 0.579858 0.940483 -0.075173
C8    C     C_R   0.405233 0.420142 0.059517 -0.075173
C9    C     C_R   0.500110 0.740136 0.500062 0.863992
C10   C     C_R   0.201086 0.499978 0.464062 0.972471
C11   C     C_R   0.798914 0.500022 0.535938 0.972471
C12   C     C_2   0.035973 0.500088 0.444722 -0.386667
C13   C     C_2   0.964027 0.499912 0.555277 -0.386666
C14   C     C_R   0.502042 0.063813 0.376393 -0.196580
C15   C     C_R   0.497958 0.936187 0.623607 -0.196579
C16   C     C_R   0.502218 0.936160 0.376447 -0.196583
H1    H     H_    0.974063 0.500367 0.339855 0.179539
H2    H     H_    0.329459 0.356281 0.104082 0.125669
H3    H     H_    0.025937 0.499633 0.660145 0.179539
H4    H     H_    0.503691 0.112200 0.280022 0.156612
H5    H     H_    0.496309 0.887799 0.719978 0.156612
H6    H     H_    0.504028 0.887752 0.280114 0.156336
H7    H     H_    0.495971 0.112248 0.719886 0.156336
H8    H     H_    0.670670 0.643742 0.148766 0.125568
H9    H     H_    0.329330 0.356258 0.851234 0.125568
H10   H     H_    0.670541 0.643719 0.895918 0.125669
N1    N     N_R   0.499960 0.499970 0.857200 -0.079910
N2    N     N_R   0.500040 0.500030 0.142800 -0.079910
O1    O     O_R   0.499990 0.316750 0.614620 -0.630649
O2    O     O_R   0.500010 0.683250 0.385380 -0.630649
O3    O     O_R   0.499990 0.316780 0.385290 -0.630584
O4    O     O_R   0.500010 0.683220 0.614710 -0.630584
O5    O     O_R   0.271750 0.499990 0.587840 -0.614590
O6    O     O_R   0.728250 0.500010 0.412160 -0.614591
O7    O     O_R   0.271750 0.500010 0.358510 -0.625235
O8    O     O_R   0.728250 0.499990 0.641490 -0.625235
Zn1   Zn    Zn3+2 0.500000 0.499980 0.653120 0.942420
Zn2   Zn    Zn3+2 0.500000 0.500020 0.346880 0.942420

loop_
_geom_bond_atom_site_label_1
_geom_bond_atom_site_label_2
_ccdc_geom_bond_type
C12   H1    S    
C2    C4    A    
C10   O7    A    
C3    C9    S    
C5    N2    A    
C6    N1    A    
O3    Zn2   S    
N2    Zn2   S    
C1    C4    S    
C1    O1    A    
C7    N1    A    
O4    Zn1   S    
C2    C15   A    
C11   C13   S    
C5    H8    S    
C7    H10   S    
C9    O2    A    
N1    Zn1   S    
C10   C12   S    
C11   O8    A    
C10   O5    A    
C1    O3    A    
C4    C14   A    
C8    N2    A    
C14   C16   A    
C6    H9    S    
C13   H3    S    
C14   H4    S    
C15   H5    S    
O7    Zn2   S    
C3    C15   A    
C12   C13   D    
O2    Zn2   S    
O5    Zn1   S    
O1    Zn1   S    
C2    H7    S    
C5    C7    A    
O8    Zn1   S    
C6    C8    A    
C9    O4    A    
O6    Zn2   S    
C11   O6    A    
C8    H2    S    
C3    C16   A    
C16   H6    S    
