data_mof_unit_32948.cif
_audit_creation_date              2013-03-05T15:41:15-0500
_audit_creation_method            fapswitch 2.2
_symmetry_space_group_name_H-M    P1
_symmetry_Int_Tables_number       1
_space_group_crystal_system       triclinic
_cell_length_a                    7.850971
_cell_length_b                    8.571219
_cell_length_c                    13.565145
_cell_angle_alpha                 92.253918
_cell_angle_beta                  79.310433
_cell_angle_gamma                 93.374005
_cell_volume                      895.059842996

loop_
_atom_site_label
_atom_site_type_symbol
_atom_site_description
_atom_site_fract_x
_atom_site_fract_y
_atom_site_fract_z
_atom_type_partial_charge
O1    O     O_R   0.388300 0.738660 0.506400 -0.618328
O2    O     O_R   0.611700 0.261340 0.493600 -0.619521
O3    O     O_R   0.679920 0.711490 0.489690 -0.597027
O4    O     O_R   0.320080 0.288510 0.510310 -0.592782
C1    C     C_R   0.545702 0.794378 0.497558 0.941858
C2    C     C_R   0.454299 0.205623 0.502437 0.943276
O5    O     O_R   0.333200 0.515510 0.649910 -0.578708
O6    O     O_R   0.666800 0.484490 0.350090 -0.582132
O7    O     O_R   0.624820 0.488340 0.633200 -0.582802
O8    O     O_R   0.375180 0.511660 0.366800 -0.577674
C3    C     C_R   0.471908 0.505836 0.687123 0.873704
C4    C     C_R   0.528602 0.497576 0.312968 0.881609
Zn1   Zn    Zn3+2 0.305280 0.518140 0.511160 1.120744
Zn2   Zn    Zn3+2 0.694720 0.481860 0.488840 1.115480
C5    C     C_1   0.550800 0.513766 0.209032 -0.023060
C6    C     C_1   0.457630 0.535250 0.790749 -0.024218
C7    C     C_2   0.587510 0.558923 0.017615 0.161968
C8    C     C_2   0.446769 0.596020 0.981559 0.165195
C9    C     C_1   0.448092 0.565271 0.877787 0.069135
C10   C     C_1   0.570731 0.533563 0.121518 0.087219
C11   C     C_2   0.569775 0.957805 0.496145 -0.319223
C12   C     C_2   0.430229 0.042190 0.503818 -0.314973
H1    H     H_    0.701834 0.008158 0.488802 0.210211
H2    H     H_    0.298171 0.991836 0.511156 0.210860
N1    N     N_2   0.954190 0.457600 0.473930 0.028986
N2    N     N_2   0.045810 0.542400 0.526070 0.026370
N3    N     N_R   0.289033 0.645401 0.044878 0.231353
O9    O     O_R   0.144042 0.634740 0.011053 -0.260208
O10   O     O_R   0.293814 0.723189 0.128777 -0.338701
N4    N     N_R   0.749412 0.526533 0.952835 0.229110
O11   O     O_R   0.846424 0.421296 0.976682 -0.286732
O12   O     O_R   0.812974 0.619504 0.880006 -0.280802
N5    N     N_R   0.042883 0.411561 0.380386 0.305525
O13   O     O_R   0.040245 0.496492 0.303361 -0.305797
O14   O     O_R   0.090235 0.268417 0.365482 -0.362873
N6    N     N_R   0.958613 0.581314 0.621215 0.310791
O15   O     O_R   0.959212 0.487386 0.694137 -0.298440
O16   O     O_R   0.913659 0.724255 0.641952 -0.349394

loop_
_geom_bond_atom_site_label_1
_geom_bond_atom_site_label_2
_geom_bond_distance
_ccdc_geom_bond_type
O5    C3    1.290527 A    
O7    Zn2   1.932721 S    
N3    O10   1.301712 A    
C3    C6    1.403252 S    
C4    C5    1.399590 S    
N4    O11   1.301380 A    
O6    C4    1.290276 A    
N6    O16   1.300657 A    
C7    C8    1.347339 D    
C11   C12   1.333897 D    
N4    O12   1.300866 A    
C7    N4    1.439764 S    
O7    C3    1.298288 A    
O2    C2    1.284367 A    
O3    Zn2   1.977907 S    
O8    C4    1.297129 A    
C6    C9    1.188031 T    
O1    C1    1.284374 A    
N2    N6    1.382362 S    
N6    O15   1.300578 A    
N5    O14   1.300264 A    
N5    O13   1.300657 A    
C11   H1    1.087901 S    
Zn2   N1    2.031647 S    
C5    C10   1.185909 T    
O2    Zn2   1.962282 S    
C12   H2    1.087904 S    
Zn1   N2    2.031647 S    
O1    Zn1   1.962282 S    
C2    C12   1.402838 S    
O5    Zn1   1.935995 S    
C7    C10   1.415293 S    
C1    C11   1.402798 S    
O4    C2    1.291096 A    
C8    C9    1.420154 S    
N3    O9    1.301106 A    
O6    Zn2   1.935992 S    
N1    N2    1.277777 D    
C8    N3    1.445334 S    
O4    Zn1   1.977907 S    
N1    N5    1.384182 S    
O3    C1    1.291099 A    
O8    Zn1   1.932720 S    
