data_mof_unit_11032.cif
_audit_creation_date              2013-03-05T15:47:30-0500
_audit_creation_method            fapswitch 2.2
_symmetry_space_group_name_H-M    P1
_symmetry_Int_Tables_number       1
_space_group_crystal_system       triclinic
_cell_length_a                    21.922394
_cell_length_b                    22.173928
_cell_length_c                    22.058405
_cell_angle_alpha                 90.096924
_cell_angle_beta                  91.448101
_cell_angle_gamma                 90.078448
_cell_volume                      10719.2633088

loop_
_atom_site_label
_atom_site_type_symbol
_atom_site_description
_atom_site_fract_x
_atom_site_fract_y
_atom_site_fract_z
_atom_type_partial_charge
O1    O     O_R   0.551740 0.091630 0.999970 -0.590766
O2    O     O_R   0.000030 0.091630 0.551740 -0.601503
O3    O     O_R   0.448260 0.091630 0.000030 -0.570840
O4    O     O_R   0.999970 0.091630 0.448260 -0.567244
O5    O     O_R   0.551740 0.908370 0.000030 -0.598361
O6    O     O_R   0.000030 0.908370 0.448260 -0.557192
O7    O     O_R   0.448260 0.908370 0.999970 -0.588275
O8    O     O_R   0.999970 0.908370 0.551740 -0.551944
O9    O     O_R   0.908370 0.000030 0.551740 -0.566781
O10   O     O_R   0.908370 0.448260 0.000030 -0.576621
O11   O     O_R   0.908370 0.999970 0.448260 -0.553304
O12   O     O_R   0.908370 0.551740 0.999970 -0.558474
O13   O     O_R   0.091630 0.999970 0.551740 -0.626831
O14   O     O_R   0.091630 0.551740 0.000030 -0.558725
O15   O     O_R   0.091630 0.000030 0.448260 -0.582494
O16   O     O_R   0.091630 0.448260 0.999970 -0.579348
O17   O     O_R   0.999970 0.448260 0.908370 -0.578777
O18   O     O_R   0.551740 0.999970 0.908370 -0.575842
O19   O     O_R   0.000030 0.551740 0.908370 -0.571270
O20   O     O_R   0.448260 0.000030 0.908370 -0.578176
O21   O     O_R   0.000030 0.448260 0.091630 -0.620298
O22   O     O_R   0.448260 0.999970 0.091630 -0.574280
O23   O     O_R   0.999970 0.551740 0.091630 -0.570248
O24   O     O_R   0.551740 0.000030 0.091630 -0.575338
O25   O     O_R   0.051740 0.591630 0.499970 -0.590127
O26   O     O_R   0.500030 0.591630 0.051740 -0.585039
O27   O     O_R   0.948260 0.591630 0.500030 -0.563071
O28   O     O_R   0.499970 0.591630 0.948260 -0.581463
O29   O     O_R   0.051740 0.408370 0.500030 -0.579989
O30   O     O_R   0.500030 0.408370 0.948260 -0.574589
O31   O     O_R   0.948260 0.408370 0.499970 -0.591846
O32   O     O_R   0.499970 0.408370 0.051740 -0.575160
O33   O     O_R   0.408370 0.500030 0.051740 -0.596857
O34   O     O_R   0.408370 0.948260 0.500030 -0.574812
O35   O     O_R   0.408370 0.499970 0.948260 -0.583007
O36   O     O_R   0.408370 0.051740 0.499970 -0.535539
O37   O     O_R   0.591630 0.499970 0.051740 -0.573054
O38   O     O_R   0.591630 0.051740 0.500030 -0.602383
O39   O     O_R   0.591630 0.500030 0.948260 -0.587693
O40   O     O_R   0.591630 0.948260 0.499970 -0.571317
O41   O     O_R   0.499970 0.948260 0.408370 -0.564863
O42   O     O_R   0.051740 0.499970 0.408370 -0.552527
O43   O     O_R   0.500030 0.051740 0.408370 -0.574202
O44   O     O_R   0.948260 0.500030 0.408370 -0.539739
O45   O     O_R   0.500030 0.948260 0.591630 -0.559519
O46   O     O_R   0.948260 0.499970 0.591630 -0.577785
O47   O     O_R   0.499970 0.051740 0.591630 -0.559443
O48   O     O_R   0.051740 0.500030 0.591630 -0.566853
C1    C     C_R   0.500026 0.120288 0.997321 0.919878
C2    C     C_R   0.004963 0.120098 0.501220 0.964505
C3    C     C_R   0.499790 0.879894 0.999341 0.939375
C4    C     C_R   0.001138 0.879612 0.499689 0.902431
C5    C     C_R   0.879611 0.006176 0.500173 0.968939
C6    C     C_R   0.879637 0.500879 0.997045 0.924216
C7    C     C_R   0.119387 0.993817 0.501200 0.929913
C8    C     C_R   0.120360 0.501195 0.997151 0.898579
C9    C     C_R   0.004575 0.500579 0.880331 0.940953
C10   C     C_R   0.498328 0.004869 0.879588 0.943053
C11   C     C_R   0.992445 0.500753 0.119445 0.932782
C12   C     C_R   0.501392 0.005317 0.120398 0.922852
C13   C     C_R   0.998898 0.619598 0.496520 0.912368
C14   C     C_R   0.501225 0.619973 0.999637 0.943659
C15   C     C_R   0.000350 0.380029 0.495575 0.890038
C16   C     C_R   0.499695 0.379994 0.999820 0.899988
C17   C     C_R   0.380704 0.490350 0.998387 0.930840
C18   C     C_R   0.379815 0.999143 0.502286 0.883102
C19   C     C_R   0.619970 0.492677 0.001215 0.933098
C20   C     C_R   0.619333 0.999122 0.492102 0.909242
C21   C     C_R   0.498438 0.998676 0.379684 0.941893
C22   C     C_R   0.999904 0.496235 0.379653 0.916907
C23   C     C_R   0.498777 0.998723 0.620151 0.826313
C24   C     C_R   0.000242 0.498493 0.620262 0.944656
Zn1   Zn    Zn3+2 0.569090 0.000000 0.000000 1.227112
Zn2   Zn    Zn3+2 1.000000 0.000000 0.569090 1.251681
Zn3   Zn    Zn3+2 0.430910 0.000000 0.000000 1.260408
Zn4   Zn    Zn3+2 1.000000 0.000000 0.430910 1.244498
Zn5   Zn    Zn3+2 1.000000 0.430910 0.000000 1.178478
Zn6   Zn    Zn3+2 1.000000 0.569090 0.000000 1.312957
Zn7   Zn    Zn3+2 0.069090 0.500000 0.500000 1.296175
Zn8   Zn    Zn3+2 0.500000 0.500000 0.069090 1.215994
Zn9   Zn    Zn3+2 0.930910 0.500000 0.500000 1.259738
Zn10  Zn    Zn3+2 0.500000 0.500000 0.930910 1.222020
Zn11  Zn    Zn3+2 0.500000 0.930910 0.500000 1.314733
Zn12  Zn    Zn3+2 0.500000 0.069090 0.500000 1.237607
C25   C     C_R   0.387817 0.965244 0.800380 0.134866
C26   C     C_R   0.187108 0.928449 0.405238 0.183700
C27   C     C_R   0.602733 0.957059 0.199117 0.197318
C28   C     C_R   0.798848 0.936961 0.586674 0.200425
C29   C     C_R   0.432396 0.096680 0.192986 0.173122
C30   C     C_R   0.196983 0.010626 0.615132 0.145902
C31   C     C_R   0.576661 0.087763 0.807400 0.179088
C32   C     C_R   0.801913 0.111919 0.449786 0.199810
C33   C     C_R   0.118146 0.193503 0.470636 0.190867
C34   C     C_R   0.001222 0.615110 0.200965 0.243995
C35   C     C_R   0.102898 0.794418 0.547502 0.241775
C36   C     C_R   0.067899 0.403896 0.811889 0.211847
C37   C     C_R   0.903709 0.811508 0.426864 0.198836
C38   C     C_R   0.918015 0.410456 0.186879 0.166762
C39   C     C_R   0.953798 0.195804 0.602547 0.209179
C40   C     C_R   0.966343 0.607781 0.801061 0.212147
C41   C     C_R   0.792645 0.598387 0.051482 0.221128
C42   C     C_R   0.425783 0.803862 0.082732 0.191353
C43   C     C_R   0.197522 0.483734 0.107927 0.146036
C44   C     C_R   0.610831 0.200495 0.037203 0.194298
C45   C     C_R   0.205335 0.575365 0.908141 0.160992
C46   C     C_R   0.558367 0.806528 0.902142 0.155458
C47   C     C_R   0.803635 0.452839 0.890243 0.178862
C48   C     C_R   0.392332 0.202240 0.945577 0.211466
C49   C     C_R   0.941938 0.396056 0.309111 0.184989
C50   C     C_R   0.691096 0.405987 0.923801 0.176566
C51   C     C_R   0.089568 0.421789 0.691686 0.197228
C52   C     C_R   0.302861 0.417523 0.082857 0.157729
C53   C     C_R   0.903446 0.562497 0.699267 0.251468
C54   C     C_R   0.701813 0.530210 0.105510 0.201731
C55   C     C_R   0.075836 0.581634 0.300453 0.230864
C56   C     C_R   0.306980 0.508730 0.883922 0.197515
C57   C     C_R   0.602410 0.695901 0.946982 0.196274
C58   C     C_R   0.601788 0.048255 0.689566 0.176893
C59   C     C_R   0.564576 0.302084 0.095771 0.214746
C60   C     C_R   0.550919 0.895793 0.295418 0.194318
C61   C     C_R   0.445203 0.304784 0.895065 0.199521
C62   C     C_R   0.435889 0.902251 0.701970 0.152779
C63   C     C_R   0.392026 0.692904 0.030685 0.179385
C64   C     C_R   0.395181 0.054606 0.304686 0.176087
C65   C     C_R   0.303173 0.072631 0.590268 0.131972
C66   C     C_R   0.921732 0.310323 0.574222 0.162848
C67   C     C_R   0.704550 0.888223 0.513754 0.230411
C68   C     C_R   0.060701 0.686206 0.587264 0.178952
C69   C     C_R   0.686236 0.078642 0.406544 0.184675
C70   C     C_R   0.098186 0.310804 0.430678 0.205858
C71   C     C_R   0.306489 0.900850 0.433730 0.257505
C72   C     C_R   0.918075 0.689728 0.408135 0.176998
C73   C     C_R   0.357032 0.913588 0.777086 0.222378
C74   C     C_R   0.223494 0.907403 0.359345 0.298836
C75   C     C_R   0.619393 0.896899 0.208931 0.257419
C76   C     C_R   0.776209 0.878639 0.598450 0.226076
C77   C     C_R   0.377550 0.118067 0.217924 0.126823
C78   C     C_R   0.213187 0.059402 0.652220 0.190032
C79   C     C_R   0.631825 0.102461 0.779872 0.276723
C80   C     C_R   0.764116 0.155809 0.421331 0.136182
C81   C     C_R   0.166765 0.229081 0.451520 0.203796
C82   C     C_R   0.038759 0.658636 0.230573 0.236101
C83   C     C_R   0.145433 0.749421 0.565212 0.262517
C84   C     C_R   0.082719 0.353954 0.776384 0.247866
C85   C     C_R   0.864815 0.781574 0.384849 0.239167
C86   C     C_R   0.907672 0.354210 0.215067 0.119350
C87   C     C_R   0.899976 0.219906 0.627377 0.260935
C88   C     C_R   0.916335 0.640397 0.776366 0.187259
C89   C     C_R   0.756916 0.625255 0.097929 0.204507
C90   C     C_R   0.374910 0.771366 0.103167 0.145740
C91   C     C_R   0.225434 0.447286 0.153028 0.180297
C92   C     C_R   0.647829 0.233713 0.078028 0.247183
C93   C     C_R   0.247861 0.598779 0.866346 0.231372
C94   C     C_R   0.605103 0.775555 0.872192 0.146571
C95   C     C_R   0.767967 0.418751 0.848837 0.184647
C96   C     C_R   0.359330 0.238057 0.903127 0.249317
C97   C     C_R   0.932254 0.344826 0.272929 0.252070
C98   C     C_R   0.717320 0.387358 0.869175 0.131787
C99   C     C_R   0.104448 0.365525 0.718307 0.267132
C100  C     C_R   0.270793 0.406775 0.136088 0.168876
C101  C     C_R   0.879591 0.612562 0.730864 0.261758
C102  C     C_R   0.712314 0.588836 0.127250 0.250214
C103  C     C_R   0.083351 0.638761 0.273061 0.235316
C104  C     C_R   0.298526 0.562502 0.851684 0.262495
C105  C     C_R   0.634404 0.727795 0.902084 0.208545
C106  C     C_R   0.637465 0.092909 0.718020 0.243205
C107  C     C_R   0.619944 0.275832 0.115762 0.270601
C108  C     C_R   0.591999 0.864725 0.257091 0.205733
C109  C     C_R   0.391553 0.279734 0.868748 0.257376
C110  C     C_R   0.387246 0.877114 0.734671 0.245131
C111  C     C_R   0.351714 0.723380 0.068818 0.253409
C112  C     C_R   0.354739 0.089124 0.268788 0.266876
C113  C     C_R   0.269008 0.089224 0.641850 0.168992
C114  C     C_R   0.878366 0.273900 0.601742 0.239867
C115  C     C_R   0.737874 0.850903 0.554366 0.259230
C116  C     C_R   0.123335 0.699400 0.596723 0.215422
C117  C     C_R   0.708543 0.137083 0.393204 0.240640
C118  C     C_R   0.154536 0.282498 0.421627 0.231211
C119  C     C_R   0.279824 0.882604 0.377368 0.109225
C120  C     C_R   0.877383 0.721952 0.370488 0.219056
C121  C     C_R   0.461385 0.958929 0.720564 -0.152646
C122  C     C_R   0.280170 0.950982 0.465155 -0.006531
C123  C     C_R   0.530279 0.955329 0.278843 -0.074347
C124  C     C_R   0.721313 0.950143 0.509048 -0.079020
C125  C     C_R   0.450335 0.032730 0.280332 -0.109300
C126  C     C_R   0.279545 0.027899 0.548010 -0.092291
C127  C     C_R   0.548357 0.027943 0.718591 -0.071670
C128  C     C_R   0.715834 0.043966 0.452260 -0.123023
C129  C     C_R   0.052686 0.282310 0.467482 -0.075228
C130  C     C_R   0.028008 0.541798 0.278786 -0.039724
C131  C     C_R   0.029762 0.716458 0.539109 -0.106240
C132  C     C_R   0.044156 0.458862 0.719199 -0.093286
C133  C     C_R   0.954649 0.718105 0.454829 -0.080923
C134  C     C_R   0.964876 0.448972 0.280527 -0.077243
C135  C     C_R   0.964452 0.281462 0.536133 -0.015154
C136  C     C_R   0.959246 0.533641 0.720683 -0.061964
C137  C     C_R   0.722510 0.515490 0.048146 -0.082591
C138  C     C_R   0.450400 0.718333 0.020757 -0.123796
C139  C     C_R   0.280148 0.460753 0.041778 -0.086235
C140  C     C_R   0.535615 0.279676 0.041517 -0.070619
C141  C     C_R   0.281239 0.504161 0.941523 -0.054422
C142  C     C_R   0.546587 0.719942 0.967600 -0.087174
C143  C     C_R   0.718326 0.453333 0.957835 -0.072108
C144  C     C_R   0.467056 0.281448 0.952032 -0.098018
C145  C     C_R   0.956658 0.453474 0.216690 -0.104210
C146  C     C_R   0.779847 0.468225 0.947187 -0.102395
C147  C     C_R   0.040485 0.454968 0.782724 -0.091982
C148  C     C_R   0.220348 0.481867 0.048661 -0.109847
C149  C     C_R   0.979448 0.548452 0.779624 -0.067473
C150  C     C_R   0.778387 0.538701 0.031740 -0.077240
C151  C     C_R   0.002961 0.553802 0.220812 -0.068408
C152  C     C_R   0.222578 0.527755 0.948515 -0.068362
C153  C     C_R   0.535320 0.781498 0.956119 -0.099529
C154  C     C_R   0.539486 0.042283 0.780310 -0.094142
C155  C     C_R   0.549520 0.220326 0.024192 -0.083863
C156  C     C_R   0.547099 0.976671 0.221939 -0.075926
C157  C     C_R   0.452451 0.221272 0.965104 -0.066290
C158  C     C_R   0.446817 0.979925 0.778550 -0.089982
C159  C     C_R   0.458727 0.779853 0.034017 -0.077343
C160  C     C_R   0.461756 0.046160 0.219229 -0.081241
C161  C     C_R   0.219460 0.009099 0.555713 0.003022
C162  C     C_R   0.974360 0.219641 0.546267 -0.055937
C163  C     C_R   0.778081 0.967352 0.533445 -0.046779
C164  C     C_R   0.042396 0.777030 0.530068 -0.091848
C165  C     C_R   0.778014 0.055079 0.466316 -0.101418
C166  C     C_R   0.059635 0.219360 0.478446 -0.099626
C167  C     C_R   0.216305 0.956444 0.457568 -0.118260
C168  C     C_R   0.951755 0.781770 0.460384 -0.078232
C169  C     C_R   0.504131 0.993214 0.687117 0.039782
C170  C     C_R   0.312699 0.994664 0.503783 -0.002270
C171  C     C_R   0.490724 0.993327 0.312617 0.030362
C172  C     C_R   0.685803 0.995347 0.480076 0.034422
C173  C     C_R   0.003254 0.313469 0.496119 0.028218
C174  C     C_R   0.999874 0.494176 0.312414 0.031989
C175  C     C_R   0.994125 0.685563 0.496057 0.004835
C176  C     C_R   0.000255 0.495953 0.686982 0.040370
C177  C     C_R   0.687526 0.482781 0.004958 0.046240
C178  C     C_R   0.500544 0.686434 0.997483 0.007822
C179  C     C_R   0.313418 0.480057 0.992189 0.045466
C180  C     C_R   0.500041 0.313688 0.998592 0.048334
C181  C     C_R   0.980545 0.503958 0.185946 0.020052
C182  C     C_R   0.812236 0.504656 0.989885 0.046155
C183  C     C_R   0.011249 0.502865 0.813853 0.045993
C184  C     C_R   0.188108 0.505829 0.998219 0.007517
C185  C     C_R   0.498742 0.813404 0.997368 0.015718
C186  C     C_R   0.492530 0.012728 0.812165 0.080918
C187  C     C_R   0.500513 0.187042 0.995001 0.048542
C188  C     C_R   0.505919 0.012893 0.187955 0.019003
C189  C     C_R   0.185529 0.985604 0.504854 0.063623
C190  C     C_R   0.012355 0.187050 0.506855 0.037321
C191  C     C_R   0.811480 0.012138 0.502295 0.015066
C192  C     C_R   0.997721 0.812601 0.497810 0.011959
S1    S     S_3+6 0.700020 0.102939 0.824266 0.172098
O49   O     O_2   0.749845 0.072579 0.789954 -0.196013
O50   O     O_2   0.719193 0.166422 0.838275 -0.149085
O51   O     O_3   0.689430 0.064726 0.888940 -0.493353
H1    H     H_    0.729302 0.066555 0.911020 0.407473
S2    S     S_3+6 0.160638 0.081780 0.708021 0.223227
O52   O     O_2   0.184460 0.064307 0.769921 -0.137174
O53   O     O_2   0.151888 0.148743 0.705949 -0.112825
O54   O     O_3   0.092145 0.049076 0.696130 -0.422280
H2    H     H_    0.081372 0.057627 0.653200 0.382497
S3    S     S_3+6 0.340440 0.183692 0.191063 0.224700
O55   O     O_2   0.297461 0.166003 0.140098 -0.114575
O56   O     O_2   0.304592 0.213163 0.239891 -0.145483
O57   O     O_3   0.391279 0.234433 0.167642 -0.357230
H3    H     H_    0.418217 0.240568 0.203827 0.387310
S4    S     S_3+6 0.784932 0.233745 0.426472 0.217477
O58   O     O_2   0.729498 0.270996 0.439379 -0.128559
O59   O     O_2   0.831384 0.245109 0.476156 -0.211166
O60   O     O_3   0.814963 0.256404 0.361124 -0.384324
H4    H     H_    0.841598 0.222741 0.348892 0.401029
S5    S     S_3+6 0.661285 0.861373 0.150831 0.185160
O61   O     O_2   0.724661 0.847317 0.174153 -0.136451
O62   O     O_2   0.629355 0.804415 0.131233 -0.170455
O63   O     O_3   0.665790 0.906264 0.089659 -0.505272
H5    H     H_    0.685552 0.881230 0.058540 0.384294
S6    S     S_3+6 0.193511 0.908524 0.283262 0.191660
O64   O     O_2   0.243654 0.914043 0.238642 -0.203601
O65   O     O_2   0.157424 0.852039 0.270702 -0.120288
O66   O     O_3   0.147280 0.968436 0.273545 -0.474415
H6    H     H_    0.132020 0.965563 0.230988 0.410679
S7    S     S_3+6 0.282016 0.895181 0.801516 0.173761
O67   O     O_2   0.249117 0.853049 0.758523 -0.161861
O68   O     O_2   0.287132 0.866092 0.862943 -0.185973
O69   O     O_3   0.239779 0.958027 0.806579 -0.451268
H7    H     H_    0.201244 0.944799 0.824963 0.421501
S8    S     S_3+6 0.793628 0.842489 0.668257 0.216898
O70   O     O_2   0.748213 0.793630 0.680843 -0.129200
O71   O     O_2   0.856563 0.816216 0.664494 -0.160745
O72   O     O_3   0.792087 0.892541 0.725620 -0.444455
H8    H     H_    0.802995 0.869001 0.762435 0.421039
S9    S     S_3+6 0.873375 0.194623 0.698578 0.197820
O73   O     O_2   0.814655 0.223821 0.715565 -0.139265
O74   O     O_2   0.864277 0.127582 0.697218 -0.134961
O75   O     O_3   0.926625 0.211533 0.752098 -0.468886
H9    H     H_    0.911283 0.193779 0.789975 0.399892
S10   S     S_3+6 0.846450 0.307675 0.190792 0.215244
O76   O     O_2   0.864017 0.274570 0.134391 -0.156176
O77   O     O_2   0.828619 0.262822 0.237971 -0.164474
O78   O     O_3   0.786285 0.352770 0.176586 -0.380956
H10   H     H_    0.782333 0.377392 0.213799 0.386060
S11   S     S_3+6 0.800023 0.819637 0.351069 0.188233
O79   O     O_2   0.818080 0.846395 0.291525 -0.187666
O80   O     O_2   0.748134 0.776572 0.340443 -0.173533
O81   O     O_3   0.774614 0.875336 0.395463 -0.474010
H11   H     H_    0.763024 0.908601 0.367550 0.409790
S12   S     S_3+6 0.906612 0.717460 0.799871 0.205437
O82   O     O_2   0.964625 0.751750 0.789767 -0.142685
O83   O     O_2   0.856488 0.750638 0.766991 -0.166949
O84   O     O_3   0.892650 0.719128 0.874362 -0.420442
H12   H     H_    0.848567 0.710507 0.876802 0.426416
S13   S     S_3+6 0.218173 0.747652 0.531990 0.195697
O85   O     O_2   0.263855 0.776143 0.574795 -0.098391
O86   O     O_2   0.236505 0.683552 0.519561 -0.205730
O87   O     O_3   0.217034 0.785527 0.466147 -0.490560
H13   H     H_    0.251120 0.768551 0.443007 0.397099
S14   S     S_3+6 0.026434 0.737417 0.218158 0.175502
O88   O     O_2   0.044712 0.773408 0.273451 -0.194584
O89   O     O_2   0.063403 0.757635 0.165425 -0.153352
O90   O     O_3   0.952425 0.751551 0.202685 -0.482431
H14   H     H_    0.950196 0.795638 0.195846 0.407936
S15   S     S_3+6 0.241292 0.214043 0.480114 0.189945
O91   O     O_2   0.269730 0.165747 0.442522 -0.102817
O92   O     O_2   0.281252 0.269162 0.480075 -0.196952
O93   O     O_3   0.236055 0.190006 0.551900 -0.474075
H15   H     H_    0.218076 0.224249 0.574055 0.387651
S16   S     S_3+6 0.073434 0.280490 0.806195 0.188748
O94   O     O_2   0.058641 0.236788 0.755849 -0.147498
O95   O     O_2   0.130740 0.260939 0.839321 -0.155944
O96   O     O_3   0.015637 0.281120 0.854909 -0.503394
H16   H     H_    0.012097 0.238885 0.868957 0.393120
S17   S     S_3+6 0.778019 0.429697 0.770489 0.204920
O97   O     O_2   0.831722 0.393500 0.750521 -0.102677
O98   O     O_2   0.722345 0.412851 0.733086 -0.158992
O99   O     O_3   0.792070 0.503264 0.760593 -0.463635
H17   H     H_    0.758162 0.524297 0.780607 0.379464
S18   S     S_3+6 0.614915 0.784356 0.793085 0.204286
O100  O     O_2   0.651381 0.840245 0.780708 -0.119210
O101  O     O_2   0.646381 0.730645 0.766427 -0.173709
O102  O     O_3   0.545555 0.790337 0.760099 -0.411735
H18   H     H_    0.522456 0.755716 0.776193 0.370091
S19   S     S_3+6 0.240388 0.674128 0.838404 0.204260
O103  O     O_2   0.281856 0.713581 0.876562 -0.147914
O104  O     O_2   0.259236 0.678030 0.773622 -0.156243
O105  O     O_3   0.169335 0.701632 0.842279 -0.397376
H19   H     H_    0.172267 0.743771 0.827776 0.420119
S20   S     S_3+6 0.278145 0.239752 0.902245 0.208335
O106  O     O_2   0.255285 0.297824 0.874960 -0.172165
O107  O     O_2   0.253349 0.187290 0.866251 -0.119821
O108  O     O_3   0.252446 0.235370 0.973238 -0.477498
H20   H     H_    0.207462 0.238079 0.968746 0.397595
S21   S     S_3+6 0.212943 0.460290 0.230684 0.191255
O109  O     O_2   0.151414 0.435707 0.246305 -0.143293
O110  O     O_2   0.261203 0.431374 0.270445 -0.200201
O111  O     O_3   0.214568 0.535090 0.242734 -0.422224
H21   H     H_    0.254756 0.548459 0.228159 0.377225
S22   S     S_3+6 0.351850 0.779562 0.177900 0.203266
O112  O     O_2   0.312666 0.834761 0.180736 -0.102340
O113  O     O_2   0.316942 0.725892 0.199995 -0.195183
O114  O     O_3   0.415211 0.787270 0.221326 -0.398968
H22   H     H_    0.434177 0.746760 0.221694 0.380534
S23   S     S_3+6 0.760656 0.704403 0.112612 0.209064
O115  O     O_2   0.711248 0.734139 0.075211 -0.180478
O116  O     O_2   0.748836 0.716310 0.178010 -0.122586
O117  O     O_3   0.826912 0.738034 0.096618 -0.425234
H23   H     H_    0.854668 0.728348 0.131300 0.423637
S24   S     S_3+6 0.728524 0.234288 0.070529 0.186331
O118  O     O_2   0.750096 0.298052 0.078303 -0.160886
O119  O     O_2   0.758317 0.194293 0.117492 -0.128577
O120  O     O_3   0.750102 0.210743 0.001833 -0.513803
H24   H     H_    0.794726 0.217739 0.001435 0.395783
S25   S     S_3+6 0.148941 0.684165 0.291121 0.203836
O121  O     O_2   0.164826 0.722637 0.237776 -0.124844
O122  O     O_2   0.135503 0.723885 0.344439 -0.188473
O123  O     O_3   0.210037 0.641442 0.309086 -0.444949
H25   H     H_    0.242695 0.670520 0.320556 0.412013
S26   S     S_3+6 0.657511 0.617699 0.178367 0.197310
O124  O     O_2   0.686760 0.625497 0.240161 -0.152512
O125  O     O_2   0.633093 0.677072 0.156222 -0.138687
O126  O     O_3   0.597663 0.570511 0.183500 -0.495960
H26   H     H_    0.569657 0.590623 0.211677 0.393895
S27   S     S_3+6 0.806462 0.641952 0.708702 0.193030
O127  O     O_2   0.774852 0.667818 0.762165 -0.174023
O128  O     O_2   0.816742 0.690457 0.662917 -0.127143
O129  O     O_3   0.759455 0.589994 0.677149 -0.454068
H27   H     H_    0.723288 0.612957 0.662481 0.412744
S28   S     S_3+6 0.354682 0.583802 0.798625 0.164809
O130  O     O_2   0.328051 0.577967 0.735419 -0.178605
O131  O     O_2   0.375086 0.647697 0.809390 -0.197084
O132  O     O_3   0.416487 0.539173 0.805636 -0.492666
H28   H     H_    0.444399 0.553259 0.773992 0.386113
S29   S     S_3+6 0.158304 0.316702 0.683900 0.174427
O133  O     O_2   0.178527 0.266838 0.725525 -0.125929
O134  O     O_2   0.129480 0.290274 0.627286 -0.260243
O135  O     O_3   0.221116 0.355598 0.665523 -0.444535
H29   H     H_    0.246681 0.326368 0.643608 0.399409
S30   S     S_3+6 0.693923 0.320478 0.830892 0.222593
O136  O     O_2   0.640868 0.334118 0.788780 -0.097925
O137  O     O_2   0.745315 0.295412 0.794889 -0.155626
O138  O     O_3   0.672945 0.268427 0.881306 -0.377777
H30   H     H_    0.707058 0.267363 0.911482 0.382763
S31   S     S_3+6 0.966982 0.274665 0.292433 0.137095
O139  O     O_2   0.961600 0.262174 0.358926 -0.208056
O140  O     O_2   0.939763 0.222829 0.257142 -0.196166
O141  O     O_3   0.041434 0.278247 0.276273 -0.444523
H31   H     H_    0.042359 0.291541 0.233455 0.368303
S32   S     S_3+6 0.275319 0.335620 0.170381 0.203234
O142  O     O_2   0.328501 0.334716 0.214673 -0.134431
O143  O     O_2   0.217709 0.320705 0.202540 -0.189726
O144  O     O_3   0.284956 0.284608 0.115126 -0.377609
H32   H     H_    0.246734 0.286085 0.090256 0.369025
S33   S     S_3+6 0.272796 0.704838 0.071949 0.200448
O145  O     O_2   0.265369 0.651975 0.113736 -0.204150
O146  O     O_2   0.236718 0.757246 0.095174 -0.137477
O147  O     O_3   0.245473 0.686787 0.002473 -0.448770
H33   H     H_    0.215877 0.654009 0.009530 0.404785
S34   S     S_3+6 0.369982 0.798603 0.728688 0.207221
O148  O     O_2   0.352321 0.775475 0.789698 -0.155893
O149  O     O_2   0.317858 0.789768 0.684247 -0.124122
O150  O     O_3   0.429423 0.757643 0.705344 -0.474897
H34   H     H_    0.413968 0.715704 0.702605 0.413772
S35   S     S_3+6 0.376092 0.284145 0.788953 0.211427
O151  O     O_2   0.415931 0.238486 0.758861 -0.166594
O152  O     O_2   0.310708 0.269755 0.773443 -0.144326
O153  O     O_3   0.391805 0.352255 0.760210 -0.410909
H35   H     H_    0.383513 0.348304 0.716025 0.405823
S36   S     S_3+6 0.274985 0.089506 0.283891 0.188536
O154  O     O_2   0.259380 0.143681 0.321161 -0.155850
O155  O     O_2   0.237985 0.090550 0.225631 -0.176061
O156  O     O_3   0.255895 0.027871 0.322832 -0.511768
H36   H     H_    0.222308 0.040885 0.349039 0.405192
S37   S     S_3+6 0.645324 0.283822 0.192324 0.193038
O157  O     O_2   0.699275 0.244243 0.205550 -0.124668
O158  O     O_2   0.662469 0.347836 0.206716 -0.161910
O159  O     O_3   0.587751 0.263200 0.236904 -0.499421
H37   H     H_    0.588692 0.292125 0.271176 0.422880
S38   S     S_3+6 0.678432 0.146146 0.675431 0.209389
O160  O     O_2   0.683107 0.204856 0.709334 -0.115740
O161  O     O_2   0.741357 0.122703 0.664460 -0.147895
O162  O     O_3   0.641475 0.158013 0.608626 -0.482838
H38   H     H_    0.673009 0.155428 0.577346 0.398840
S39   S     S_3+6 0.713886 0.718544 0.892663 0.147765
O163  O     O_2   0.727253 0.656516 0.869276 -0.147703
O164  O     O_2   0.739107 0.764300 0.849727 -0.219801
O165  O     O_3   0.749047 0.728384 0.960259 -0.459089
H39   H     H_    0.749711 0.772612 0.966672 0.382734
S40   S     S_3+6 0.602475 0.784960 0.265102 0.212356
O166  O     O_2   0.557122 0.754161 0.223302 -0.196664
O167  O     O_2   0.665410 0.767127 0.247442 -0.118606
O168  O     O_3   0.591952 0.758369 0.335347 -0.411644
H40   H     H_    0.630069 0.768023 0.358382 0.421476
S41   S     S_3+6 0.314994 0.829028 0.330529 0.198380
O169  O     O_2   0.347606 0.780334 0.365645 -0.180611
O170  O     O_2   0.268423 0.798603 0.290010 -0.146987
O171  O     O_3   0.365114 0.867960 0.289457 -0.372339
H41   H     H_    0.348074 0.908900 0.284048 0.382322
S42   S     S_3+6 0.208284 0.312157 0.370288 0.225413
O172  O     O_2   0.252288 0.264417 0.351057 -0.166598
O173  O     O_2   0.174666 0.335224 0.315098 -0.118057
O174  O     O_3   0.247329 0.369128 0.403612 -0.427950
H42   H     H_    0.284398 0.374046 0.379347 0.416209
S43   S     S_3+6 0.668891 0.182869 0.338659 0.179974
O175  O     O_2   0.606229 0.196262 0.361415 -0.238701
O176  O     O_2   0.699727 0.241611 0.325834 -0.132077
O177  O     O_3   0.663355 0.143795 0.273174 -0.413528
H43   H     H_    0.621959 0.152125 0.256269 0.432953
S44   S     S_3+6 0.844883 0.687672 0.303588 0.187472
O178  O     O_2   0.783008 0.663169 0.318096 -0.180487
O179  O     O_2   0.838823 0.733761 0.254302 -0.158988
O180  O     O_3   0.887732 0.631234 0.276904 -0.483365
H44   H     H_    0.858593 0.598924 0.264855 0.410215
S45   S     S_3+6 0.741818 0.771684 0.541777 0.166903
O181  O     O_2   0.805245 0.750172 0.557267 -0.226991
O182  O     O_2   0.696668 0.739653 0.580535 -0.160560
O183  O     O_3   0.726566 0.754696 0.468631 -0.474039
H45   H     H_    0.738549 0.711894 0.464161 0.398820
S46   S     S_3+6 0.801241 0.297380 0.601647 0.229578
O184  O     O_2   0.760562 0.243673 0.590953 -0.179597
O185  O     O_2   0.785574 0.325964 0.660778 -0.113379
O186  O     O_3   0.788481 0.347778 0.545823 -0.420119
H46   H     H_    0.809294 0.385175 0.559724 0.383263
S47   S     S_3+6 0.301447 0.142980 0.694265 0.211935
O187  O     O_2   0.313063 0.200861 0.661147 -0.161972
O188  O     O_2   0.262663 0.156225 0.747448 -0.103176
O189  O     O_3   0.368389 0.116810 0.722048 -0.406636
H47   H     H_    0.365696 0.072409 0.717765 0.328835
S48   S     S_3+6 0.173447 0.653265 0.641463 0.208803
O190  O     O_2   0.173151 0.591494 0.613507 -0.199030
O191  O     O_2   0.237718 0.676718 0.643888 -0.126125
O192  O     O_3   0.149956 0.649444 0.713286 -0.406107
H48   H     H_    0.163606 0.609456 0.728293 0.413670
N1    N     N_R   0.356392 0.006684 0.839198 0.271012
O193  O     O_R   0.364606 0.064437 0.833333 -0.278401
O194  O     O_R   0.328822 0.987227 0.886980 -0.242667
N2    N     N_R   0.126558 0.903488 0.404843 0.224626
O195  O     O_R   0.086771 0.920705 0.363644 -0.262800
O196  O     O_R   0.119036 0.850651 0.428656 -0.346352
N3    N     N_R   0.645788 0.000389 0.176021 0.284002
O197  O     O_R   0.703762 0.987747 0.176457 -0.238031
O198  O     O_R   0.630096 0.056631 0.169319 -0.289593
N4    N     N_R   0.834065 0.968587 0.632354 0.271711
O199  O     O_R   0.821049 0.024311 0.644747 -0.225779
O200  O     O_R   0.882510 0.944278 0.657344 -0.253598
N5    N     N_R   0.463160 0.130161 0.147482 0.195308
O201  O     O_R   0.433109 0.151229 0.101066 -0.317503
O202  O     O_R   0.521220 0.141718 0.153533 -0.390742
N6    N     N_R   0.190740 0.953732 0.645541 0.265664
O203  O     O_R   0.233823 0.913902 0.639945 -0.280175
O204  O     O_R   0.154428 0.948077 0.690890 -0.222658
N7    N     N_R   0.549552 0.133225 0.845276 0.223839
O205  O     O_R   0.574508 0.186432 0.847999 -0.215576
O206  O     O_R   0.492478 0.129446 0.859578 -0.428701
N8    N     N_R   0.861697 0.128560 0.469129 0.186829
O207  O     O_R   0.897999 0.153626 0.430798 -0.358637
O208  O     O_R   0.874072 0.131099 0.526904 -0.438972
N9    N     N_R   0.131875 0.133640 0.489098 0.190664
O209  O     O_R   0.163638 0.100656 0.452778 -0.377976
O210  O     O_R   0.130647 0.120217 0.546411 -0.407148
N10   N     N_R   0.956908 0.634529 0.155990 0.268511
O211  O     O_R   0.902971 0.609977 0.153008 -0.377901
O212  O     O_R   0.973441 0.670212 0.112559 -0.254110
N11   N     N_R   0.119120 0.854843 0.560274 0.188214
O213  O     O_R   0.096164 0.878654 0.608412 -0.300239
O214  O     O_R   0.172758 0.872348 0.544589 -0.335883
N12   N     N_R   0.101976 0.410675 0.867694 0.219749
O215  O     O_R   0.103773 0.367256 0.907281 -0.280887
O216  O     O_R   0.143487 0.452421 0.871011 -0.420332
N13   N     N_R   0.890657 0.872228 0.437239 0.222469
O217  O     O_R   0.888760 0.908801 0.391094 -0.304152
O218  O     O_R   0.864677 0.885695 0.487507 -0.467776
N14   N     N_R   0.882232 0.427848 0.134372 0.221265
O219  O     O_R   0.870211 0.389384 0.091159 -0.279068
O220  O     O_R   0.854877 0.479868 0.133659 -0.426648
N15   N     N_R   0.996521 0.163708 0.640926 0.256540
O221  O     O_R   0.054092 0.177298 0.638962 -0.269942
O222  O     O_R   0.979980 0.117360 0.672595 -0.253941
N16   N     N_R   0.013679 0.641721 0.831272 0.285825
O223  O     O_R   0.055999 0.664649 0.798069 -0.208520
O224  O     O_R   0.004742 0.665278 0.884404 -0.214221
N17   N     N_R   0.828704 0.635598 0.012919 0.282183
O225  O     O_R   0.821221 0.630831 0.954448 -0.275469
O226  O     O_R   0.878523 0.660574 0.033789 -0.236590
N18   N     N_R   0.448550 0.855001 0.116410 0.226770
O227  O     O_R   0.411183 0.894537 0.138164 -0.307420
O228  O     O_R   0.506378 0.859093 0.130287 -0.411280
N19   N     N_R   0.153588 0.528744 0.123669 0.222680
O229  O     O_R   0.112617 0.517104 0.163247 -0.399233
O230  O     O_R   0.158560 0.583614 0.103627 -0.309927
N20   N     N_R   0.640491 0.156354 0.001283 0.271227
O231  O     O_R   0.640225 0.161928 0.942914 -0.250343
O232  O     O_R   0.672347 0.113477 0.027010 -0.272694
N21   N     N_R   0.144487 0.595837 0.904038 0.243330
O233  O     O_R   0.127042 0.642355 0.935165 -0.251408
O234  O     O_R   0.112239 0.577506 0.857632 -0.366802
N22   N     N_R   0.528335 0.856651 0.873172 0.206508
O235  O     O_R   0.559639 0.895334 0.842486 -0.333357
O236  O     O_R   0.469021 0.858737 0.869920 -0.403449
N23   N     N_R   0.859502 0.478246 0.870307 0.193135
O237  O     O_R   0.896497 0.444350 0.840341 -0.354549
O238  O     O_R   0.866331 0.536515 0.869327 -0.406289
N24   N     N_R   0.359099 0.156890 0.976537 0.264003
O239  O     O_R   0.339827 0.168481 0.030349 -0.196252
O240  O     O_R   0.333727 0.113040 0.945832 -0.245355
N25   N     N_R   0.902335 0.401603 0.359518 0.208331
O241  O     O_R   0.858072 0.440638 0.356000 -0.290638
O242  O     O_R   0.897391 0.357115 0.397346 -0.282946
N26   N     N_R   0.642044 0.372729 0.948820 0.189665
O243  O     O_R   0.597706 0.353259 0.914186 -0.307399
O244  O     O_R   0.644330 0.357554 0.005660 -0.438323
N27   N     N_R   0.132950 0.447766 0.652021 0.268608
O245  O     O_R   0.171668 0.486994 0.674052 -0.269503
O246  O     O_R   0.142488 0.423773 0.599173 -0.261912
N28   N     N_R   0.352559 0.379260 0.066628 0.224018
O247  O     O_R   0.394428 0.365493 0.106814 -0.255160
O248  O     O_R   0.353408 0.354195 0.013279 -0.393236
N29   N     N_R   0.866938 0.539978 0.649409 0.272779
O249  O     O_R   0.841759 0.487043 0.651924 -0.216178
O250  O     O_R   0.855553 0.574087 0.602415 -0.275981
N30   N     N_R   0.679968 0.482769 0.143985 0.285774
O251  O     O_R   0.670193 0.429477 0.121029 -0.271906
O252  O     O_R   0.686805 0.487241 0.202612 -0.247655
N31   N     N_R   0.118632 0.564533 0.347466 0.270834
O253  O     O_R   0.148883 0.514411 0.343681 -0.182464
O254  O     O_R   0.127435 0.599000 0.394734 -0.289657
N32   N     N_R   0.332430 0.456208 0.855497 0.287350
O255  O     O_R   0.327574 0.450484 0.796866 -0.222099
O256  O     O_R   0.344404 0.408196 0.887386 -0.341013
N33   N     N_R   0.629208 0.644114 0.975624 0.212125
O257  O     O_R   0.657462 0.604002 0.943971 -0.361449
O258  O     O_R   0.626311 0.637369 0.033919 -0.397388
N34   N     N_R   0.628304 0.012377 0.642213 0.204520
O259  O     O_R   0.671767 0.034050 0.609781 -0.378123
O260  O     O_R   0.621560 0.954046 0.642992 -0.333539
N35   N     N_R   0.532352 0.339394 0.137238 0.265911
O261  O     O_R   0.487390 0.316358 0.166441 -0.275512
O262  O     O_R   0.556341 0.389671 0.156868 -0.258610
N36   N     N_R   0.518656 0.860733 0.338780 0.262648
O263  O     O_R   0.472453 0.828510 0.320431 -0.190221
O264  O     O_R   0.544424 0.847332 0.390678 -0.241412
N37   N     N_R   0.486350 0.335082 0.855876 0.283134
O265  O     O_R   0.524687 0.302692 0.825865 -0.194498
O266  O     O_R   0.474476 0.389542 0.837141 -0.247147
N38   N     N_R   0.465526 0.865119 0.658382 0.280613
O267  O     O_R   0.524220 0.856560 0.662062 -0.197876
O268  O     O_R   0.434279 0.841618 0.613286 -0.247705
N39   N     N_R   0.371593 0.640858 0.997830 0.207967
O269  O     O_R   0.335872 0.602444 0.023441 -0.411456
O270  O     O_R   0.380233 0.636992 0.939898 -0.345521
N40   N     N_R   0.376023 0.035824 0.362430 0.200043
O271  O     O_R   0.349096 0.073847 0.397801 -0.297018
O272  O     O_R   0.374345 0.978683 0.373806 -0.483970
N41   N     N_R   0.354882 0.109404 0.576932 0.256947
O273  O     O_R   0.351701 0.148579 0.533310 -0.191798
O274  O     O_R   0.402840 0.109583 0.612532 -0.336220
N42   N     N_R   0.942639 0.360183 0.610485 0.180486
O275  O     O_R   0.905101 0.387735 0.645639 -0.302488
O276  O     O_R   0.000579 0.364268 0.623277 -0.457039
N43   N     N_R   0.661017 0.861490 0.472037 0.282646
O277  O     O_R   0.656676 0.880306 0.416311 -0.328825
O278  O     O_R   0.621856 0.822100 0.491149 -0.242235
N44   N     N_R   0.026111 0.646931 0.625278 0.208653
O279  O     O_R   0.052189 0.611495 0.664579 -0.367184
O280  O     O_R   0.967110 0.652824 0.626178 -0.382933
N45   N     N_R   0.641487 0.049280 0.367634 0.212297
O281  O     O_R   0.594650 0.078003 0.345249 -0.352477
O282  O     O_R   0.650594 0.994001 0.350226 -0.407540
N46   N     N_R   0.089523 0.368094 0.402534 0.221574
O283  O     O_R   0.129608 0.410468 0.412878 -0.237268
O284  O     O_R   0.054953 0.371625 0.354401 -0.381385
N47   N     N_R   0.349512 0.861443 0.463663 0.243838
O285  O     O_R   0.342043 0.847745 0.520229 -0.254408
O286  O     O_R   0.401832 0.849850 0.439522 -0.226409
N48   N     N_R   0.926740 0.628897 0.393164 0.226394
O287  O     O_R   0.880521 0.591881 0.392363 -0.284152
O288  O     O_R   0.976195 0.615657 0.365585 -0.479818

loop_
_geom_bond_atom_site_label_1
_geom_bond_atom_site_label_2
_geom_bond_distance
_ccdc_geom_bond_type
C155  C187  1.440420 A    
C67   C124  1.425465 A    
N21   O233  1.301386 A    
C47   N23   1.427209 S    
C63   C138  1.419904 A    
C43   N19   1.436213 S    
O72   H8    0.990494 S    
C90   S22   1.745699 S    
C41   N17   1.436624 S    
S11   O80   1.497841 D    
C86   C97   1.388958 A    
N33   O257  1.297500 A    
S45   O183  1.681452 S    
N41   O273  1.298062 A    
C57   C142  1.420471 A    
C6    C182  1.484527 S    
S31   O140  1.501604 D    
O21   C11   1.327489 A    
O11   Zn4   2.054362 S    
O22   C12   1.317372 A    
C96   S20   1.779851 S    
O36   C18   1.324575 A    
C122  C167  1.411215 A    
C2    C190  1.497799 S    
C163  C191  1.421336 A    
O60   H4    0.989642 S    
S5    O63   1.682950 S    
N26   O243  1.294235 A    
S22   O114  1.675634 S    
C166  C190  1.418680 A    
C5    C191  1.501518 S    
N44   O279  1.293950 A    
C91   S21   1.764854 S    
C137  C177  1.407476 A    
C66   C135  1.425529 A    
C26   C74   1.385320 A    
N19   O229  1.294316 A    
N30   O251  1.300209 A    
N3    O198  1.301802 A    
C54   C137  1.393414 A    
C66   N42   1.431541 S    
C75   C108  1.425405 A    
C7    C189  1.461836 S    
O44   C22   1.313953 A    
O93   H15   0.989938 S    
C74   C119  1.401135 A    
C141  C152  1.401009 A    
O46   C24   1.289325 A    
C66   C114  1.397619 A    
S12   O84   1.679347 S    
C86   S10   1.763745 S    
C160  C188  1.411157 A    
C39   C162  1.433041 A    
N41   O274  1.296234 A    
C95   C98   1.393821 A    
N43   O278  1.301951 A    
O40   Zn11  2.044757 S    
O11   C5    1.328119 A    
C134  C174  1.433984 A    
N42   O276  1.297178 A    
S24   O118  1.498469 D    
S21   O110  1.502178 D    
N22   O236  1.301366 A    
C141  C179  1.412663 A    
S35   O153  1.677625 S    
C25   N1    1.442569 S    
S4    O59   1.497871 D    
S12   O82   1.502492 D    
N4    O200  1.302052 A    
C50   N26   1.426172 S    
S43   O175  1.504232 D    
S8    O72   1.682695 S    
C52   N28   1.433950 S    
C150  C182  1.416604 A    
O44   Zn9   2.066116 S    
S25   O123  1.681175 S    
C82   C103  1.408721 A    
N9    O210  1.300234 A    
N36   O263  1.294852 A    
S17   O97   1.500635 D    
O28   Zn10  2.066895 S    
O26   Zn8   2.068166 S    
C24   C176  1.472911 S    
O87   H13   0.989957 S    
C82   S14   1.788495 S    
O30   Zn10  2.068163 S    
S41   O171  1.680363 S    
C73   C110  1.413671 A    
S37   O157  1.496830 D    
N28   O247  1.296917 A    
O32   Zn8   2.066889 S    
C20   C172  1.490155 S    
S11   O79   1.504048 D    
C64   C112  1.402616 A    
S37   O159  1.682786 S    
N38   O268  1.301219 A    
N24   O239  1.295428 A    
O105  H19   0.990678 S    
O47   C23   1.334820 A    
C29   N5    1.431376 S    
C48   C157  1.438681 A    
N34   O260  1.301843 A    
O75   H9    0.990525 S    
C126  C161  1.395595 A    
S32   O143  1.500857 D    
C32   C165  1.416100 A    
C128  C165  1.411547 A    
N40   O272  1.292720 A    
N1    O194  1.302056 A    
O126  H26   0.990565 S    
S10   O76   1.502294 D    
C44   N20   1.426103 S    
S27   O127  1.496686 D    
C59   C107  1.407966 A    
C92   C107  1.401207 A    
O159  H37   0.990372 S    
C60   C108  1.427776 A    
O41   C21   1.285571 A    
S17   O99   1.675343 S    
S3    O56   1.498834 D    
C39   C87   1.418162 A    
C133  C175  1.435556 A    
C52   C100  1.404263 A    
S14   O90   1.679553 S    
C37   C85   1.408178 A    
N12   O215  1.300846 A    
O156  H36   0.990522 S    
C157  C187  1.445648 A    
O99   H17   0.990851 S    
O33   Zn8   2.035362 S    
C126  C170  1.434564 A    
C156  C188  1.411321 A    
S2    O53   1.498067 D    
C38   C86   1.415083 A    
S29   O133  1.498780 D    
S46   O186  1.682710 S    
S40   O166  1.501593 D    
C44   C92   1.403769 A    
C21   C171  1.489291 S    
S45   O181  1.502022 D    
O147  H33   0.988781 S    
C62   N38   1.433466 S    
S48   O190  1.501103 D    
C33   N9    1.419540 S    
S48   O192  1.680466 S    
C55   C103  1.415582 A    
O189  H47   0.990451 S    
S39   O164  1.503421 D    
C53   C101  1.417405 A    
C127  C169  1.406121 A    
S47   O189  1.680498 S    
N14   O219  1.299778 A    
N10   O212  1.301756 A    
O90   H14   0.990498 S    
O5    C3    1.301173 A    
C89   C102  1.434602 A    
O6    C4    1.302026 A    
N37   O265  1.299448 A    
S24   O120  1.681289 S    
C47   C95   1.406026 A    
S8    O71   1.502536 D    
N45   O282  1.301051 A    
C138  C159  1.405361 A    
C45   C93   1.425622 A    
C78   S2    1.777492 S    
O150  H34   0.990547 S    
O45   C23   1.283437 A    
C115  S45   1.780505 S    
C45   N21   1.410429 S    
C51   N27   1.429729 S    
N39   O269  1.296180 A    
C152  C184  1.432541 A    
C49   C97   1.400059 A    
C140  C155  1.405762 A    
S27   O128  1.497359 D    
O138  H30   0.988857 S    
C87   C114  1.402826 A    
C89   S23   1.785500 S    
O174  H42   0.990302 S    
O23   C11   1.299547 A    
N17   O225  1.300151 A    
C45   C152  1.427511 A    
N32   O256  1.300400 A    
C107  S37   1.773251 S    
O54   H2    0.988876 S    
C71   C122  1.438230 A    
S13   O86   1.504251 D    
O38   C20   1.329422 A    
C40   C149  1.429210 A    
O42   C22   1.289426 A    
N46   O283  1.301540 A    
C75   S5    1.778925 S    
S20   O106  1.503561 D    
S14   O89   1.503100 D    
O2    C2    1.288529 A    
S38   O160  1.502345 D    
C122  C170  1.461971 A    
N35   O261  1.295862 A    
N46   O284  1.291345 A    
O171  H41   0.988404 S    
C27   C156  1.400640 A    
S4    O60   1.677266 S    
C94   C105  1.397052 A    
O3    Zn3   2.066576 S    
O8    C4    1.313254 A    
C65   N41   1.432334 S    
C92   S24   1.780915 S    
C167  C189  1.412708 A    
C8    C184  1.488200 S    
O42   Zn7   2.047221 S    
C142  C153  1.409645 A    
C63   C111  1.408021 A    
S7    O69   1.679291 S    
C26   C167  1.444515 A    
O45   Zn11  2.056844 S    
O48   C24   1.307899 A    
C145  C181  1.416395 A    
C30   C78   1.395192 A    
O35   Zn10  2.054362 S    
S12   O83   1.496154 D    
O186  H46   0.990405 S    
S34   O149  1.499073 D    
N47   O286  1.302456 A    
O37   Zn8   2.054362 S    
N5    O202  1.301513 A    
C16   C180  1.470504 S    
S42   O172  1.501040 D    
C60   N36   1.433415 S    
C34   C82   1.415533 A    
S40   O168  1.680065 S    
O31   C15   1.309855 A    
C101  S27   1.788341 S    
O32   C16   1.305683 A    
C30   C161  1.412240 A    
C133  C168  1.418445 A    
C40   N16   1.431272 S    
C130  C151  1.404917 A    
N29   O250  1.303462 A    
C61   N37   1.432491 S    
S20   O108  1.680513 S    
C50   C98   1.409620 A    
O20   Zn3   2.066116 S    
S15   O92   1.502772 D    
O15   C7    1.310655 A    
O19   Zn6   2.056879 S    
C153  C185  1.416921 A    
C25   C158  1.428851 A    
O16   C8    1.333603 A    
S9    O73   1.497487 D    
S34   O150  1.680392 S    
C32   N8    1.416263 S    
S47   O187  1.502485 D    
C114  S46   1.769731 S    
C37   C168  1.433571 A    
N2    O196  1.296795 A    
N13   O217  1.302393 A    
C23   C169  1.484124 S    
C102  S26   1.786770 S    
S32   O142  1.502241 D    
S22   O113  1.502587 D    
C4    C192  1.488122 S    
C105  S39   1.772139 S    
C72   C120  1.400814 A    
C162  C190  1.417021 A    
O177  H43   0.990114 S    
O18   Zn1   2.047221 S    
S18   O101  1.503487 D    
S19   O104  1.500136 D    
O40   C20   1.294221 A    
C72   C133  1.433301 A    
C13   C175  1.466606 S    
S23   O117  1.677535 S    
S30   O137  1.501463 D    
O9    Zn2   2.035362 S    
O20   C10   1.286263 A    
N7    O205  1.300472 A    
C123  C171  1.431586 A    
S36   O154  1.499318 D    
S41   O169  1.501323 D    
C134  C145  1.418815 A    
O38   Zn12  2.045759 S    
C55   N31   1.432676 S    
O39   Zn10  2.035358 S    
N34   O259  1.298060 A    
C139  C179  1.397413 A    
C142  C178  1.427806 A    
S1    O51   1.681490 S    
C26   N2    1.437286 S    
C58   C127  1.422059 A    
O6    Zn4   2.068163 S    
S45   O182  1.502667 D    
S18   O102  1.674515 S    
C64   N40   1.414425 S    
N8    O207  1.300596 A    
S26   O124  1.501250 D    
S27   O129  1.682714 S    
S28   O132  1.683037 S    
O37   C19   1.299574 A    
C139  C148  1.404385 A    
C53   C136  1.450147 A    
N26   O244  1.298480 A    
N12   O216  1.297865 A    
N15   O222  1.299965 A    
O5    Zn1   2.066586 S    
S46   O184  1.501546 D    
N44   O280  1.300863 A    
C143  C177  1.413212 A    
C164  C192  1.434027 A    
O168  H40   0.989907 S    
C51   C132  1.437459 A    
O63   H5    0.990664 S    
S33   O146  1.503139 D    
O34   Zn11  2.045794 S    
O17   C9    1.320563 A    
S7    O67   1.500977 D    
S6    O64   1.498928 D    
C119  S41   1.764046 S    
O13   C7    1.290642 A    
O192  H48   0.990981 S    
C30   N6    1.437795 S    
C85   S11   1.799166 S    
N6    O203  1.301948 A    
O28   C14   1.294620 A    
C124  C163  1.395775 A    
C56   N32   1.441450 S    
O29   C15   1.290753 A    
C35   C83   1.415293 A    
S33   O145  1.503603 D    
C125  C160  1.409353 A    
O30   C16   1.300881 A    
C59   N35   1.432423 S    
C129  C166  1.424761 A    
C144  C180  1.430846 A    
C149  C183  1.433801 A    
S24   O119  1.502254 D    
C56   C141  1.406989 A    
S3    O55   1.499802 D    
S35   O152  1.498990 D    
S21   O109  1.502462 D    
O19   C9    1.296320 A    
N16   O223  1.299967 A    
C71   N47   1.435896 S    
O48   Zn7   2.066112 S    
S9    O75   1.680689 S    
S25   O122  1.503485 D    
N9    O209  1.299713 A    
N36   O264  1.298792 A    
O24   Zn1   2.066112 S    
C54   C102  1.401554 A    
S7    O68   1.503338 D    
O153  H35   0.990657 S    
O35   C17   1.292412 A    
C131  C175  1.392964 A    
O120  H24   0.990541 S    
O16   Zn5   2.044757 S    
S41   O170  1.498753 D    
C51   C99   1.414777 A    
O117  H23   0.989461 S    
N42   O275  1.297611 A    
C77   C112  1.396673 A    
N28   O248  1.301159 A    
C137  C150  1.384816 A    
C70   C118  1.405009 A    
C67   N43   1.435670 S    
C62   C121  1.429996 A    
C49   N25   1.433120 S    
O108  H20   0.990548 S    
C57   C105  1.417418 A    
S37   O158  1.499283 D    
S6    O66   1.682761 S    
S43   O177  1.684816 S    
N24   O240  1.300304 A    
S23   O115  1.499076 D    
C112  S36   1.788139 S    
C38   N14   1.435969 S    
C84   S16   1.771138 S    
S36   O156  1.673733 S    
C43   C91   1.410881 A    
N33   O258  1.297955 A    
O15   Zn4   2.035358 S    
C127  C154  1.415794 A    
N27   O245  1.299590 A    
N1    O193  1.300099 A    
N21   O234  1.293859 A    
O34   C18   1.292553 A    
S10   O77   1.499319 D    
C83   C116  1.402231 A    
S16   O96   1.681982 S    
O183  H45   0.990558 S    
C132  C176  1.441285 A    
S11   O81   1.679273 S    
S17   O98   1.502211 D    
C67   C115  1.411429 A    
C143  C146  1.413573 A    
C68   C116  1.413768 A    
C68   N44   1.438518 S    
C74   S6    1.787083 S    
C27   C75   1.399301 A    
C10   C186  1.499930 S    
S31   O141  1.681211 S    
O135  H29   0.990701 S    
C28   C76   1.411425 A    
N23   O238  1.300778 A    
N31   O254  1.302001 A    
S16   O94   1.501602 D    
C36   C147  1.429094 A    
C136  C176  1.446702 A    
N25   O241  1.302131 A    
C46   N22   1.435358 S    
C19   C177  1.497690 S    
C59   C140  1.428600 A    
O4    C2    1.328925 A    
C50   C143  1.412468 A    
S10   O78   1.679726 S    
N18   O228  1.299629 A    
C80   S4    1.789455 S    
O180  H44   0.990705 S    
C140  C180  1.428366 A    
C53   N29   1.432460 S    
O7    C3    1.295281 A    
O17   Zn5   2.058125 S    
C90   C111  1.393260 A    
C106  S38   1.768092 S    
S44   O180  1.680376 S    
C93   S19   1.788119 S    
N11   O213  1.298222 A    
C78   C113  1.414072 A    
S48   O191  1.500884 D    
C80   C117  1.414603 A    
O29   Zn7   2.066586 S    
C94   S18   1.774632 S    
O25   C13   1.315309 A    
O47   Zn12  2.058155 S    
C84   C99   1.401989 A    
C113  S47   1.792956 S    
C1    C187  1.481207 S    
C69   N45   1.441093 S    
C42   C90   1.410840 A    
C31   C79   1.405038 A    
C136  C149  1.401224 A    
C109  S35   1.786923 S    
S47   O188  1.495095 D    
N14   O220  1.300736 A    
S33   O147  1.678852 S    
C29   C77   1.416781 A    
O9    C5    1.294016 A    
S26   O125  1.499789 D    
C116  S48   1.782978 S    
S21   O111  1.679515 S    
C33   C81   1.399203 A    
N22   O235  1.299492 A    
N45   O281  1.296524 A    
C42   N18   1.436557 S    
C123  C156  1.400144 A    
C120  S44   1.790173 S    
N4    O199  1.298720 A    
C3    C185  1.475054 S    
C63   N39   1.427255 S    
O78   H10   0.990748 S    
C148  C184  1.408256 A    
C44   C155  1.436952 A    
S20   O107  1.500807 D    
C135  C162  1.405585 A    
N47   O285  1.299025 A    
N39   O270  1.299285 A    
S29   O135  1.682397 S    
C37   N13   1.396534 S    
C14   C178  1.474635 S    
O1    Zn1   2.067602 S    
C68   C131  1.416176 A    
S26   O126  1.683206 S    
O129  H27   0.990605 S    
C48   N24   1.426131 S    
C81   C118  1.379914 A    
C9    C183  1.478311 S    
C73   S7    1.790298 S    
S8    O70   1.501369 D    
C29   C160  1.410540 A    
N20   O232  1.302797 A    
N11   O214  1.293392 A    
C138  C178  1.414816 A    
S13   O85   1.497354 D    
S1    O49   1.503740 D    
C69   C117  1.418381 A    
C85   C120  1.388562 A    
N38   O267  1.301422 A    
O18   C10   1.322467 A    
S2    O52   1.501177 D    
C104  S28   1.783694 S    
O23   Zn6   2.058155 S    
C132  C147  1.408387 A    
C103  S25   1.790400 S    
S39   O163  1.500033 D    
S4    O58   1.503184 D    
S28   O131  1.501852 D    
N40   O271  1.300182 A    
C81   S15   1.768758 S    
C69   C128  1.414242 A    
O144  H32   0.990472 S    
O141  H31   0.990594 S    
C135  C173  1.429954 A    
C62   C110  1.416617 A    
C128  C172  1.411692 A    
C70   N46   1.425703 S    
C131  C164  1.386770 A    
S38   O162  1.684836 S    
O12   C6    1.291734 A    
C25   C73   1.417675 A    
O13   Zn2   2.054362 S    
C95   S17   1.764883 S    
S3    O57   1.674103 S    
O14   C8    1.288634 A    
S19   O103  1.502305 D    
N7    O206  1.300702 A    
O165  H39   0.990656 S    
C99   S29   1.785493 S    
C151  C181  1.425156 A    
C35   N11   1.411881 S    
S31   O139  1.500654 D    
O96   H16   0.990498 S    
N48   O288  1.290466 A    
C65   C113  1.425966 A    
O3    C1    1.302617 A    
O33   C17   1.327286 A    
O132  H28   0.990470 S    
C88   S12   1.799377 S    
O102  H18   0.990322 S    
S29   O134  1.502943 D    
N5    O201  1.291882 A    
N15   O221  1.298970 A    
S42   O173  1.498201 D    
C88   C101  1.411699 A    
C158  C186  1.428930 A    
C79   S1    1.766346 S    
O36   Zn12  2.044726 S    
C31   C154  1.417524 A    
C64   C125  1.421055 A    
C36   C84   1.398654 A    
C61   C109  1.411188 A    
N3    O197  1.301654 A    
O41   Zn11  2.058125 S    
C96   C109  1.398510 A    
C22   C174  1.483792 S    
N2    O195  1.301707 A    
S39   O165  1.674928 S    
O27   C13   1.274970 A    
S5    O62   1.500794 D    
C55   C130  1.441785 A    
C33   C166  1.420064 A    
C121  C169  1.426631 A    
N10   O211  1.301162 A    
C47   C146  1.413596 A    
S42   O174  1.682531 S    
C48   C96   1.414489 A    
C58   N34   1.446029 S    
N43   O277  1.300042 A    
C159  C185  1.418670 A    
C38   C145  1.423894 A    
C130  C174  1.438650 A    
N37   O266  1.301509 A    
C46   C94   1.411544 A    
C52   C139  1.403348 A    
C57   N33   1.431253 S    
C108  S40   1.792327 S    
C70   C129  1.447108 A    
C76   C115  1.409038 A    
C72   N48   1.402476 S    
C34   C151  1.429163 A    
O43   Zn12  2.056879 S    
S23   O116  1.495220 D    
S30   O138  1.676004 S    
C146  C182  1.416281 A    
C31   N7    1.446124 S    
O22   Zn3   2.047221 S    
O8    Zn2   2.066889 S    
O10   Zn5   2.045794 S    
S36   O155  1.502491 D    
O81   H11   0.990909 S    
N25   O242  1.299298 A    
C125  C171  1.423677 A    
N27   O246  1.302379 A    
N32   O255  1.300979 A    
C93   C104  1.415990 A    
C28   N4    1.435251 S    
O27   Zn9   2.066576 S    
C43   C148  1.412132 A    
C124  C172  1.413602 A    
S16   O95   1.502089 D    
C27   N3    1.448128 S    
S35   O151  1.502613 D    
S1    O50   1.498006 D    
C71   C119  1.418441 A    
O69   H7    0.990550 S    
S28   O130  1.503167 D    
S13   O87   1.678614 S    
O7    Zn3   2.067608 S    
C87   S9    1.780309 S    
O84   H12   0.987702 S    
O66   H6    0.990487 S    
C58   C106  1.398930 A    
O12   Zn6   2.044726 S    
C65   C126  1.446425 A    
C111  S33   1.780773 S    
C97   S31   1.781589 S    
C79   C106  1.388973 A    
N8    O208  1.297364 A    
C110  S34   1.785010 S    
S14   O88   1.502069 D    
C147  C183  1.425439 A    
C15   C173  1.477408 S    
O46   Zn9   2.047221 S    
N23   O237  1.298738 A    
C98   S30   1.774055 S    
S32   O144  1.678895 S    
O24   C12   1.292371 A    
O51   H1    0.990567 S    
S5    O61   1.502579 D    
C165  C191  1.431687 A    
C28   C163  1.420032 A    
C49   C134  1.429710 A    
C154  C186  1.420970 A    
S44   O178  1.502673 D    
S46   O185  1.497150 D    
C83   S13   1.772161 S    
C42   C159  1.413537 A    
N30   O252  1.301703 A    
S44   O179  1.496944 D    
N29   O249  1.298272 A    
N19   O230  1.300609 A    
S6    O65   1.502130 D    
S2    O54   1.680994 S    
N18   O227  1.300097 A    
C36   N12   1.431281 S    
C76   S8    1.770523 S    
C77   S3    1.764141 S    
C34   N10   1.437803 S    
C129  C173  1.444263 A    
O123  H25   0.990634 S    
N6    O204  1.300164 A    
S34   O148  1.500710 D    
C46   C153  1.418746 A    
N35   O262  1.300837 A    
O25   Zn7   2.067602 S    
C39   N15   1.436727 S    
C56   C104  1.399463 A    
C61   C144  1.431345 A    
C161  C189  1.427621 A    
O2    Zn2   2.068166 S    
N20   O231  1.293533 A    
C41   C150  1.424406 A    
O39   C19   1.319580 A    
O114  H22   0.990307 S    
C18   C170  1.475768 S    
N16   O224  1.301795 A    
C35   C164  1.424111 A    
O31   Zn9   2.067608 S    
C144  C157  1.403908 A    
C11   C181  1.497982 S    
S15   O93   1.678262 S    
C91   C100  1.398363 A    
O26   C14   1.311680 A    
N31   O253  1.298653 A    
S9    O74   1.499757 D    
S25   O121  1.502309 D    
O162  H38   0.990622 S    
C54   N30   1.441662 S    
C40   C88   1.412451 A    
C41   C89   1.434547 A    
O111  H21   0.990627 S    
N13   O218  1.293948 A    
C100  S32   1.752761 S    
S15   O91   1.499342 D    
O14   Zn6   2.045759 S    
S22   O112  1.498411 D    
O10   C6    1.327638 A    
C60   C123  1.440884 A    
S38   O161  1.500036 D    
C12   C188  1.500127 S    
O4    Zn4   2.066895 S    
S40   O167  1.496598 D    
O57   H3    0.989919 S    
C117  S43   1.785423 S    
N17   O226  1.297503 A    
C168  C192  1.455521 A    
O43   C21   1.335034 A    
S18   O100  1.502963 D    
S19   O105  1.677692 S    
O21   Zn5   2.056844 S    
C121  C158  1.404922 A    
S43   O176  1.497356 D    
S30   O136  1.501480 D    
C17   C179  1.495106 S    
N48   O287  1.302858 A    
O1    C1    1.300474 A    
C118  S42   1.780770 S    
C32   C80   1.416240 A    
