data_mof_unit_54944.cif
_audit_creation_date              2012-12-11T16:53:48-0500
_audit_creation_method            fapswitch 2.2
_symmetry_space_group_name_H-M    P1
_symmetry_Int_Tables_number       1
_space_group_crystal_system       triclinic
_cell_length_a                    14.826503
_cell_length_b                    14.76182
_cell_length_c                    16.953254
_cell_angle_alpha                 108.963912
_cell_angle_beta                  106.333442
_cell_angle_gamma                 107.968196
_cell_volume                      3022.97674812

loop_
_atom_site_label
_atom_site_type_symbol
_atom_type_description
_atom_site_fract_x
_atom_site_fract_y
_atom_site_fract_z
_atom_type_partial_charge
C1    C     C_R   0.087313 0.284943 0.075807 -0.084385
C2    C     C_R   0.063231 0.549396 0.264745 -0.059418
C3    C     C_R   0.278774 0.786012 0.176717 -0.125899
C4    C     C_R   0.935239 0.519495 0.746631 -0.123893
C5    C     C_R   0.698039 0.405215 0.996131 -0.114540
C6    C     C_R   0.335083 0.783280 0.255653 0.071165
C7    C     C_R   0.636505 0.435333 0.942205 0.008230
C8    C     C_R   0.970041 0.535372 0.274224 0.156989
C9    C     C_R   0.996470 0.824478 0.989660 0.038547
C10   C     C_R   0.377370 0.437853 0.862799 0.047835
C11   C     C_R   0.339522 0.401782 0.918842 -0.024477
C12   C     C_R   0.026502 0.579765 0.744741 0.050370
C13   C     C_R   0.380992 0.343057 0.955009 -0.174698
C14   C     C_R   0.472241 0.340025 0.951010 -0.165012
C15   C     C_R   0.522402 0.394750 0.909940 0.074193
C16   C     C_R   0.776084 0.201023 0.812482 -0.138389
C17   C     C_R   0.467948 0.432478 0.856838 -0.094637
C18   C     C_3   0.415173 0.382532 0.753119 -0.395883
C19   C     C_3   0.318650 0.390057 0.760808 0.575402
C20   C     C_R   0.961261 0.581767 0.361493 -0.164112
C21   C     C_R   0.034793 0.620482 0.677527 0.083345
C22   C     C_R   0.139544 0.687056 0.604258 -0.107920
C23   C     C_R   0.759266 0.195157 0.725645 0.030340
C24   C     C_R   0.133067 0.670528 0.678887 -0.134624
C25   C     C_R   0.943851 0.599419 0.605731 -0.130357
C26   C     C_R   0.949331 0.610543 0.528496 -0.151026
C27   C     C_R   0.047816 0.650154 0.526497 0.118342
C28   C     C_R   0.253654 0.526772 0.944328 -0.126152
C29   C     C_R   0.052961 0.640056 0.443848 -0.323699
C30   C     C_R   0.863505 0.557165 0.365951 0.596445
C31   C     C_R   0.857869 0.572449 0.449659 0.600922
C32   C     C_R   0.718081 0.098853 0.639072 0.128802
C33   C     C_R   0.443717 0.857137 0.322520 0.121039
C34   C     C_R   0.280081 0.449039 0.958362 0.087564
C35   C     C_R   0.588779 0.032814 0.394875 -0.189958
C36   C     C_R   0.496361 0.952636 0.320115 -0.163584
C37   C     C_R   0.491485 0.837744 0.395326 -0.251110
C38   C     C_R   0.580072 0.919685 0.472541 0.178364
C39   C     C_R   0.626388 0.019403 0.473685 0.176923
C40   C     C_R   0.781940 0.297645 0.734966 -0.032385
C41   C     C_R   0.699667 0.107406 0.556559 -0.246784
C42   C     C_R   0.682231 0.997393 0.636115 -0.162246
C43   C     C_R   0.614733 0.907518 0.552499 -0.196572
C44   C     C_R   0.081718 0.127674 0.157745 -0.098429
C45   C     C_R   0.273490 0.689527 0.253284 -0.143337
C46   C     C_R   0.996039 0.110769 0.083081 0.118278
C47   C     C_R   0.902540 0.016887 0.046752 -0.184186
C48   C     C_R   0.892037 0.952490 0.092567 -0.183636
C49   C     C_R   0.974857 0.979606 0.174272 0.120301
C50   C     C_R   0.071311 0.062599 0.201471 0.037439
C51   C     C_3   0.144339 0.152571 0.294489 -0.554778
C52   C     C_R   0.248659 0.432592 0.023996 -0.113821
C53   C     C_3   0.155497 0.224667 0.247533 0.677442
C54   C     C_R   0.108230 0.603747 0.823896 -0.093947
C55   C     C_R   0.914826 0.200960 0.998896 -0.136093
C56   C     C_R   0.702597 0.499298 0.917682 -0.022431
C57   C     C_R   0.000483 0.190941 0.047612 0.066017
C58   C     C_2   0.670364 0.527276 0.842155 0.465599
C59   C     C_2   0.399684 0.269456 0.706278 0.560392
C60   C     C_R   0.888967 0.463555 0.187379 -0.090491
C61   C     C_R   0.083482 0.807769 0.023592 -0.128412
C62   C     C_R   0.911044 0.724561 0.946717 -0.087498
F1    F     F_    0.298064 0.463758 0.734617 -0.682492
F2    F     F_    0.772891 0.513867 0.289902 -0.681268
F3    F     F_    0.762522 0.540363 0.451545 -0.654852
F4    F     F_    0.112823 0.295000 0.271611 -0.676459
H1    H     H_    0.164906 0.311958 0.127010 0.097599
H2    H     H_    0.450943 0.434305 0.724510 0.219451
H3    H     H_    0.856119 0.499405 0.703074 0.138155
H4    H     H_    0.248207 0.312786 0.730797 0.003824
H5    H     H_    0.129346 0.667018 0.443638 0.161653
H6    H     H_    0.215740 0.719304 0.603999 0.120446
H7    H     H_    0.204988 0.690425 0.734182 0.127890
H8    H     H_    0.867911 0.564941 0.605373 0.172509
H9    H     H_    0.731546 0.184049 0.556859 0.123692
H10   H     H_    0.766164 0.136621 0.831172 0.098581
H11   H     H_    0.699207 0.987561 0.698290 0.119485
H12   H     H_    0.806004 0.432734 0.167729 0.180729
H13   H     H_    0.624671 0.108607 0.394459 0.143227
H14   H     H_    0.581475 0.830757 0.552059 0.141878
H15   H     H_    0.463351 0.968838 0.263728 0.120456
H16   H     H_    0.454758 0.763444 0.397335 0.124626
H17   H     H_    0.835397 0.996375 0.986355 0.118550
H18   H     H_    0.817836 0.884846 0.067345 0.126444
H19   H     H_    0.105081 0.168002 0.341054 0.235126
H20   H     H_    0.217459 0.145480 0.323989 0.170261
H21   H     H_    0.267141 0.559195 0.897829 0.148169
H22   H     H_    0.235578 0.262543 0.252353 -0.002324
H23   H     H_    0.164288 0.866516 0.056180 0.100697
H24   H     H_    0.777219 0.324088 0.682388 0.104294
H25   H     H_    0.257192 0.378492 0.052231 0.092200
H26   H     H_    0.188341 0.662555 0.852218 0.090142
H27   H     H_    0.833992 0.152186 0.981085 0.095448
H28   H     H_    0.296905 0.652634 0.295685 0.103570
H29   H     H_    0.616785 0.563255 0.837948 0.021108
H30   H     H_    0.363088 0.210438 0.726570 -0.004735
H31   H     H_    0.831693 0.708070 0.908155 0.117282
H32   H     H_    0.142161 0.599249 0.317051 0.095492
H33   H     H_    0.307936 0.839191 0.149055 0.086836
H34   H     H_    0.671124 0.342544 0.015462 0.099643
H35   H     H_    0.350692 0.309357 0.995176 0.129660
H36   H     H_    0.508031 0.304601 0.988900 0.131981
N1    N     N_R   0.055640 0.348550 0.045600 -0.045573
N2    N     N_R   0.811290 0.303400 0.871650 -0.048351
N3    N     N_R   0.205180 0.552990 0.997660 -0.050835
N4    N     N_R   0.814810 0.361830 0.823710 -0.030050
N5    N     N_R   0.201660 0.494570 0.045600 -0.044399
N6    N     N_R   0.068420 0.560530 0.871650 -0.050955
N7    N     N_R   0.948050 0.295860 0.997660 -0.044526
N8    N     N_R   0.185190 0.638170 0.176290 -0.045410
N9    N     N_R   0.798340 0.505430 0.954400 -0.049760
N10   N     N_R   0.931580 0.439470 0.128350 -0.059929
N11   N     N_R   0.051950 0.704140 0.002340 -0.048528
N12   N     N_R   0.944360 0.651450 0.954400 -0.037072
N13   N     N_R   0.039170 0.492150 0.176290 -0.041931
N14   N     N_R   0.188710 0.696600 0.128350 -0.042551
N15   N     N_R   0.794820 0.447010 0.002340 -0.058854
N16   N     N_R   0.960830 0.507850 0.823710 -0.039966
Ni1   Ni    Ni4+2 0.119330 0.493420 0.109950 0.237724
Ni2   Ni    Ni4+2 0.880670 0.506580 0.890050 0.281560
Ni3   Ni    Ni4+2 0.872590 0.372590 0.000000 0.216231
Ni4   Ni    Ni4+2 0.127410 0.627410 0.000000 0.206160
O1    O     O_2   0.705464 0.512229 0.784565 -0.585161
O2    O     O_2   0.428600 0.243559 0.645390 -0.548268

loop_
_geom_bond_atom_site_label_1
_geom_bond_atom_site_label_2
_ccdc_geom_bond_type
C6    C45   A    
C30   F2    S    
C27   C29   A    
C35   C36   A    
C55   H27   S    
C3    C6    A    
C51   H19   S    
N2    N4    A    
C39   C41   A    
C20   C30   A    
N3    N5    A    
C60   H12   S    
C58   O1    D    
C8    C20   S    
N14   Ni4   S    
C9    C61   A    
C61   H23   S    
C62   N12   A    
C3    N14   A    
C30   C31   A    
C24   H7    S    
C14   H36   S    
C10   C17   A    
C18   H2    S    
C23   C40   A    
C1    N1    A    
C33   C36   A    
C15   C17   A    
C25   H8    S    
N5    Ni1   S    
N15   Ni3   S    
C44   C53   S    
C16   N2    A    
N11   Ni4   S    
C52   N5    A    
C19   F1    S    
C32   C41   A    
C47   H17   S    
C4    C12   A    
C10   C19   S    
C56   N9    A    
C7    C15   S    
N1    N7    A    
C28   C34   A    
C26   C31   A    
C12   C54   A    
C13   C14   A    
C55   N7    A    
C4    N16   A    
C7    C56   A    
C45   H28   S    
C51   H20   S    
C22   H6    S    
C4    H3    S    
C44   C46   A    
C50   C51   S    
C20   C29   A    
N1    Ni1   S    
C9    C62   A    
N6    N16   A    
C5    C7    A    
C45   N8    A    
C18   C19   S    
N2    Ni3   S    
C36   H15   S    
C43   H14   S    
C12   C21   S    
C33   C37   A    
C48   H18   S    
C5    N15   A    
N9    Ni2   S    
C51   C53   S    
C35   C39   A    
C58   H29   S    
C54   H26   S    
C37   C38   A    
C60   N10   A    
C1    C57   A    
C41   H9    S    
C62   H31   S    
C2    N13   A    
C47   C48   A    
C5    H34   S    
C28   N3    A    
C28   H21   S    
C17   C18   S    
C26   C27   A    
C53   F4    S    
C48   C49   A    
C16   C23   A    
N13   Ni1   S    
C22   C27   A    
C55   C57   A    
C46   C57   S    
C61   N11   A    
C22   C24   A    
C37   H16   S    
C42   C43   A    
C13   H35   S    
N8    N14   A    
C40   N4    A    
N11   N12   A    
C44   C50   A    
C59   O2    D    
C31   F3    S    
C21   C25   A    
C46   C47   A    
N4    Ni2   S    
C16   H10   S    
C11   C34   S    
C2    C8    A    
N6    Ni4   S    
C52   H25   S    
N8    Ni1   S    
C34   C52   A    
C6    C33   S    
C54   N6    A    
N9    N15   A    
C23   C32   S    
C25   C26   A    
C38   C43   A    
C8    C60   A    
C11   C13   A    
N7    Ni3   S    
C38   C39   A    
C35   H13   S    
C1    H1    S    
C56   C58   S    
N3    Ni4   S    
C53   H22   S    
N16   Ni2   S    
C10   C11   A    
C3    H33   S    
C18   C59   S    
N10   Ni3   S    
C2    H32   S    
C42   H11   S    
C49   C50   A    
C59   H30   S    
C21   C24   A    
C32   C42   A    
C14   C15   A    
C19   H4    S    
C40   H24   S    
N10   N13   A    
N12   Ni2   S    
C29   H5    S    
