data_mof_unit_13117.cif
_audit_creation_date              2013-03-05T16:01:46-0500
_audit_creation_method            fapswitch 2.2
_symmetry_space_group_name_H-M    P1
_symmetry_Int_Tables_number       1
_space_group_crystal_system       triclinic
_cell_length_a                    14.756851
_cell_length_b                    14.666124
_cell_length_c                    27.783555
_cell_angle_alpha                 76.94545
_cell_angle_beta                  102.161741
_cell_angle_gamma                 115.303396
_cell_volume                      5251.01663685

loop_
_atom_site_label
_atom_site_type_symbol
_atom_site_description
_atom_site_fract_x
_atom_site_fract_y
_atom_site_fract_z
_atom_type_partial_charge
O1    O     O_R   0.977900 0.338120 0.517190 -0.614100
O2    O     O_R   0.022100 0.661880 0.482810 -0.597060
O3    O     O_R   0.839850 0.379180 0.495160 -0.498817
O4    O     O_R   0.160150 0.620820 0.504840 -0.523923
C1    C     C_R   0.880088 0.311898 0.508124 0.845365
C2    C     C_R   0.119884 0.688027 0.490890 0.883180
O5    O     O_R   0.069030 0.479490 0.580750 -0.604824
O6    O     O_R   0.930970 0.520510 0.419250 -0.552448
O7    O     O_R   0.930970 0.520550 0.558720 -0.519186
O8    O     O_R   0.069030 0.479450 0.441280 -0.546238
C3    C     C_R   0.000332 0.501573 0.592074 0.893264
C4    C     C_R   0.999729 0.499268 0.407370 0.822372
Cu1   Cu    Cu3+1 0.081740 0.475690 0.513040 0.992201
Cu2   Cu    Cu3+1 0.918260 0.524310 0.486960 1.046512
C5    C     C_R   0.925156 0.418638 0.822909 0.640579
C6    C     C_R   0.068989 0.577076 0.174802 0.645144
O9    O     O_2   0.845757 0.352291 0.797055 -0.531886
O10   O     O_2   0.141079 0.652296 0.198748 -0.530536
N1    N     N_R   0.005175 0.489124 0.799411 -0.445407
N2    N     N_R   0.997827 0.496970 0.200398 -0.438589
C7    C     C_R   0.087649 0.555951 0.824801 0.638494
C8    C     C_R   0.919848 0.423218 0.176441 0.636961
C9    C     C_R   0.996519 0.575616 0.713484 -0.218574
C10   C     C_R   0.921256 0.508263 0.267064 -0.224846
C11   C     C_R   0.997692 0.583204 0.662413 0.303037
C12   C     C_R   0.917462 0.506594 0.316982 0.336012
C13   C     C_R   0.007561 0.416987 0.678812 -0.334808
C14   C     C_R   0.078480 0.489780 0.338318 -0.356321
C15   C     C_R   0.011418 0.411898 0.730053 0.405254
C16   C     C_R   0.078057 0.482905 0.288624 0.392247
C17   C     C_R   0.004045 0.491624 0.747306 0.158947
C18   C     C_R   0.999295 0.495050 0.252528 0.170546
C19   C     C_R   0.005713 0.488120 0.899748 -0.129358
C20   C     C_R   0.989822 0.504206 0.098759 -0.126610
C21   C     C_R   0.925258 0.415204 0.873781 -0.035655
C22   C     C_R   0.067235 0.581215 0.123717 -0.059934
C23   C     C_R   0.850916 0.335663 0.899783 -0.280503
C24   C     C_R   0.136465 0.664200 0.096355 -0.218712
C25   C     C_R   0.090823 0.555017 0.876038 -0.173514
C26   C     C_R   0.910848 0.428902 0.124437 -0.200647
C27   C     C_R   0.000456 0.501183 0.644895 -0.195027
C28   C     C_R   0.997787 0.497927 0.353703 -0.217754
H1    H     H_    0.012149 0.355610 0.665178 0.194209
H2    H     H_    0.142047 0.488288 0.365189 0.242203
H3    H     H_    0.797497 0.273092 0.880763 0.188382
H4    H     H_    0.189390 0.730056 0.113436 0.205821
C29   C     C_R   0.909949 0.428768 0.022506 -0.098035
C30   C     C_R   0.083031 0.567175 0.975191 -0.072536
C31   C     C_R   0.071962 0.578620 0.022931 0.025966
C32   C     C_R   0.918612 0.418096 0.974150 0.027483
C33   C     C_R   0.991102 0.503089 0.048019 -0.066909
C34   C     C_R   0.002116 0.491697 0.949713 -0.062296
C35   C     C_R   0.819561 0.373883 0.045302 0.477179
C36   C     C_R   0.175887 0.621406 0.954299 0.403992
C37   C     C_R   0.822630 0.367133 0.096764 0.423564
C38   C     C_R   0.179276 0.612794 0.904904 0.379849
O11   O     O_2   0.851832 0.344687 0.203050 -0.473179
O12   O     O_2   0.165806 0.623264 0.800331 -0.465221
C39   C     C_R   0.850690 0.331972 0.950865 0.512384
C40   C     C_R   0.133978 0.666958 0.045633 0.542138
H5    H     H_    0.860966 0.517124 0.239073 0.184475
H6    H     H_    0.993335 0.637074 0.727632 0.204090
C41   C     C_R   0.811876 0.202843 0.515444 -0.197539
C42   C     C_R   0.188039 0.796890 0.487822 -0.186728
C43   C     C_R   0.782053 0.026322 0.552569 0.531022
C44   C     C_R   0.216952 0.974594 0.485235 0.531584
C45   C     C_R   0.847425 0.130129 0.543715 -0.377650
C46   C     C_R   0.150830 0.871368 0.484583 -0.321045
C47   C     C_R   0.709063 0.172205 0.496851 0.430097
C48   C     C_R   0.291844 0.826232 0.488691 0.437236
C49   C     C_R   0.639674 0.073746 0.514162 -0.107516
C50   C     C_R   0.360356 0.923982 0.499160 -0.101600
C51   C     C_R   0.676644 0.997093 0.537185 -0.115640
C52   C     C_R   0.323091 0.001194 0.493994 -0.122251
C53   C     C_R   0.534403 0.049950 0.508049 0.022075
C54   C     C_R   0.465493 0.947358 0.512304 0.035951
C55   C     C_R   0.502953 0.871056 0.532528 -0.196769
C56   C     C_R   0.497034 0.125979 0.502371 -0.199220
C57   C     C_R   0.606312 0.894280 0.545056 0.356783
C58   C     C_R   0.393798 0.102732 0.497106 0.372387
H7    H     H_    0.069940 0.849378 0.479521 0.187582
H8    H     H_    0.926126 0.154346 0.559540 0.187412
H9    H     H_    0.452288 0.792139 0.541239 0.221268
H10   H     H_    0.547805 0.203812 0.506482 0.215890
N3    N     N_R   0.795430 0.560780 0.467350 -0.219284
N4    N     N_R   0.204570 0.439220 0.532650 -0.219652
C59   C     C_R   0.698013 0.634678 0.404886 -0.210625
C60   C     C_R   0.305636 0.374053 0.598075 -0.226232
C61   C     C_R   0.784929 0.615853 0.421858 0.039840
C62   C     C_R   0.220190 0.395587 0.580653 -0.030499
C63   C     C_R   0.721836 0.524481 0.498103 0.647548
C64   C     C_R   0.272466 0.460788 0.500474 0.655437
C65   C     C_R   0.625414 0.529398 0.480028 -0.128098
C66   C     C_R   0.369338 0.458506 0.518887 -0.124228
C67   C     C_R   0.617537 0.591802 0.433589 0.015103
C68   C     C_R   0.380979 0.405174 0.567302 0.031193
C69   C     C_R   0.539656 0.480248 0.507360 0.038046
C70   C     C_R   0.452131 0.502333 0.490074 0.059857
C71   C     C_R   0.451958 0.572183 0.446114 -0.196538
C72   C     C_R   0.537300 0.408467 0.551051 -0.211366
C73   C     C_R   0.531071 0.613390 0.416876 0.482336
C74   C     C_R   0.464840 0.379217 0.583200 0.531195
H11   H     H_    0.164526 0.373664 0.605448 0.167474
H12   H     H_    0.845004 0.646588 0.398769 0.179236
H13   H     H_    0.693503 0.681269 0.368903 0.212469
H14   H     H_    0.313046 0.334672 0.635736 0.204091
H15   H     H_    0.392124 0.598967 0.434814 0.184273
H16   H     H_    0.590431 0.372838 0.561154 0.204078
O13   O     O_3   0.325088 0.762688 0.474088 -0.582568
C75   C     C_3   0.328534 0.789365 0.422202 -0.259176
H17   H     H_    0.381188 0.870141 0.412174 0.166402
H18   H     H_    0.251768 0.775552 0.401386 0.150534
H19   H     H_    0.357235 0.740958 0.410063 0.193102
O14   O     O_3   0.677234 0.238172 0.460600 -0.570141
C76   C     C_3   0.662162 0.207588 0.413903 -0.176188
H20   H     H_    0.606992 0.127088 0.413177 0.136452
H21   H     H_    0.735195 0.218528 0.403301 0.158977
H22   H     H_    0.630008 0.255858 0.385420 0.233116
O15   O     O_3   0.817794 0.956200 0.582777 -0.520672
C77   C     C_3   0.898902 0.955723 0.563620 -0.171094
H23   H     H_    0.970989 0.018068 0.575434 0.134440
H24   H     H_    0.885439 0.960445 0.522298 0.127974
H25   H     H_    0.906885 0.882614 0.579367 0.241025
O16   O     O_3   0.180089 0.050907 0.472378 -0.536277
C78   C     C_3   0.100535 0.029661 0.499413 -0.235818
H26   H     H_    0.113398 0.994633 0.538867 0.179039
H27   H     H_    0.027359 0.980597 0.480330 0.140023
H28   H     H_    0.095410 0.102644 0.500132 0.181496
O17   O     O_3   0.530567 0.685741 0.375013 -0.608262
C79   C     C_3   0.449753 0.641239 0.338776 -0.193866
H29   H     H_    0.376773 0.631628 0.348705 0.181100
H30   H     H_    0.446431 0.567185 0.332792 0.204004
H31   H     H_    0.461584 0.693604 0.302826 0.204108
O18   O     O_3   0.469048 0.314615 0.627738 -0.563665
C80   C     C_3   0.555255 0.365725 0.660010 -0.280481
H32   H     H_    0.559820 0.441859 0.663480 0.165566
H33   H     H_    0.625603 0.373593 0.647775 0.175591
H34   H     H_    0.549810 0.319410 0.697669 0.213760
O19   O     O_3   0.238978 0.461463 0.450298 -0.611437
C81   C     C_3   0.195794 0.358949 0.441481 -0.242826
H35   H     H_    0.186912 0.357665 0.401015 0.213596
H36   H     H_    0.119799 0.317809 0.454157 0.168598
H37   H     H_    0.244244 0.316515 0.459587 0.221013
O20   O     O_3   0.745901 0.490637 0.547520 -0.609448
C82   C     C_3   0.767416 0.569104 0.575159 -0.237916
H38   H     H_    0.699927 0.585137 0.574287 0.181434
H39   H     H_    0.830192 0.640661 0.561567 0.216188
H40   H     H_    0.790963 0.543788 0.614663 0.191274
N5    N     N_R   0.024693 0.326954 0.763860 0.147652
O21   O     O_R   0.996303 0.239950 0.748661 -0.328974
O22   O     O_R   0.074163 0.338556 0.808267 -0.357600
N6    N     N_R   0.155754 0.461047 0.275823 0.146710
O23   O     O_R   0.237908 0.470847 0.306606 -0.397318
O24   O     O_R   0.139598 0.418331 0.236829 -0.320581
N7    N     N_R   0.830439 0.512234 0.329091 0.128036
O25   O     O_R   0.799892 0.582582 0.304037 -0.375470
O26   O     O_R   0.769320 0.434691 0.356042 -0.356746
N8    N     N_R   0.001752 0.676228 0.629957 0.108802
O27   O     O_R   0.966208 0.734266 0.641949 -0.381215
O28   O     O_R   0.053357 0.710817 0.592387 -0.390236
O29   O     O_3   0.737959 0.300303 0.119274 -0.501877
C83   C     C_3   0.678853 0.353317 0.121540 -0.168464
H41   H     H_    0.724199 0.426175 0.136729 0.123069
H42   H     H_    0.621432 0.304480 0.146850 0.201649
H43   H     H_    0.637606 0.368021 0.084372 0.156460
O30   O     O_3   0.270648 0.656218 0.885953 -0.550426
C84   C     C_3   0.313110 0.582893 0.896030 -0.210681
H44   H     H_    0.264343 0.515503 0.877097 0.187076
H45   H     H_    0.327452 0.558130 0.936809 0.158686
H46   H     H_    0.386928 0.618059 0.881377 0.187853
O31   O     O_3   0.725527 0.331661 0.018014 -0.527446
C85   C     C_3   0.698811 0.410726 0.988488 -0.360140
H47   H     H_    0.710555 0.470937 0.010249 0.137460
H48   H     H_    0.617282 0.377441 0.974033 0.201221
H49   H     H_    0.741174 0.445693 0.955821 0.164627
O32   O     O_3   0.265084 0.662606 0.986063 -0.565040
C86   C     C_3   0.330332 0.761027 0.965499 -0.090907
H50   H     H_    0.290245 0.802986 0.937201 0.158550
H51   H     H_    0.390789 0.755884 0.949745 0.170198
H52   H     H_    0.368776 0.807329 0.996029 0.185167
O33   O     O_3   0.799478 0.240826 0.980869 -0.538575
C87   C     C_3   0.705646 0.179223 0.956700 -0.184541
H53   H     H_    0.716645 0.132079 0.934102 0.147081
H54   H     H_    0.663377 0.224833 0.933667 0.150534
H55   H     H_    0.658234 0.125877 0.985578 0.204935
O34   O     O_3   0.186394 0.759875 0.018456 -0.571814
C88   C     C_3   0.117432 0.802974 0.992525 -0.341393
H56   H     H_    0.075163 0.812550 0.018511 0.172220
H57   H     H_    0.063947 0.756788 0.963874 0.159172
H58   H     H_    0.160535 0.879860 0.972834 0.205236
N9    N     N_R   0.637514 0.810993 0.562283 0.164831
O35   O     O_R   0.597245 0.741194 0.598753 -0.353262
O36   O     O_R   0.686305 0.792205 0.534446 -0.379346
N10   N     N_R   0.363603 0.183838 0.496236 0.146063
O37   O     O_R   0.398756 0.268124 0.465389 -0.381047
O38   O     O_R   0.320394 0.182271 0.532853 -0.356552

loop_
_geom_bond_atom_site_label_1
_geom_bond_atom_site_label_2
_geom_bond_distance
_ccdc_geom_bond_type
C80   H34   1.109202 S    
C44   C46   1.409466 A    
O31   C85   1.413428 S    
C60   C68   1.402108 A    
C53   C54   1.405104 A    
C10   H5    1.083928 S    
C68   C74   1.402836 A    
C13   C15   1.398977 A    
C76   H21   1.112931 S    
C60   C62   1.392171 A    
N10   O38   1.300900 A    
C81   H37   1.113081 S    
C50   C54   1.421685 A    
N1    C17   1.436579 S    
C82   H40   1.108498 S    
C8    O11   1.349181 S    
C74   O18   1.386015 S    
C69   C70   1.424692 A    
N3    C63   1.372653 A    
C80   H32   1.114534 S    
C84   H45   1.113148 S    
C49   C53   1.419881 A    
O33   C87   1.413295 S    
C77   H23   1.110134 S    
C19   C34   1.413842 A    
C30   C36   1.429010 A    
C20   C33   1.417704 A    
C19   C25   1.406141 A    
C31   C40   1.423485 A    
O1    C1    1.307976 A    
C46   H7    1.081352 S    
C42   C46   1.396495 A    
N1    C7    1.367618 A    
C81   H36   1.112532 S    
C63   O20   1.376539 S    
N5    O22   1.301247 A    
C86   H52   1.109324 S    
C56   C58   1.393958 A    
N7    O26   1.300205 A    
C66   C70   1.433559 A    
C2    C42   1.473054 S    
C76   H20   1.113235 S    
C44   C52   1.422885 A    
C43   C51   1.420801 A    
C1    C41   1.475056 S    
C39   O33   1.396921 S    
C36   O32   1.395739 S    
O4    Cu1   1.925602 S    
C47   C49   1.412371 A    
C75   H17   1.113577 S    
C88   H58   1.109140 S    
C4    C28   1.489706 S    
C87   H53   1.110664 S    
C9    H6    1.083151 S    
C41   C47   1.400896 A    
C85   H48   1.109053 S    
C43   C45   1.408649 A    
C59   C67   1.405638 A    
Cu1   N4    2.037008 S    
C78   H28   1.109649 S    
C32   C34   1.424433 A    
C79   H30   1.114556 S    
C42   C48   1.399259 A    
C84   H46   1.109121 S    
C85   H49   1.110088 S    
C6    N2    1.367975 A    
C29   C35   1.426891 A    
C76   H22   1.108324 S    
C55   C57   1.396184 A    
N10   O37   1.300861 A    
C65   C67   1.417802 A    
C57   N9    1.434218 S    
Cu1   Cu2   2.711821 S    
N8    O28   1.300899 A    
C12   N7    1.433379 S    
O2    C2    1.307306 A    
O2    Cu2   1.938730 S    
C5    C21   1.402585 A    
C82   H39   1.113303 S    
C77   H24   1.114489 S    
C82   H38   1.111409 S    
C29   C32   1.424894 A    
C83   H42   1.109152 S    
C35   C37   1.403126 A    
C51   C57   1.416880 A    
C36   C38   1.419322 A    
C47   O14   1.385632 S    
C72   H16   1.076009 S    
C24   H4    1.083575 S    
N9    O35   1.301105 A    
C54   C55   1.409768 A    
C37   O29   1.385093 S    
O4    C2    1.306090 A    
N4    C62   1.361014 A    
C11   C27   1.414346 A    
C84   H44   1.113031 S    
C49   C51   1.422332 A    
N3    C61   1.355437 A    
C29   C33   1.414301 A    
C31   C33   1.417223 A    
C14   H2    1.073731 S    
C87   H55   1.109229 S    
C9    C17   1.400998 A    
C5    N1    1.365900 A    
O7    Cu2   1.953170 S    
N9    O36   1.301132 A    
C41   C45   1.398453 A    
C48   O13   1.385383 S    
C56   H10   1.081296 S    
C63   C65   1.432572 A    
C83   H43   1.109130 S    
C60   H14   1.083129 S    
C13   C27   1.402546 A    
C16   N6    1.442704 S    
C25   C38   1.409056 A    
C59   H13   1.083079 S    
C30   C34   1.421344 A    
O6    C4    1.301288 A    
C26   C37   1.411156 A    
C8    C26   1.409397 A    
C64   C66   1.425271 A    
C43   O15   1.388332 S    
C81   H35   1.107658 S    
O15   C77   1.411797 S    
C66   C68   1.411688 A    
O7    C3    1.308145 A    
C75   H19   1.105678 S    
C23   C39   1.408658 A    
O3    Cu2   1.925602 S    
O8    C4    1.319992 A    
C24   C40   1.393800 A    
C50   C52   1.425123 A    
O32   C86   1.417117 S    
C71   C73   1.400993 A    
C72   C74   1.400859 A    
N2    C8    1.369570 A    
C86   H50   1.115093 S    
C59   C61   1.390224 A    
C61   H12   1.080753 S    
N8    O27   1.301544 A    
C80   H33   1.111357 S    
C44   O16   1.390729 S    
C79   H31   1.109172 S    
O1    Cu1   1.938730 S    
C32   C39   1.425590 A    
C23   H3    1.080734 S    
C65   C69   1.440712 A    
N7    O25   1.301207 A    
C69   C72   1.411463 A    
C58   N10   1.431647 S    
C85   H47   1.114266 S    
C12   C28   1.422226 A    
C83   H41   1.114059 S    
N2    C18   1.438007 S    
C5    O9    1.349892 S    
C30   C31   1.424589 A    
O6    Cu2   1.944803 S    
C14   C28   1.405021 A    
C87   H54   1.114072 S    
C21   C23   1.394834 A    
C7    C25   1.411562 A    
C10   C12   1.394064 A    
Cu2   N3    2.037005 S    
N6    O24   1.301206 A    
O20   C82   1.413851 S    
O3    C1    1.306221 A    
O8    Cu1   1.953167 S    
C48   C50   1.409783 A    
O19   C81   1.417106 S    
C77   H25   1.108718 S    
O14   C76   1.410658 S    
O18   C80   1.411402 S    
C71   H15   1.075389 S    
C14   C16   1.405416 A    
C79   H29   1.110693 S    
O17   C79   1.409764 S    
C7    O12   1.349415 S    
C15   C17   1.411646 A    
N4    C64   1.371794 A    
O13   C75   1.411696 S    
C6    C22   1.402067 A    
C16   C18   1.411926 A    
C10   C18   1.396050 A    
C78   H26   1.114820 S    
O30   C84   1.411932 S    
O29   C83   1.412176 S    
C22   C24   1.396151 A    
C19   C21   1.405710 A    
C86   H51   1.109145 S    
C3    C27   1.465914 S    
C20   C22   1.406610 A    
C9    C11   1.401218 A    
C40   O34   1.380467 S    
C53   C56   1.407772 A    
C75   H18   1.113331 S    
C62   H11   1.079501 S    
C88   H57   1.112342 S    
C35   O31   1.384949 S    
C15   N5    1.440522 S    
C13   H1    1.084110 S    
O5    Cu1   1.944803 S    
N6    O23   1.300613 A    
C45   H8    1.082142 S    
C6    O10   1.349635 S    
C70   C71   1.406003 A    
C52   C58   1.416240 A    
C38   O30   1.383656 S    
C11   N8    1.440553 S    
C78   H27   1.109899 S    
C55   H9    1.080344 S    
C20   C26   1.407485 A    
C88   H56   1.113778 S    
O34   C88   1.410486 S    
N5    O21   1.301516 A    
C64   O19   1.376734 S    
C67   C73   1.404718 A    
O5    C3    1.301028 A    
O16   C78   1.411587 S    
C73   O17   1.387213 S    
