data_mof_unit_29329.cif
_audit_creation_date              2012-12-11T14:21:19-0500
_audit_creation_method            fapswitch 2.2
_symmetry_space_group_name_H-M    P1
_symmetry_Int_Tables_number       1
_space_group_crystal_system       triclinic
_cell_length_a                    11.599722
_cell_length_b                    11.577688
_cell_length_c                    19.539093
_cell_angle_alpha                 90.047402
_cell_angle_beta                  90.011854
_cell_angle_gamma                 59.636191
_cell_volume                      2264.12539395

loop_
_atom_site_label
_atom_site_type_symbol
_atom_type_description
_atom_site_fract_x
_atom_site_fract_y
_atom_site_fract_z
_atom_type_partial_charge
C1    C     C_R   0.640444 0.116968 0.599296 0.557559
C2    C     C_1   0.653255 0.148937 0.668646 0.002682
C3    C     C_R   0.670414 0.664456 0.192529 0.010531
C4    C     C_R   0.612589 0.745831 0.598530 0.547733
C5    C     C_R   0.542273 0.745928 0.217997 0.020489
C6    C     C_R   0.521575 0.735499 0.287463 0.032875
C7    C     C_R   0.763030 0.616923 0.306720 -0.170869
C8    C     C_R   0.780081 0.595917 0.236954 -0.141535
C9    C     C_R   0.432917 0.820342 0.173997 -0.069608
C10   C     C_R   0.304961 0.859075 0.195674 -0.042310
C11   C     C_R   0.285015 0.825208 0.261093 -0.093907
C12   C     C_1   0.641464 0.703513 0.667936 0.005318
C13   C     C_R   0.391050 0.765788 0.307016 -0.077275
C14   C     C_R   0.634302 0.689199 0.332626 0.009262
C15   C     C_R   0.141254 0.192112 0.192570 -0.011513
C16   C     C_R   0.241368 0.145042 0.598193 0.547180
C17   C     C_R   0.216381 0.244850 0.219234 -0.026486
C18   C     C_R   0.211373 0.266012 0.289796 0.029908
C19   C     C_R   0.118527 0.119906 0.305681 -0.160323
C20   C     C_R   0.087348 0.134929 0.236546 -0.156752
C21   C     C_R   0.269984 0.302462 0.175882 -0.067287
C22   C     C_R   0.264865 0.419496 0.195828 0.240698
C23   C     C_1   0.126446 0.199372 0.859332 0.007934
C24   C     C_R   0.240984 0.457783 0.264616 -0.169237
C25   C     C_R   0.220843 0.378369 0.311987 -0.145651
C26   C     C_R   0.184736 0.181142 0.332962 0.017717
C27   C     C_R   0.656244 0.173205 0.185594 -0.003620
C28   C     C_R   0.622304 0.082339 0.394193 0.552259
C29   C     C_R   0.715402 0.037772 0.205261 0.025866
C30   C     C_R   0.720914 0.005572 0.275403 0.017749
C31   C     C_R   0.566623 0.242547 0.299130 -0.149502
C32   C     C_R   0.579554 0.274344 0.232394 -0.150326
C33   C     C_R   0.777598 0.933554 0.156657 -0.088374
C34   C     C_1   0.171753 0.170023 0.727751 -0.028815
C35   C     C_R   0.867826 0.804256 0.177437 -0.119283
C36   C     C_R   0.892090 0.776048 0.246606 -0.152040
C37   C     C_R   0.812573 0.871755 0.295026 -0.106616
C38   C     C_R   0.638909 0.109593 0.322369 0.001624
C39   C     C_R   0.081310 0.231488 0.928583 0.541522
C40   C     C_R   0.614283 0.739291 0.402261 0.537520
C41   C     C_R   0.683583 0.604574 0.929590 0.529820
C42   C     C_R   0.708151 0.206968 0.930130 0.538055
C43   C     C_R   0.082447 0.234627 0.125111 0.519371
C44   C     C_R   0.684164 0.611296 0.124891 0.517954
C45   C     C_1   0.150126 0.182583 0.799001 -0.026986
C46   C     C_R   0.704401 0.208152 0.124329 0.533177
C47   C     C_R   0.242985 0.144179 0.401500 0.538663
C48   C     C_1   0.669792 0.646917 0.860196 0.007441
C49   C     C_1   0.654799 0.683493 0.728432 -0.029758
C50   C     C_1   0.663049 0.666952 0.799705 -0.027807
C51   C     C_1   0.195677 0.160365 0.667400 0.005211
C52   C     C_1   0.678003 0.192042 0.860776 0.009423
C53   C     C_1   0.658611 0.166861 0.729007 -0.029358
C54   C     C_1   0.665299 0.181302 0.800329 -0.026400
Cr1   Cr    Cr6+3 0.404720 0.198220 0.499960 1.019831
Cr2   Cr    Cr6+3 0.698290 0.897110 0.500380 1.015590
Cr3   Cr    Cr6+3 0.396970 0.904720 0.499610 1.018934
Cr4   Cr    Cr6+3 0.926180 0.151990 0.028120 1.039658
Cr5   Cr    Cr6+3 0.921330 0.451820 0.027470 1.081603
Cr6   Cr    Cr6+3 0.626260 0.446870 0.028710 1.132589
H1    H     H_    0.849240 0.575720 0.340240 0.116855
H2    H     H_    0.447460 0.839101 0.121278 0.114005
H3    H     H_    0.879472 0.527434 0.217661 0.152106
H4    H     H_    0.222631 0.906820 0.159987 0.151626
H5    H     H_    0.186850 0.845238 0.276342 0.102797
H6    H     H_    0.369079 0.735639 0.355156 0.143790
H7    H     H_    0.088496 0.063674 0.337978 0.122259
H8    H     H_    0.289477 0.273246 0.122502 0.153204
H9    H     H_    0.023407 0.099139 0.217237 0.146444
H10   H     H_    0.134899 0.718229 0.181724 0.328210
H11   H     H_    0.234400 0.550067 0.281381 0.121631
H12   H     H_    0.196975 0.417056 0.363468 0.151152
H13   H     H_    0.505677 0.324171 0.333679 0.146591
H14   H     H_    0.761224 0.952783 0.102269 0.134890
H15   H     H_    0.534724 0.378887 0.218419 0.176596
H16   H     H_    0.920006 0.726341 0.139867 0.179932
H17   H     H_    0.966307 0.676360 0.262858 0.114598
H18   H     H_    0.829067 0.836763 0.346832 0.165713
O1    O     O_R   0.267740 0.231960 0.575440 -0.505997
O2    O     O_R   0.596130 0.579390 0.952730 -0.495093
O3    O     O_R   0.639060 0.321160 0.958670 -0.478344
O4    O     O_R   0.527280 0.186640 0.570530 -0.488988
O5    O     O_R   0.821240 0.124200 0.104370 -0.529416
O6    O     O_R   0.036890 0.167040 0.097840 -0.513664
O7    O     O_R   0.056180 0.349610 0.102880 -0.485073
O8    O     O_R   0.797660 0.564870 0.097950 -0.513320
O9    O     O_R   0.595880 0.584250 0.104270 -0.472321
O10   O     O_R   0.638830 0.325670 0.099150 -0.449168
O11   O     O_3   0.824590 0.350230 0.028100 -0.275541
O12   O     O_R   0.685970 0.784660 0.430010 -0.525075
O13   O     O_R   0.728090 0.003450 0.576380 -0.499275
O14   O     O_R   0.682970 0.789190 0.570490 -0.493401
O15   O     O_R   0.499290 0.771880 0.575530 -0.502521
O16   O     O_R   0.285330 0.030870 0.569730 -0.491704
O17   O     O_R   0.270980 0.227080 0.423890 -0.540503
O18   O     O_R   0.530280 0.182120 0.430050 -0.500907
O19   O     O_R   0.731330 0.998570 0.424830 -0.529941
O20   O     O_2   0.380323 0.466977 0.089703 -0.238259
O21   O     O_2   0.141280 0.555495 0.083397 -0.297161
O22   O     O_3   0.226733 0.674342 0.163256 -0.540606
O23   O     O_R   0.502530 0.767000 0.423990 -0.534687
O24   O     O_R   0.288330 0.026350 0.429250 -0.498316
O25   O     O_3   0.499990 0.000020 0.499980 -0.267487
O26   O     O_R   0.821500 0.119340 0.952830 -0.507838
O27   O     O_R   0.037130 0.162530 0.957360 -0.495631
O28   O     O_R   0.056440 0.344740 0.951340 -0.483873
O29   O     O_R   0.797900 0.560360 0.957470 -0.493740
S1    S     S_3+6 0.254032 0.529368 0.130744 -0.016651

loop_
_geom_bond_atom_site_label_1
_geom_bond_atom_site_label_2
_ccdc_geom_bond_type
C28   O19   A    
C39   O28   A    
C23   C45   T    
Cr1   O25   S    
C27   C29   A    
C19   C20   A    
C18   C26   A    
C16   C51   S    
C32   H15   S    
C12   C49   T    
Cr6   O10   S    
C7    C8    A    
C53   C54   S    
O21   S1    D    
C42   O3    A    
C34   C51   T    
C36   C37   A    
C36   H17   S    
C5    C6    A    
C22   S1    S    
C31   H13   S    
C29   C33   A    
O20   S1    D    
C30   C38   A    
C15   C17   A    
C1    C2    S    
Cr5   O11   S    
C19   C26   A    
C7    H1    S    
C40   O23   A    
Cr2   O13   S    
C35   C36   A    
H10   O22   S    
C19   H7    S    
C4    C12   S    
C44   O9    A    
C9    C10   A    
Cr2   O12   S    
C1    O13   A    
C47   O24   A    
Cr3   O15   S    
C21   C22   A    
C43   O6    A    
C18   C25   A    
Cr2   O19   S    
C41   O2    A    
C44   O8    A    
Cr6   O9    S    
C52   C54   T    
C46   O10   A    
C13   H6    S    
C7    C14   A    
C15   C20   A    
C35   H16   S    
C3    C44   S    
O22   S1    S    
Cr5   O28   S    
C9    H2    S    
C43   O7    A    
C24   C25   A    
Cr1   O17   S    
C3    C8    A    
C34   C45   S    
C1    O4    A    
Cr6   O11   S    
Cr5   O29   S    
C4    O15   A    
C30   C37   A    
Cr5   O7    S    
C5    C9    A    
C29   C30   A    
Cr3   O24   S    
Cr4   O6    S    
C6    C14   A    
Cr1   O1    S    
Cr6   O3    S    
C31   C32   A    
C28   C38   S    
C17   C18   A    
C25   H12   S    
Cr1   O4    S    
C26   C47   S    
C27   C46   S    
Cr3   O16   S    
C21   H8    S    
C22   C24   A    
C20   H9    S    
Cr4   O26   S    
C39   O27   A    
Cr6   O2    S    
C41   O29   A    
C27   C32   A    
C10   H4    S    
Cr2   O25   S    
Cr1   O18   S    
C3    C5    A    
C2    C53   T    
C42   O26   A    
Cr3   O23   S    
C37   H18   S    
C16   O16   A    
C31   C38   A    
C28   O18   A    
Cr4   O27   S    
C16   O1    A    
Cr5   O8    S    
C15   C43   S    
Cr4   O5    S    
C6    C13   A    
C11   C13   A    
C23   C39   S    
Cr3   O25   S    
C48   C50   T    
C33   C35   A    
C41   C48   S    
Cr4   O11   S    
C17   C21   A    
C10   C11   A    
C8    H3    S    
C14   C40   S    
C46   O5    A    
C33   H14   S    
Cr2   O14   S    
C49   C50   S    
C47   O17   A    
C40   O12   A    
C11   H5    S    
C24   H11   S    
C42   C52   S    
C4    O14   A    
