data_mof_unit_15553.cif
_audit_creation_date              2012-12-10T20:30:14-0500
_audit_creation_method            fapswitch 2.2
_symmetry_space_group_name_H-M    P1
_symmetry_Int_Tables_number       1
_space_group_crystal_system       triclinic
_cell_length_a                    9.927759
_cell_length_b                    10.739975
_cell_length_c                    13.103297
_cell_angle_alpha                 92.273934
_cell_angle_beta                  72.241481
_cell_angle_gamma                 89.377518
_cell_volume                      1329.11709169

loop_
_atom_site_label
_atom_site_type_symbol
_atom_type_description
_atom_site_fract_x
_atom_site_fract_y
_atom_site_fract_z
_atom_type_partial_charge
C1    C     C_R   0.502255 0.738968 0.494602 0.890238
C2    C     C_R   0.391173 0.419792 0.805543 -0.265867
C3    C     C_R   0.391072 0.938445 0.484350 -0.116588
C4    C     C_R   0.426764 0.471091 0.697364 0.881571
C5    C     C_R   0.509298 0.869891 0.484383 -0.254990
C6    C     C_R   0.636760 0.933988 0.474068 0.493650
C7    C     C_R   0.632453 0.063575 0.483491 -0.313046
C8    C     C_R   0.506245 0.129168 0.491498 -0.084719
C9    C     C_R   0.389624 0.062889 0.487048 0.069335
C10   C     C_3   0.242533 0.075323 0.480734 -0.420525
C11   C     C_3   0.242907 0.931881 0.478047 0.377753
C12   C     C_R   0.456770 0.418026 0.970014 0.104602
C13   C     C_R   0.911587 0.601163 0.540244 0.154382
C14   C     C_R   0.954182 0.407468 0.446132 0.387335
C15   C     C_R   0.092434 0.404209 0.455503 -0.097785
C16   C     C_R   0.501198 0.260605 0.498600 1.003632
C17   C     C_R   0.053536 0.601353 0.540004 0.171100
C18   C     C_3   0.010829 0.657138 0.652132 -0.582113
C19   C     C_3   0.858145 0.660700 0.649760 0.294097
C20   C     C_R   0.577436 0.495782 0.296555 0.931890
C21   C     C_R   0.801762 0.496536 0.008436 -0.145457
C22   C     C_R   0.624692 0.477960 0.180494 -0.168817
C23   C     C_R   0.497227 0.410108 0.857294 0.058299
C24   C     C_R   0.251718 0.388494 0.862985 0.437181
C25   C     C_R   0.211265 0.396532 0.975048 -0.193586
C26   C     C_R   0.311392 0.421086 0.027778 -0.186598
C27   C     C_3   0.343885 0.875436 0.291251 0.169403
C28   C     C_3   0.303118 0.831875 0.193098 -0.860546
C29   C     C_3   0.742941 0.832683 0.750680 0.106919
C30   C     C_3   0.695816 0.967052 0.745886 -0.737378
C31   C     C_3   0.828415 0.862069 0.339189 0.151324
C32   C     C_3   0.934030 0.753036 0.309815 -0.764546
C33   C     C_R   0.563540 0.430489 0.020476 -0.013930
C34   C     C_R   0.704036 0.452916 0.958547 0.135425
C35   C     C_R   0.744443 0.425178 0.849061 -0.249013
C36   C     C_R   0.642841 0.393703 0.800380 -0.162860
C37   C     C_R   0.537774 0.415510 0.129702 0.361669
C38   C     C_R   0.758350 0.517506 0.119417 -0.244376
H1    H     H_    0.830444 0.559469 0.157569 0.180094
H2    H     H_    0.853808 0.427616 0.801142 0.202737
H3    H     H_    0.908592 0.518270 0.961745 0.159170
H4    H     H_    0.274944 0.437940 0.113564 0.220733
H5    H     H_    0.102917 0.381068 0.021903 0.229600
H6    H     H_    0.680143 0.360682 0.717304 0.180088
H7    H     H_    0.425490 0.808729 0.300222 0.128845
H8    H     H_    0.389181 0.969723 0.276823 0.176909
H9    H     H_    0.219821 0.895115 0.182135 0.277588
H10   H     H_    0.397135 0.832389 0.120593 0.209994
H11   H     H_    0.263039 0.735516 0.202858 0.252884
H12   H     H_    0.728310 0.111381 0.481949 0.238299
H13   H     H_    0.800973 0.220244 0.259984 0.390348
H14   H     H_    0.818643 0.831845 0.798339 0.134723
H15   H     H_    0.648002 0.778724 0.791765 0.134878
H16   H     H_    0.614493 0.970396 0.703668 0.255977
H17   H     H_    0.649544 0.008480 0.828446 0.222832
H18   H     H_    0.787655 0.022761 0.702597 0.255540
H19   H     H_    0.399787 0.104659 0.113271 0.378909
H20   H     H_    0.952757 0.197903 0.852556 0.382456
H21   H     H_    0.885132 0.949128 0.311602 0.199172
H22   H     H_    0.749944 0.845280 0.294755 0.084752
H23   H     H_    0.168107 0.119537 0.554977 0.216001
H24   H     H_    0.878109 0.664270 0.329944 0.256487
H25   H     H_    0.990483 0.750077 0.222392 0.190751
H26   H     H_    0.011897 0.762587 0.354606 0.302788
H27   H     H_    0.239801 0.115738 0.404742 0.253117
H28   H     H_    0.168523 0.895628 0.551318 0.122218
H29   H     H_    0.162030 0.325527 0.423553 0.223609
H30   H     H_    0.027880 0.592628 0.711216 0.210649
H31   H     H_    0.054694 0.750552 0.657704 0.209335
H32   H     H_    0.783861 0.600678 0.706583 0.083580
N1    N     N_R   0.856940 0.500860 0.500710 -0.223826
N2    N     N_R   0.142580 0.500820 0.500710 -0.123289
O1    O     O_R   0.385310 0.683210 0.499990 -0.620359
O2    O     O_2   0.039792 0.340210 0.240370 -0.302847
O3    O     O_2   0.985499 0.173805 0.365916 -0.352699
O4    O     O_3   0.782557 0.284153 0.319543 -0.502619
O5    O     O_3   0.807264 0.783029 0.645421 -0.522423
O6    O     O_2   0.537528 0.218140 0.250968 -0.347581
O7    O     O_2   0.308735 0.298804 0.246962 -0.312561
O8    O     O_3   0.464246 0.171579 0.080006 -0.543058
O9    O     O_2   0.103567 0.370832 0.720101 -0.363108
O10   O     O_2   0.234807 0.186769 0.743892 -0.330019
O11   O     O_3   0.002307 0.249797 0.893373 -0.559750
O12   O     O_R   0.614650 0.683240 0.500000 -0.549059
O13   O     O_3   0.765671 0.871601 0.451857 -0.533928
O14   O     O_R   0.328390 0.499940 0.653610 -0.554303
O15   O     O_R   0.557730 0.499980 0.653620 -0.652701
O16   O     O_R   0.385350 0.316760 0.500000 -0.590263
O17   O     O_R   0.614690 0.316790 0.500010 -0.600814
O18   O     O_R   0.442270 0.500020 0.346380 -0.599628
O19   O     O_R   0.671610 0.500060 0.346390 -0.572754
O20   O     O_3   0.222584 0.876941 0.382905 -0.588147
S1    S     S_3+6 0.937537 0.300108 0.343194 0.024223
S2    S     S_3+6 0.459270 0.274113 0.181681 0.010710
S3    S     S_3+6 0.147606 0.298600 0.800621 -0.021317
Zn1   Zn    Zn3+2 0.346870 0.499980 0.499990 1.038498
Zn2   Zn    Zn3+2 0.653130 0.500020 0.500010 1.011495

loop_
_geom_bond_atom_site_label_1
_geom_bond_atom_site_label_2
_ccdc_geom_bond_type
O16   Zn1   S    
C28   H9    S    
C31   O13   S    
C14   N1    A    
C35   C36   A    
H19   O8    S    
C25   H5    S    
C7    C8    A    
C4    O15   A    
C1    O12   A    
C15   N2    A    
C30   H16   S    
C12   C23   A    
O3    S1    D    
C6    O13   S    
C1    C5    S    
O12   Zn2   S    
C18   C19   S    
C5    C6    A    
O9    S3    D    
C4    O14   A    
C18   H30   S    
C22   C38   A    
C34   C35   A    
C31   H21   S    
C19   O5    S    
C11   O20   S    
C21   C38   A    
C8    C9    A    
C9    C10   S    
C14   S1    S    
C11   H28   S    
C27   H7    S    
C18   H31   S    
C15   H29   S    
C16   O17   A    
C8    C16   S    
C7    H12   S    
O2    S1    D    
C33   C34   A    
C20   O19   A    
C13   C19   S    
C24   C25   A    
C32   H26   S    
O7    S2    D    
C24   S3    S    
C21   C34   A    
C13   N1    A    
C25   C26   A    
C22   C37   A    
C30   H18   S    
C33   C37   A    
O17   Zn2   S    
C31   H22   S    
C2    C4    S    
C29   C30   S    
C3    C9    A    
O4    S1    S    
N1    Zn2   S    
C28   H11   S    
C31   C32   S    
O11   S3    S    
C2    C23   A    
C17   C18   S    
C27   O20   S    
O19   Zn2   S    
O14   Zn1   S    
C21   H3    S    
C27   H8    S    
C20   C22   S    
C2    C24   A    
C36   H6    S    
C10   H23   S    
O8    S2    S    
C27   C28   S    
C26   H4    S    
C10   H27   S    
C28   H10   S    
O10   S3    D    
C32   H25   S    
C3    C5    A    
O18   Zn1   S    
C6    C7    A    
C30   H17   S    
C20   O18   A    
C13   C17   A    
C1    O1    A    
C35   H2    S    
C32   H24   S    
H20   O11   S    
C38   H1    S    
C29   H15   S    
O6    S2    D    
C37   S2    S    
C3    C11   S    
C10   C11   S    
N2    Zn1   S    
C29   O5    S    
C17   N2    A    
C23   C36   A    
C12   C26   A    
H13   O4    S    
C16   O16   A    
C14   C15   A    
C19   H32   S    
O1    Zn1   S    
C12   C33   A    
O15   Zn2   S    
C29   H14   S    
