data_mof_unit_23975.cif
_audit_creation_date              2012-12-11T14:30:50-0500
_audit_creation_method            fapswitch 2.2
_symmetry_space_group_name_H-M    P1
_symmetry_Int_Tables_number       1
_space_group_crystal_system       triclinic
_cell_length_a                    17.546169
_cell_length_b                    24.481131
_cell_length_c                    14.895496
_cell_angle_alpha                 90.22339
_cell_angle_beta                  124.961347
_cell_angle_gamma                 89.891583
_cell_volume                      5243.66500395

loop_
_atom_site_label
_atom_site_type_symbol
_atom_type_description
_atom_site_fract_x
_atom_site_fract_y
_atom_site_fract_z
_atom_type_partial_charge
C1    C     C_R   0.812527 0.628214 0.911491 -0.132505
C2    C     C_R   0.986680 0.498276 0.664988 0.094137
C3    C     C_R   0.571477 0.000856 0.369214 0.086833
C4    C     C_R   0.486726 0.998274 0.665025 0.094509
C5    C     C_R   0.678813 0.499072 0.680183 0.047039
C6    C     C_R   0.314543 0.500619 0.341957 0.049313
C7    C     C_R   0.178843 0.999071 0.680046 0.047015
C8    C     C_R   0.814573 0.000619 0.341876 0.048531
C9    C     C_3   0.522065 0.446660 0.542531 -0.150508
C10   C     C_3   0.483731 0.471505 0.429172 -0.134817
C11   C     C_3   0.022111 0.946659 0.542369 -0.150001
C12   C     C_R   0.188182 0.627654 0.090302 -0.126744
C13   C     C_3   0.983760 0.971513 0.429012 -0.134562
C14   C     C_3   0.445331 0.475392 0.546091 -0.134961
C15   C     C_3   0.545357 0.522510 0.482478 -0.140428
C16   C     C_3   0.945389 0.975384 0.545960 -0.134986
C17   C     C_3   0.045388 0.022518 0.482324 -0.145545
C18   C     C_3   0.408984 0.500208 0.434486 0.162148
C19   C     C_3   0.582144 0.497822 0.594289 0.161299
C20   C     C_3   0.909025 0.000208 0.434359 0.163853
C21   C     C_3   0.082187 0.997821 0.594130 0.164036
C22   C     C_3   0.469228 0.551280 0.486533 -0.160914
C23   C     C_R   0.312493 0.128174 0.911488 -0.130373
C24   C     C_3   0.507613 0.526477 0.600005 -0.140933
C25   C     C_3   0.969266 0.051281 0.486407 -0.164617
C26   C     C_3   0.007666 0.026468 0.599874 -0.138744
C27   C     C_2   0.237688 0.699050 0.908353 0.451041
C28   C     C_2   0.764808 0.698830 0.095580 0.408189
C29   C     C_2   0.737720 0.199048 0.908387 0.458630
C30   C     C_2   0.264656 0.198744 0.095533 0.462345
C31   C     C_2   0.253822 0.665379 0.989236 -0.456814
C32   C     C_2   0.747394 0.664692 0.014370 -0.470158
C33   C     C_2   0.753846 0.165369 0.989255 -0.463579
C34   C     C_R   0.688185 0.127652 0.090304 -0.129472
C35   C     C_2   0.247295 0.164606 0.014339 -0.462430
C36   C     C_2   0.815212 0.231964 0.931404 0.505380
C37   C     C_2   0.188267 0.232904 0.072702 0.505683
C38   C     C_2   0.315172 0.731967 0.931362 0.510923
C39   C     C_2   0.688386 0.732881 0.072991 0.450719
C40   C     C_R   0.938193 0.353786 0.094899 -0.091225
C41   C     C_R   0.062310 0.353243 0.905959 -0.102603
C42   C     C_R   0.438232 0.853767 0.094891 -0.088669
C43   C     C_R   0.562183 0.853185 0.905986 -0.104671
C44   C     C_2   0.841533 0.270515 0.008141 -0.357573
C45   C     C_R   0.873748 0.323761 0.004415 0.242369
C46   C     C_2   0.161821 0.270741 0.994996 -0.365530
C47   C     C_2   0.341512 0.770516 0.008108 -0.341263
C48   C     C_2   0.661520 0.770626 0.995017 -0.318112
C49   C     C_2   0.105766 0.455924 0.532144 -0.113435
C50   C     C_2   0.078067 0.459248 0.607109 -0.108941
C51   C     C_2   0.605797 0.955923 0.532159 -0.111840
C52   C     C_2   0.578110 0.959247 0.607137 -0.110432
C53   C     C_2   0.107874 0.501371 0.484612 -0.177457
C54   C     C_2   0.014921 0.496420 0.591258 -0.163218
C55   C     C_2   0.607900 0.001370 0.484623 -0.177791
C56   C     C_R   0.128187 0.323995 0.996925 0.242201
C57   C     C_2   0.514970 0.996421 0.591297 -0.160601
C58   C     C_R   0.054888 0.546174 0.305930 -0.012341
C59   C     C_R   0.972654 0.544623 0.707420 -0.021604
C60   C     C_R   0.554897 0.046174 0.305934 -0.007667
C61   C     C_R   0.472675 0.044622 0.707434 -0.023294
C62   C     C_R   0.734092 0.453971 0.725855 -0.122457
C63   C     C_R   0.262558 0.454948 0.288866 -0.142791
C64   C     C_R   0.234107 0.953970 0.725770 -0.121546
C65   C     C_R   0.762578 0.954947 0.288816 -0.142806
C66   C     C_R   0.051599 0.455621 0.303964 -0.126010
C67   C     C_R   0.373788 0.823744 0.004404 0.232666
C68   C     C_R   0.982790 0.453827 0.718001 -0.139681
C69   C     C_R   0.551606 0.955621 0.303967 -0.124421
C70   C     C_R   0.482828 0.953825 0.718033 -0.139237
C71   C     C_R   0.731937 0.545740 0.718370 -0.154430
C72   C     C_R   0.262943 0.546657 0.292662 -0.140486
C73   C     C_R   0.231958 0.045740 0.718287 -0.153984
C74   C     C_R   0.762961 0.046657 0.292623 -0.142770
C75   C     C_R   0.846875 0.353092 0.911693 -0.043517
C76   C     C_R   0.154871 0.353907 0.089071 -0.042412
C77   C     C_R   0.346895 0.853086 0.911689 -0.044133
C78   C     C_R   0.627965 0.823905 0.996962 0.227977
C79   C     C_R   0.654756 0.853867 0.089081 -0.043038
C80   C     C_R   0.903494 0.622575 0.093770 0.011540
C81   C     C_R   0.096590 0.624486 0.907915 0.011626
C82   C     C_R   0.403469 0.122548 0.093764 0.018096
C83   C     C_R   0.596598 0.124484 0.907920 0.010208
C84   C     C_R   0.818761 0.640151 0.006875 0.206932
C85   C     C_R   0.181741 0.641208 0.995694 0.195640
C86   C     C_R   0.318706 0.140095 0.006866 0.195158
C87   C     C_R   0.681753 0.141203 0.995703 0.199634
C88   C     C_1   0.093986 0.599466 0.348946 0.100947
C89   C     C_R   0.071463 0.500857 0.369208 0.085904
C90   C     C_1   0.931926 0.594580 0.647574 0.109480
C91   C     C_1   0.593996 0.099466 0.348946 0.099618
C92   C     C_1   0.431952 0.094578 0.647583 0.112099
H1    H     H_    0.754381 0.637210 0.829292 0.107705
H2    H     H_    0.520861 0.548762 0.672738 0.127857
H3    H     H_    0.946256 0.094204 0.462220 0.119565
H4    H     H_    0.020926 0.048747 0.672619 0.128166
H5    H     H_    0.324943 0.659557 0.060341 0.161984
H6    H     H_    0.676067 0.659406 0.943270 0.151657
H7    H     H_    0.824968 0.159536 0.060354 0.150770
H8    H     H_    0.175986 0.159343 0.943182 0.149726
H9    H     H_    0.820815 0.267430 0.064267 0.121032
H10   H     H_    0.182876 0.266976 0.939258 0.121033
H11   H     H_    0.320777 0.767445 0.064219 0.120784
H12   H     H_    0.247236 0.634309 0.173427 0.110386
H13   H     H_    0.682187 0.766790 0.938917 0.119457
H14   H     H_    0.105123 0.415652 0.501198 0.130830
H15   H     H_    0.103591 0.427996 0.669638 0.134449
H16   H     H_    0.605147 0.915650 0.501209 0.132025
H17   H     H_    0.603633 0.927992 0.669661 0.134896
H18   H     H_    0.114251 0.540929 0.521819 0.165370
H19   H     H_    0.987639 0.527333 0.527871 0.153608
H20   H     H_    0.614284 0.040928 0.521833 0.165572
H21   H     H_    0.487689 0.027335 0.527913 0.156490
H22   H     H_    0.979500 0.340255 0.179167 0.127334
H23   H     H_    0.254329 0.137143 0.829285 0.106908
H24   H     H_    0.020573 0.338573 0.822338 0.128241
H25   H     H_    0.479545 0.840234 0.179158 0.130556
H26   H     H_    0.520409 0.838513 0.822367 0.128474
H27   H     H_    0.715125 0.411476 0.705867 0.115428
H28   H     H_    0.280428 0.412745 0.313360 0.123983
H29   H     H_    0.215151 0.911474 0.705766 0.115307
H30   H     H_    0.780463 0.912743 0.313299 0.124495
H31   H     H_    0.068856 0.413637 0.330270 0.102624
H32   H     H_    0.983550 0.411143 0.699808 0.106672
H33   H     H_    0.568864 0.913637 0.330271 0.103498
H34   H     H_    0.747236 0.134312 0.173428 0.108225
H35   H     H_    0.483614 0.911140 0.699864 0.107086
H36   H     H_    0.710217 0.586699 0.687120 0.107923
H37   H     H_    0.279921 0.588255 0.322269 0.099602
H38   H     H_    0.210257 0.086700 0.687030 0.105919
H39   H     H_    0.779951 0.088254 0.322236 0.099459
H40   H     H_    0.802916 0.339560 0.827637 0.173965
H41   H     H_    0.200173 0.341382 0.173527 0.171452
H42   H     H_    0.302912 0.839567 0.827628 0.173973
H43   H     H_    0.700123 0.841404 0.173550 0.172053
H44   H     H_    0.927018 0.620802 0.177750 0.157256
H45   H     H_    0.545659 0.403850 0.567268 0.133916
H46   H     H_    0.073484 0.625226 0.824569 0.159898
H47   H     H_    0.426995 0.120769 0.177742 0.158118
H48   H     H_    0.573494 0.125228 0.824576 0.159695
H49   H     H_    0.401061 0.456428 0.568602 0.133040
H50   H     H_    0.589101 0.541533 0.459234 0.134441
H51   H     H_    0.901129 0.956413 0.568481 0.133338
H52   H     H_    0.089124 0.041549 0.459076 0.129365
H53   H     H_    0.079166 0.794968 0.692049 0.379214
H54   H     H_    0.927777 0.792216 0.316109 0.381440
H55   H     H_    0.579206 0.295000 0.692156 0.378933
H56   H     H_    0.470911 0.449169 0.356679 0.137847
H57   H     H_    0.427601 0.292200 0.315959 0.381266
H58   H     H_    0.897243 0.157433 0.791007 0.368282
H59   H     H_    0.105288 0.160138 0.212998 0.369131
H60   H     H_    0.396947 0.657401 0.790724 0.367262
H61   H     H_    0.692085 0.643886 0.210949 0.345685
H62   H     H_    0.045709 0.903849 0.567092 0.133849
H63   H     H_    0.970923 0.949185 0.356504 0.137176
H64   H     H_    0.446222 0.594203 0.462334 0.122048
N1    N     N_R   0.892320 0.603520 0.941090 -0.050019
N2    N     N_R   0.973240 0.529450 0.794410 -0.071195
N3    N     N_R   0.526760 0.029450 0.205590 -0.074486
N4    N     N_R   0.473240 0.029450 0.794410 -0.071373
N5    N     N_R   0.819350 0.473090 0.793940 -0.044214
N6    N     N_R   0.180650 0.473090 0.206060 -0.043017
N7    N     N_R   0.319350 0.973090 0.793940 -0.044036
N8    N     N_R   0.680650 0.973090 0.206060 -0.043176
N9    N     N_R   0.027860 0.473090 0.206590 -0.054210
N10   N     N_R   0.972140 0.473090 0.793410 -0.051698
N11   N     N_R   0.527860 0.973090 0.206590 -0.054212
N12   N     N_R   0.107680 0.603520 0.058910 -0.051203
N13   N     N_R   0.472140 0.973090 0.793410 -0.051710
N14   N     N_R   0.818250 0.529450 0.792940 -0.041642
N15   N     N_R   0.181750 0.529450 0.207060 -0.042742
N16   N     N_R   0.318250 0.029450 0.792940 -0.041459
N17   N     N_R   0.681750 0.029450 0.207060 -0.042667
N18   N     N_R   0.896320 0.399020 0.944720 -0.069293
N19   N     N_R   0.103680 0.399020 0.055280 -0.067541
N20   N     N_R   0.396320 0.899020 0.944720 -0.068600
N21   N     N_R   0.603680 0.899020 0.055280 -0.067427
N22   N     N_R   0.949790 0.603520 0.054810 -0.067499
N23   N     N_R   0.392320 0.103520 0.941090 -0.049899
N24   N     N_R   0.050210 0.603520 0.945190 -0.067721
N25   N     N_R   0.449790 0.103520 0.054810 -0.068071
N26   N     N_R   0.550210 0.103520 0.945190 -0.067815
N27   N     N_1   0.125541 0.642234 0.383482 -0.007242
N28   N     N_1   0.898572 0.634533 0.599147 0.005326
N29   N     N_1   0.625553 0.142233 0.383479 -0.007989
N30   N     N_1   0.398600 0.134531 0.599152 0.006077
N31   N     N_R   0.607680 0.103520 0.058910 -0.050893
N32   N     N_R   0.953790 0.399020 0.058440 -0.058952
N33   N     N_R   0.046210 0.399020 0.941560 -0.057891
N34   N     N_R   0.453790 0.899020 0.058440 -0.059261
N35   N     N_R   0.546210 0.899020 0.941560 -0.057086
N36   N     N_R   0.026760 0.529450 0.205590 -0.074457
Ni1   Ni    Ni4+2 0.934100 0.565890 0.869590 0.240799
Ni2   Ni    Ni4+2 0.065900 0.565890 0.130410 0.239083
Ni3   Ni    Ni4+2 0.434100 0.065890 0.869590 0.239916
Ni4   Ni    Ni4+2 0.565900 0.065890 0.130410 0.239081
Ni5   Ni    Ni4+2 0.068420 0.436630 0.132700 0.230852
Ni6   Ni    Ni4+2 0.931580 0.436630 0.867300 0.235356
Ni7   Ni    Ni4+2 0.568420 0.936630 0.132700 0.231721
Ni8   Ni    Ni4+2 0.431580 0.936630 0.867300 0.235801
O1    O     O_2   0.086955 0.685419 0.702665 -0.276536
O2    O     O_2   0.416978 0.182590 0.299589 -0.275439
O3    O     O_2   0.440714 0.229919 0.171789 -0.304332
O4    O     O_3   0.364667 0.283329 0.250639 -0.529396
O5    O     O_2   0.779562 0.244468 0.731403 -0.255254
O6    O     O_2   0.941259 0.257374 0.888045 -0.297111
O7    O     O_3   0.874938 0.158855 0.838839 -0.516118
O8    O     O_2   0.222386 0.247393 0.271746 -0.257202
O9    O     O_2   0.060997 0.259164 0.113920 -0.298803
O10   O     O_3   0.128185 0.160965 0.165751 -0.514114
O11   O     O_2   0.279704 0.744631 0.731477 -0.256476
O12   O     O_2   0.061620 0.731499 0.830932 -0.303326
O13   O     O_2   0.441425 0.757228 0.888299 -0.299715
O14   O     O_3   0.374611 0.658824 0.838525 -0.512771
O15   O     O_2   0.722402 0.748487 0.272233 -0.258058
O16   O     O_2   0.561153 0.758659 0.114500 -0.260016
O17   O     O_3   0.629802 0.661168 0.168943 -0.492132
O18   O     O_3   0.141323 0.785494 0.757994 -0.535983
O19   O     O_2   0.916998 0.682627 0.299666 -0.292593
O20   O     O_2   0.940946 0.729896 0.171984 -0.294631
O21   O     O_3   0.864866 0.783392 0.250696 -0.524784
O22   O     O_2   0.586960 0.185450 0.702705 -0.276348
O23   O     O_2   0.561671 0.231513 0.831024 -0.304442
O24   O     O_3   0.641366 0.285516 0.758085 -0.535670
S1    S     S_3+6 0.127454 0.724284 0.797833 -0.022266
S2    S     S_3+6 0.876260 0.722554 0.206640 -0.026815
S3    S     S_3+6 0.627487 0.224301 0.797898 -0.022100
S4    S     S_3+6 0.376110 0.222514 0.206546 -0.020014
S5    S     S_3+6 0.853949 0.225316 0.844945 -0.001348
S6    S     S_3+6 0.148719 0.227282 0.158435 -0.001654
S7    S     S_3+6 0.353940 0.725309 0.844942 0.001697
S8    S     S_3+6 0.649484 0.727388 0.159460 0.014058

loop_
_geom_bond_atom_site_label_1
_geom_bond_atom_site_label_2
_ccdc_geom_bond_type
N33   Ni6   S    
C53   H18   S    
C63   N6    A    
C83   C87   A    
C21   C26   S    
C24   H2    S    
N21   N35   A    
H59   O10   S    
N32   Ni5   S    
C55   H20   S    
C14   C18   S    
O5    S5    D    
C67   C77   A    
C60   N3    A    
C80   C84   A    
C68   H32   S    
C4    C70   A    
N11   Ni7   S    
C72   H37   S    
C7    C73   A    
C22   H64   S    
C44   C45   S    
C1    C84   A    
O1    S1    D    
N22   Ni2   S    
C82   N25   A    
C50   C54   D    
O11   S7    D    
C12   C85   A    
C17   H52   S    
C31   C85   S    
C52   H17   S    
C22   C24   S    
C3    C69   A    
C70   N13   A    
H58   O7    S    
C12   H12   S    
C2    C68   A    
C10   C15   S    
N15   Ni2   S    
O17   S8    S    
N31   Ni4   S    
C35   C86   S    
O23   S3    D    
C62   N5    A    
C20   C25   S    
C27   C38   S    
C14   C24   S    
C64   H29   S    
C29   C33   D    
N9    N36   A    
C51   C55   D    
C48   C78   S    
N25   Ni4   S    
C13   H63   S    
C11   H62   S    
N18   N32   A    
C40   N32   A    
C9    H45   S    
C9    C19   S    
C15   C22   S    
C40   H22   S    
N6    N15   A    
C32   H6    S    
C36   S5    S    
C23   C86   A    
C4    C57   S    
C54   H19   S    
N4    N13   A    
C79   N21   A    
C45   C75   A    
O4    S4    S    
C80   N22   A    
C9    C10   S    
O18   S1    S    
C23   N23   A    
O13   S7    D    
C61   C92   S    
C34   H34   S    
O9    S6    D    
C3    C60   A    
C91   N29   T    
C14   H49   S    
C69   H33   S    
C8    C65   A    
N12   Ni2   S    
C74   H39   S    
C75   N18   A    
C16   C26   S    
C40   C45   A    
C3    C55   S    
N20   Ni8   S    
C64   N7    A    
C6    C18   S    
O14   S7    S    
C47   C67   S    
C83   H48   S    
N34   Ni7   S    
C66   C89   A    
C26   H4    S    
C37   S6    S    
C32   C84   S    
N18   Ni6   S    
N2    Ni1   S    
C47   H11   S    
H53   O18   S    
C27   C31   D    
O15   S8    D    
C72   N15   A    
C30   S4    S    
C28   C32   D    
C16   H51   S    
N35   Ni8   S    
C74   N17   A    
C2    C54   S    
C61   N4    A    
C28   S2    S    
H54   O21   S    
C78   C79   A    
C51   H16   S    
C88   N27   T    
O2    S4    D    
C28   C39   S    
C25   C26   S    
C82   C86   A    
O3    S4    D    
C4    C61   A    
C11   C21   S    
C17   C21   S    
C51   C52   S    
C83   N26   A    
C33   H7    S    
C59   C90   S    
N36   Ni2   S    
C6    C63   A    
C15   C19   S    
C9    C14   S    
C69   N11   A    
C41   C56   A    
C12   N12   A    
C82   H47   S    
N7    N16   A    
N9    Ni5   S    
C34   C87   A    
C15   H50   S    
C46   H10   S    
C11   C16   S    
C42   N34   A    
N20   N34   A    
C48   H13   S    
C29   C36   S    
C16   C20   S    
N17   Ni4   S    
C8    C74   A    
C62   H27   S    
C71   N14   A    
O20   S2    D    
N8    N17   A    
C6    C72   A    
C8    C20   S    
C65   H30   S    
C73   N16   A    
N3    Ni4   S    
H57   O4    S    
C38   C47   D    
C38   S7    S    
N13   Ni8   S    
N19   Ni5   S    
N5    N14   A    
N5    Ni6   S    
C59   N2    A    
C90   N28   T    
N7    Ni8   S    
C25   H3    S    
C77   N20   A    
C56   C76   A    
N4    Ni3   S    
C53   C89   S    
C50   H15   S    
C76   H41   S    
N1    Ni1   S    
C71   H36   S    
C36   C44   D    
C77   H42   S    
O12   S1    D    
C41   H24   S    
C35   H8    S    
O24   S3    S    
C30   C35   D    
N6    Ni5   S    
C75   H40   S    
N2    N10   A    
N26   N31   A    
C60   C91   S    
C43   C78   A    
C73   H38   S    
C27   S1    S    
C66   N9    A    
O8    S6    D    
C2    C59   A    
H61   O17   S    
C13   C20   S    
C76   N19   A    
O7    S5    S    
C81   N24   A    
C81   H46   S    
C58   C88   S    
N19   N33   A    
N14   Ni1   S    
C57   H21   S    
C44   H9    S    
N8    Ni7   S    
C42   H25   S    
C49   H14   S    
C5    C19   S    
C41   N33   A    
C79   H43   S    
C80   H44   S    
C13   C17   S    
N23   Ni3   S    
C17   C25   S    
C18   C22   S    
C19   C24   S    
C33   C87   S    
C39   S8    S    
C5    C71   A    
C70   H35   S    
N12   N24   A    
N10   Ni6   S    
C58   N36   A    
C63   H28   S    
C11   C13   S    
C42   C67   A    
H60   O14   S    
O22   S3    D    
C10   C18   S    
C49   C53   D    
C7    C21   S    
O21   S2    S    
C65   N8    A    
C1    N1    A    
O16   S8    D    
C23   H23   S    
N3    N11   A    
C5    C62   A    
C92   N30   T    
N1    N22   A    
C31   H5    S    
O19   S2    D    
C34   N31   A    
C58   C89   A    
C7    C64   A    
O10   S6    S    
C52   C57   D    
H55   O24   S    
C43   H26   S    
C43   N35   A    
C30   C37   S    
C1    H1    S    
C49   C50   S    
N21   Ni7   S    
C46   C56   S    
C29   S3    S    
C66   H31   S    
N16   Ni3   S    
N26   Ni3   S    
N23   N25   A    
C37   C46   D    
C81   C85   A    
N24   Ni1   S    
C10   H56   S    
C39   C48   D    
O6    S5    D    
C68   N10   A    
