data_mof_unit_21122.cif
_audit_creation_date              2012-12-10T16:49:24-0500
_audit_creation_method            fapswitch 2.2
_symmetry_space_group_name_H-M    P1
_symmetry_Int_Tables_number       1
_space_group_crystal_system       triclinic
_cell_length_a                    7.841901
_cell_length_b                    8.61557
_cell_length_c                    12.778753
_cell_angle_alpha                 89.168067
_cell_angle_beta                  87.493198
_cell_angle_gamma                 92.898396
_cell_volume                      861.31311368

loop_
_atom_site_label
_atom_site_type_symbol
_atom_type_description
_atom_site_fract_x
_atom_site_fract_y
_atom_site_fract_z
_atom_type_partial_charge
C1    C     C_R   0.456107 0.206331 0.497937 0.910302
C2    C     C_R   0.682190 0.409180 0.143943 -0.199281
C3    C     C_R   0.539606 0.405884 0.872384 0.067768
C4    C     C_R   0.460413 0.594126 0.127614 0.067770
C5    C     C_R   0.559141 0.448285 0.976714 0.037723
C6    C     C_R   0.440880 0.551727 0.023284 0.037690
C7    C     C_2   0.433234 0.044280 0.511833 -0.092597
C8    C     C_2   0.566766 0.955719 0.488167 -0.092615
C9    C     C_2   0.155671 0.682709 0.010369 0.423311
C10   C     C_2   0.844357 0.317313 0.989631 0.423252
C11   C     C_2   0.995011 0.609584 0.379712 0.634699
C12   C     C_R   0.543893 0.793668 0.502063 0.910301
C13   C     C_2   0.005003 0.390495 0.620309 0.635029
C14   C     C_R   0.464198 0.498499 0.699447 0.865047
C15   C     C_R   0.535803 0.501500 0.300553 0.865042
C16   C     C_R   0.562568 0.504587 0.189017 -0.109280
C17   C     C_R   0.437439 0.495415 0.810983 -0.109244
C18   C     C_R   0.308974 0.610510 0.963493 -0.025796
C19   C     C_R   0.691048 0.389503 0.036506 -0.025738
C20   C     C_R   0.317822 0.590825 0.856057 -0.199203
H1    H     H_    0.770259 0.351747 0.192893 0.218368
H2    H     H_    0.105901 0.310266 0.617162 0.040836
H3    H     H_    0.259296 0.038394 0.634773 0.171707
H4    H     H_    0.174568 0.010359 0.516410 0.191672
H5    H     H_    0.740707 0.961603 0.365228 0.171711
H6    H     H_    0.825431 0.989641 0.483591 0.191663
H7    H     H_    0.229750 0.648256 0.807108 0.218433
H8    H     H_    0.438054 0.763594 0.239897 0.186690
H9    H     H_    0.428849 0.825100 0.117692 0.188047
H10   H     H_    0.561974 0.236416 0.760103 0.186640
H11   H     H_    0.571219 0.174914 0.882305 0.188065
H12   H     H_    0.113586 0.657168 0.090892 0.152533
H13   H     H_    0.886436 0.342846 0.909106 0.152512
H14   H     H_    0.893947 0.689631 0.382858 0.041132
N1    N     N_2   0.054030 0.541640 0.471970 -0.167625
N2    N     N_2   0.945970 0.458360 0.528030 -0.167738
N3    N     N_3   0.387601 0.732962 0.168313 -0.424788
N4    N     N_3   0.612438 0.267058 0.831682 -0.424938
N5    N     N_3   0.275756 0.983224 0.562923 -0.429126
N6    N     N_3   0.724245 0.016776 0.437077 -0.429143
O1    O     O_R   0.609680 0.261530 0.506880 -0.597035
O2    O     O_2   0.928720 0.231920 0.041529 -0.552836
O3    O     O_2   0.062886 0.582592 0.294814 -0.593532
O4    O     O_2   0.937360 0.417807 0.705219 -0.593533
O5    O     O_R   0.390320 0.738470 0.493120 -0.596961
O6    O     O_R   0.323330 0.288220 0.488910 -0.664996
O7    O     O_R   0.676670 0.711780 0.511090 -0.665018
O8    O     O_R   0.619510 0.488830 0.661140 -0.549416
O9    O     O_R   0.380490 0.511170 0.338860 -0.549318
O10   O     O_R   0.333160 0.515520 0.643180 -0.656855
O11   O     O_R   0.666840 0.484480 0.356820 -0.656974
O12   O     O_2   0.071323 0.768119 0.958474 -0.552812
Zn1   Zn    Zn3+2 0.691200 0.482180 0.511990 0.974166
Zn2   Zn    Zn3+2 0.308800 0.517820 0.488010 0.974289

loop_
_geom_bond_atom_site_label_1
_geom_bond_atom_site_label_2
_ccdc_geom_bond_type
C4    C16   A    
C11   O3    D    
C5    C19   A    
C20   H7    S    
C15   O11   A    
C10   O2    D    
C2    C16   A    
N1    N2    D    
C11   H14   S    
H11   N4    S    
O7    Zn1   S    
C10   C19   S    
C8    C12   S    
O1    Zn1   S    
O6    Zn2   S    
C2    H1    S    
C11   N1    S    
C13   H2    S    
C7    C8    D    
O10   Zn2   S    
N1    Zn2   S    
C14   C17   S    
H6    N6    S    
C14   O10   A    
C9    O12   D    
H8    N3    S    
C12   O7    A    
H3    N5    S    
C5    C6    A    
C1    O1    A    
O5    Zn2   S    
C3    C17   A    
C10   H13   S    
C18   C20   A    
C15   O9    A    
H5    N6    S    
O8    Zn1   S    
C6    C18   A    
C1    O6    A    
C15   C16   S    
C9    C18   S    
H4    N5    S    
C4    N3    S    
H10   N4    S    
C13   N2    S    
C4    C6    A    
H9    N3    S    
C7    N5    S    
C14   O8    A    
N2    Zn1   S    
C8    N6    S    
C9    H12   S    
C3    C5    A    
C2    C19   A    
C1    C7    S    
C17   C20   A    
C13   O4    D    
O9    Zn2   S    
C3    N4    S    
C12   O5    A    
O11   Zn1   S    
