data_mof_unit_13519.cif
_audit_creation_date              2012-12-10T16:50:04-0500
_audit_creation_method            fapswitch 2.2
_symmetry_space_group_name_H-M    P1
_symmetry_Int_Tables_number       1
_space_group_crystal_system       triclinic
_cell_length_a                    7.812571
_cell_length_b                    8.578558
_cell_length_c                    10.70899
_cell_angle_alpha                 92.270922
_cell_angle_beta                  86.462361
_cell_angle_gamma                 92.797026
_cell_volume                      715.019083316

loop_
_atom_site_label
_atom_site_type_symbol
_atom_type_description
_atom_site_fract_x
_atom_site_fract_y
_atom_site_fract_z
_atom_type_partial_charge
C1    C     C_R   0.544287 0.794092 0.493921 0.986214
C2    C     C_R   0.317642 0.446110 0.937334 -0.080507
C3    C     C_R   0.477736 0.432011 0.867384 -0.093588
C4    C     C_R   0.621139 0.389510 0.926096 -0.238390
C5    C     C_R   0.619324 0.396062 0.055255 -0.142713
C6    C     C_R   0.475532 0.449375 0.126277 -0.077276
C7    C     C_2   0.565525 0.957482 0.495765 -0.431776
C8    C     C_2   0.433934 0.042760 0.470707 0.250236
C9    C     C_R   0.496128 0.477468 0.737711 0.829532
C10   C     C_R   0.455144 0.205870 0.494599 0.771106
C11   C     C_R   0.493740 0.487139 0.259342 0.847027
C12   C     C_R   0.154817 0.451115 0.883297 0.438579
C13   C     C_R   0.030826 0.543745 0.942854 -0.412396
C14   C     C_R   0.037809 0.577295 0.071397 0.464678
C15   C     C_R   0.159714 0.499721 0.132199 0.419540
C16   C     C_R   0.318847 0.466090 0.067396 -0.184018
H1    H     H_    0.736955 0.358907 0.871970 0.196947
H2    H     H_    0.920434 0.571171 0.893515 0.207615
H3    H     H_    0.734652 0.368211 0.099105 0.199570
H4    H     H_    0.685625 0.007866 0.529181 0.147469
N1    N     N_2   0.950330 0.457950 0.466250 0.235045
N2    N     N_2   0.049670 0.542050 0.533750 0.254713
O1    O     O_R   0.389250 0.738570 0.508280 -0.597291
O2    O     O_R   0.678390 0.711630 0.486650 -0.584398
O3    O     O_R   0.355400 0.513470 0.694050 -0.619977
O4    O     O_R   0.644540 0.486530 0.672420 -0.569384
O5    O     O_R   0.321610 0.288370 0.513350 -0.571952
O6    O     O_R   0.610750 0.261430 0.491720 -0.667114
O7    O     O_R   0.355460 0.513470 0.327580 -0.581721
O8    O     O_R   0.644600 0.486530 0.305950 -0.577029
Zn1   Zn    Zn3+2 0.306930 0.517990 0.514440 1.077153
Zn2   Zn    Zn3+2 0.693070 0.482010 0.485560 1.080500
O9    O     O_3   0.959853 0.636811 0.614279 -0.516666
C17   C     C_3   0.065264 0.764873 0.650423 -0.153329
H5    H     H_    0.101106 0.837783 0.569239 0.213989
H6    H     H_    0.177528 0.729724 0.698368 0.179378
H7    H     H_    0.990002 0.838487 0.719035 0.120445
O10   O     O_3   0.107835 0.357268 0.782145 -0.709906
H8    H     H_    0.191824 0.274201 0.768948 0.327906
O11   O     O_3   0.902590 0.641086 0.143058 -0.552279
C18   C     C_3   0.846991 0.775527 0.088538 -0.299918
H9    H     H_    0.758341 0.742622 0.013645 0.164515
H10   H     H_    0.956214 0.852704 0.052106 0.147441
H11   H     H_    0.773540 0.844135 0.161747 0.196069
O12   O     O_3   0.095164 0.410950 0.228941 -0.711557
H12   H     H_    0.162940 0.315922 0.229462 0.332586
O13   O     O_3   0.291081 0.977926 0.413662 -0.763676
H13   H     H_    0.216161 0.062229 0.393482 0.352821
O14   O     O_3   0.005831 0.313866 0.443369 -0.649972
H14   H     H_    0.908661 0.253750 0.406898 0.345757

loop_
_geom_bond_atom_site_label_1
_geom_bond_atom_site_label_2
_ccdc_geom_bond_type
C10   O5    A    
O3    Zn1   S    
O2    Zn2   S    
O4    Zn2   S    
C3    C9    S    
C13   C14   A    
C17   H7    S    
C2    C16   A    
C18   H9    S    
O13   H13   S    
C2    C12   A    
N1    O14   S    
C2    C3    A    
C8    O13   S    
C9    O3    A    
C7    C8    D    
O7    Zn1   S    
O12   H12   S    
O8    Zn2   S    
C18   H10   S    
C7    H4    S    
C5    C6    A    
C13   H2    S    
C5    H3    S    
C4    H1    S    
N1    N2    D    
O11   C18   S    
N1    Zn2   S    
O9    C17   S    
C9    O4    A    
C1    O1    A    
C17   H6    S    
C12   O10   S    
O10   H8    S    
C17   H5    S    
C18   H11   S    
N2    Zn1   S    
C15   O12   S    
O5    Zn1   S    
C3    C4    A    
O6    Zn2   S    
C12   C13   A    
C11   O7    A    
C1    O2    A    
C8    C10   S    
O14   H14   S    
C10   O6    A    
C6    C11   S    
N2    O9    S    
C14   C15   A    
C1    C7    S    
C14   O11   S    
C6    C16   A    
C15   C16   A    
C11   O8    A    
C4    C5    A    
O1    Zn1   S    
