data_mof_unit_11498.cif
_audit_creation_date              2012-10-26T19:34:29-0400
_audit_creation_method            fapswitch 2.2
_symmetry_space_group_name_H-M    P1
_symmetry_Int_Tables_number       1
_space_group_crystal_system       triclinic
_cell_length_a                    19.394994
_cell_length_b                    18.385194
_cell_length_c                    15.010615
_cell_angle_alpha                 90.503236
_cell_angle_beta                  89.0727
_cell_angle_gamma                 90.160071
_cell_volume                      5351.56977733

loop_
_atom_site_label
_atom_site_type_symbol
_atom_type_description
_atom_site_fract_x
_atom_site_fract_y
_atom_site_fract_z
_atom_type_partial_charge
C1    C     C_R   0.367716 0.499896 0.498800 0.545111
C2    C     C_R   0.183931 0.565925 0.493034 0.216505
C3    C     C_3   0.152160 0.664787 0.410428 0.009890
C4    C     C_3   0.191503 0.736933 0.417165 -0.263570
C5    C     C_3   0.191856 0.777619 0.328957 -0.495390
C6    C     C_3   0.170094 0.314458 0.440642 -0.002712
C7    C     C_3   0.111632 0.261004 0.421560 -0.251003
C8    C     C_3   0.135616 0.199647 0.359453 -0.494616
C9    C     C_3   0.832465 0.690518 0.528532 0.005627
C10   C     C_3   0.802811 0.746514 0.464663 -0.249657
C11   C     C_3   0.776793 0.814170 0.514169 -0.489385
C12   C     C_3   0.390920 0.699545 0.331856 0.004123
C13   C     C_R   0.183090 0.432945 0.492605 0.225211
C14   C     C_3   0.348633 0.642117 0.283196 -0.250899
C15   C     C_3   0.348223 0.656328 0.183277 -0.482457
C16   C     C_3   0.544858 0.294577 0.702702 0.010858
C17   C     C_3   0.537288 0.311929 0.802289 -0.267448
C18   C     C_3   0.603547 0.298380 0.853278 -0.484687
C19   C     C_3   0.602434 0.703032 0.670154 -0.001090
C20   C     C_3   0.672014 0.687352 0.711659 -0.267701
C21   C     C_3   0.670893 0.704487 0.811119 -0.481653
C22   C     C_3   0.500408 0.295625 0.273263 0.004869
C23   C     C_3   0.545688 0.298391 0.189213 -0.267015
C24   C     C_R   0.816980 0.566217 0.499574 0.222468
C25   C     C_3   0.504582 0.286445 0.104539 -0.491952
C26   C     C_R   0.852130 0.499661 0.506122 0.049213
C27   C     C_R   0.147462 0.499619 0.494197 0.047651
C28   C     C_R   0.707730 0.500394 0.509483 -0.086565
C29   C     C_R   0.292024 0.499668 0.495565 -0.071052
C30   C     C_R   0.964609 0.536026 0.568814 -0.109763
C31   C     C_R   0.034706 0.463572 0.430109 -0.099554
C32   C     C_R   0.036330 0.536041 0.566066 -0.082362
C33   C     C_R   0.632165 0.500119 0.503396 0.541800
C34   C     C_R   0.962905 0.463020 0.433315 -0.079726
C35   C     C_R   0.071704 0.499928 0.496642 0.085675
C36   C     C_R   0.927710 0.499295 0.502678 0.090499
C37   C     C_R   0.445921 0.720179 0.462993 0.371660
C38   C     C_R   0.484544 0.276509 0.575711 0.355683
C39   C     C_R   0.553200 0.723038 0.535734 0.368946
C40   C     C_R   0.517800 0.277567 0.423401 0.371408
C41   C     C_R   0.441871 0.796849 0.468742 -0.146413
C42   C     C_R   0.475646 0.200264 0.571419 -0.148698
C43   C     C_R   0.555682 0.799567 0.526652 -0.145979
C44   C     C_R   0.376481 0.469934 0.053010 -0.021301
C45   C     C_R   0.521933 0.200561 0.424175 -0.141760
C46   C     C_R   0.498322 0.838243 0.496802 -0.059416
C47   C     C_R   0.497265 0.160612 0.496489 -0.062260
C48   C     C_R   0.503219 0.499650 0.329095 0.569209
C49   C     C_R   0.495514 0.500484 0.670682 0.578117
C50   C     C_R   0.521341 0.961700 0.570173 -0.017787
C51   C     C_R   0.469016 0.037825 0.423355 -0.019621
C52   C     C_R   0.472545 0.960131 0.421272 -0.019477
C53   C     C_R   0.526207 0.038959 0.566900 -0.017354
C54   C     C_R   0.497364 0.077992 0.495494 -0.009852
C55   C     C_R   0.622751 0.524384 0.945914 -0.018122
C56   C     C_R   0.497247 0.921083 0.495927 -0.008104
C57   C     C_R   0.554183 0.520180 0.810079 -0.210654
C58   C     C_R   0.442711 0.483711 0.189693 -0.205858
C59   C     C_R   0.493472 0.502335 0.767069 0.004271
C60   C     C_R   0.504313 0.498397 0.232492 0.009028
C61   C     C_R   0.433330 0.483942 0.815295 0.238252
C62   C     C_R   0.565854 0.509539 0.183981 0.247113
C63   C     C_R   0.434703 0.486581 0.909319 -0.001815
C64   C     C_R   0.563250 0.512304 0.089928 -0.000966
C65   C     C_R   0.498066 0.499423 0.952757 0.002576
C66   C     C_R   0.743617 0.434833 0.518567 -0.162635
C67   C     C_R   0.500269 0.498080 0.046493 0.003588
C68   C     C_R   0.559042 0.514123 0.902439 -0.010086
C69   C     C_R   0.439494 0.482842 0.096767 -0.008141
C70   C     C_R   0.374393 0.475955 0.960461 -0.132898
C71   C     C_R   0.622583 0.527954 0.038873 -0.133958
C72   C     C_R   0.536057 0.924513 0.655310 0.031232
C73   C     C_R   0.603118 0.923385 0.689494 -0.095704
C74   C     C_R   0.614262 0.897685 0.775342 -0.123680
C75   C     C_R   0.559068 0.870885 0.826504 -0.121699
C76   C     C_R   0.492793 0.868996 0.791483 -0.125400
C77   C     C_R   0.255821 0.565438 0.495415 -0.123213
C78   C     C_R   0.481176 0.895956 0.706296 -0.102593
C79   C     C_R   0.434248 0.077083 0.350279 0.033619
C80   C     C_R   0.460470 0.073751 0.262463 -0.092789
C81   C     C_R   0.425759 0.108132 0.193760 -0.121930
C82   C     C_R   0.365909 0.147996 0.212446 -0.121022
C83   C     C_R   0.340320 0.152936 0.299829 -0.129495
C84   C     C_R   0.373952 0.117180 0.368468 -0.101108
C85   C     C_R   0.452211 0.920138 0.339118 0.032383
C86   C     C_R   0.383537 0.920881 0.310409 -0.097638
C87   C     C_R   0.365641 0.885737 0.231078 -0.126272
C88   C     C_R   0.255571 0.433729 0.493478 -0.159903
C89   C     C_R   0.415863 0.849039 0.180396 -0.119983
C90   C     C_R   0.483999 0.847148 0.209141 -0.129003
C91   C     C_R   0.502242 0.882633 0.288107 -0.102328
C92   C     C_R   0.567888 0.077838 0.634650 0.031510
C93   C     C_R   0.546535 0.080595 0.724565 -0.093313
C94   C     C_R   0.591336 0.106901 0.789386 -0.116786
C95   C     C_R   0.656821 0.132481 0.764671 -0.119527
C96   C     C_R   0.677161 0.132924 0.674984 -0.133698
C97   C     C_R   0.632991 0.105482 0.610114 -0.106369
C98   C     C_3   0.357218 0.392960 0.775632 0.013158
C99   C     C_R   0.744516 0.565659 0.500079 -0.138119
C100  C     C_3   0.320455 0.368420 0.691474 -0.229619
C101  C     C_3   0.298613 0.288727 0.696216 -0.481454
C102  C     C_3   0.675234 0.464858 0.212567 -0.015357
C103  C     C_3   0.690028 0.424367 0.298077 -0.249392
C104  C     C_3   0.734363 0.357142 0.280867 -0.470286
C105  C     C_R   0.312311 0.447434 0.101096 0.026058
C106  C     C_R   0.251276 0.487729 0.093028 -0.108492
C107  C     C_R   0.191040 0.466142 0.138104 -0.114648
C108  C     C_R   0.190812 0.403415 0.190022 -0.106892
C109  C     C_R   0.250733 0.361927 0.196509 -0.119783
C110  C     C_R   0.815744 0.433942 0.517283 0.221770
C111  C     C_R   0.311122 0.383594 0.152115 -0.102017
C112  C     C_R   0.691009 0.526477 0.897711 0.028803
C113  C     C_R   0.742975 0.575530 0.924023 -0.111838
C114  C     C_R   0.806812 0.576920 0.879317 -0.117997
C115  C     C_R   0.819819 0.529277 0.808182 -0.103489
C116  C     C_R   0.769551 0.479129 0.782935 -0.123312
C117  C     C_R   0.706281 0.476556 0.828492 -0.108077
C118  C     C_3   0.845613 0.333242 0.598448 0.004170
C119  C     C_3   0.903431 0.358771 0.659805 -0.260500
C120  C     C_3   0.900851 0.318786 0.748420 -0.487436
Cu1   Cu    Cu3+1 0.500000 0.573360 0.500000 1.051266
Cu2   Cu    Cu3+1 0.500000 0.426640 0.500000 1.000589
H1    H     H_    0.597885 0.537504 0.769835 0.121319
H2    H     H_    0.061481 0.436016 0.375708 0.106078
H3    H     H_    0.604719 0.241597 0.877085 0.145612
H4    H     H_    0.605230 0.334822 0.912635 0.146368
H5    H     H_    0.650091 0.308769 0.811206 0.136659
H6    H     H_    0.562380 0.668087 0.701850 0.166250
H7    H     H_    0.589461 0.760798 0.685414 0.135646
H8    H     H_    0.686088 0.629350 0.700571 0.177973
H9    H     H_    0.711805 0.722140 0.679630 0.150367
H10   H     H_    0.654419 0.761114 0.823814 0.144854
H11   H     H_    0.723697 0.699282 0.837217 0.152153
H12   H     H_    0.635183 0.667153 0.846916 0.164149
H13   H     H_    0.064298 0.563735 0.618295 0.136278
H14   H     H_    0.458376 0.336208 0.268321 0.155872
H15   H     H_    0.475527 0.241145 0.275862 0.127682
H16   H     H_    0.570661 0.352323 0.185567 0.174934
H17   H     H_    0.586421 0.256186 0.193028 0.154773
H18   H     H_    0.476347 0.234041 0.107010 0.145070
H19   H     H_    0.540303 0.285407 0.046067 0.143834
H20   H     H_    0.467432 0.331329 0.095658 0.156724
H21   H     H_    0.934749 0.434995 0.381509 0.125424
H22   H     H_    0.395038 0.823575 0.449000 0.112992
H23   H     H_    0.457370 0.171971 0.630198 0.115877
H24   H     H_    0.601677 0.828437 0.546455 0.113690
H25   H     H_    0.543883 0.172090 0.367034 0.116066
H26   H     H_    0.646148 0.944632 0.650817 0.110679
H27   H     H_    0.665682 0.898650 0.802274 0.103577
H28   H     H_    0.567763 0.851024 0.893037 0.104183
H29   H     H_    0.397002 0.474438 0.230322 0.112829
H30   H     H_    0.450221 0.847782 0.830947 0.108009
H31   H     H_    0.429198 0.896491 0.680991 0.107814
H32   H     H_    0.507347 0.043989 0.247207 0.108733
H33   H     H_    0.445590 0.104288 0.126091 0.100993
H34   H     H_    0.339616 0.175414 0.159328 0.104219
H35   H     H_    0.294280 0.184244 0.314286 0.095553
H36   H     H_    0.353030 0.120563 0.435712 0.102948
H37   H     H_    0.344134 0.948938 0.349260 0.107400
H38   H     H_    0.312792 0.886681 0.209075 0.103620
H39   H     H_    0.401923 0.821728 0.119096 0.105521
H40   H     H_    0.324944 0.471277 0.928788 0.141779
H41   H     H_    0.522746 0.818404 0.170026 0.107402
H42   H     H_    0.555367 0.881482 0.309193 0.107286
H43   H     H_    0.496398 0.059814 0.744606 0.108788
H44   H     H_    0.575426 0.107076 0.858821 0.101206
H45   H     H_    0.691615 0.152544 0.814944 0.102218
H46   H     H_    0.727617 0.153358 0.655908 0.098416
H47   H     H_    0.650279 0.103621 0.541157 0.106966
H48   H     H_    0.321790 0.383019 0.832910 0.119322
H49   H     H_    0.403362 0.358281 0.783854 0.162102
H50   H     H_    0.274107 0.402702 0.681823 0.178190
H51   H     H_    0.670316 0.540694 0.071309 0.132243
H52   H     H_    0.355882 0.375172 0.633692 0.222678
H53   H     H_    0.344345 0.253378 0.704833 0.162000
H54   H     H_    0.272911 0.272803 0.633389 0.145294
H55   H     H_    0.261836 0.280370 0.752709 0.144564
H56   H     H_    0.724384 0.490125 0.189382 0.142274
H57   H     H_    0.659975 0.425361 0.159691 0.110048
H58   H     H_    0.718244 0.461890 0.342455 0.173833
H59   H     H_    0.640912 0.407834 0.330852 0.236568
H60   H     H_    0.706950 0.317844 0.237286 0.143569
H61   H     H_    0.745149 0.330313 0.345137 0.173959
H62   H     H_    0.715878 0.383727 0.522739 0.140204
H63   H     H_    0.784165 0.372727 0.248703 0.144528
H64   H     H_    0.250446 0.536084 0.052394 0.098319
H65   H     H_    0.144438 0.497906 0.132482 0.101184
H66   H     H_    0.144086 0.386674 0.224625 0.096595
H67   H     H_    0.250480 0.312779 0.235643 0.087456
H68   H     H_    0.356853 0.350556 0.157629 0.092405
H69   H     H_    0.733606 0.614469 0.977330 0.097217
H70   H     H_    0.845873 0.615691 0.899159 0.100048
H71   H     H_    0.868890 0.531039 0.772906 0.094957
H72   H     H_    0.779449 0.442119 0.728064 0.102833
H73   H     H_    0.283082 0.616728 0.498313 0.182617
H74   H     H_    0.668895 0.436133 0.808682 0.106514
H75   H     H_    0.851874 0.273957 0.586003 0.148418
H76   H     H_    0.794250 0.339816 0.631810 0.102972
H77   H     H_    0.954206 0.348929 0.626488 0.190179
H78   H     H_    0.898456 0.418025 0.673019 0.150820
H79   H     H_    0.850783 0.328713 0.783356 0.146166
H80   H     H_    0.943027 0.338815 0.791431 0.151733
H81   H     H_    0.907554 0.259400 0.737274 0.142190
H82   H     H_    0.098447 0.676285 0.390206 0.159430
H83   H     H_    0.175431 0.630171 0.356287 0.106794
H84   H     H_    0.283454 0.382936 0.495373 0.121619
H85   H     H_    0.166965 0.771763 0.469544 0.176000
H86   H     H_    0.245590 0.726643 0.436426 0.176598
H87   H     H_    0.216071 0.744026 0.275258 0.144607
H88   H     H_    0.221891 0.828811 0.335928 0.141209
H89   H     H_    0.138359 0.791391 0.310037 0.147085
H90   H     H_    0.213009 0.284368 0.471770 0.128891
H91   H     H_    0.188127 0.337841 0.376082 0.121134
H92   H     H_    0.092402 0.237333 0.485201 0.175879
H93   H     H_    0.068428 0.290419 0.390200 0.166366
H94   H     H_    0.154715 0.221999 0.295090 0.139764
H95   H     H_    0.716822 0.615663 0.489455 0.175258
H96   H     H_    0.091772 0.162384 0.346077 0.147801
H97   H     H_    0.177374 0.168096 0.390814 0.141396
H98   H     H_    0.878271 0.714944 0.560859 0.146760
H99   H     H_    0.795303 0.678229 0.583623 0.112749
H100  H     H_    0.843618 0.762815 0.415903 0.169698
H101  H     H_    0.759592 0.722189 0.426912 0.173408
H102  H     H_    0.732727 0.800132 0.558836 0.155743
H103  H     H_    0.758923 0.854771 0.465380 0.142687
H104  H     H_    0.818691 0.838913 0.554006 0.139773
H105  H     H_    0.443561 0.701365 0.300579 0.150640
H106  H     H_    0.937753 0.564021 0.622813 0.097323
H107  H     H_    0.365161 0.752939 0.324099 0.136418
H108  H     H_    0.370643 0.587668 0.295484 0.182504
H109  H     H_    0.294935 0.642267 0.309647 0.151388
H110  H     H_    0.325450 0.710421 0.169928 0.137593
H111  H     H_    0.316744 0.614262 0.149838 0.153993
H112  H     H_    0.401490 0.654098 0.155028 0.160301
H113  H     H_    0.586426 0.329262 0.673412 0.148764
H114  H     H_    0.560876 0.236778 0.696441 0.145315
H115  H     H_    0.523729 0.369660 0.810648 0.171103
H116  H     H_    0.494924 0.278721 0.831906 0.148205
N1    N     N_R   0.500000 0.683620 0.500000 -0.202252
N2    N     N_R   0.500000 0.316380 0.500000 -0.210967
O1    O     O_R   0.400190 0.561980 0.499990 -0.449558
O2    O     O_3   0.626734 0.521354 0.229899 -0.574477
O3    O     O_3   0.850973 0.368392 0.515143 -0.580074
O4    O     O_3   0.148873 0.631433 0.495156 -0.576462
O5    O     O_3   0.145395 0.368731 0.500223 -0.571345
O6    O     O_3   0.855065 0.628522 0.479730 -0.568577
O7    O     O_3   0.393555 0.681584 0.422990 -0.560183
O8    O     O_3   0.481750 0.308493 0.659119 -0.568111
O9    O     O_3   0.606443 0.688047 0.577537 -0.557920
O10   O     O_3   0.541563 0.313009 0.348144 -0.555095
O11   O     O_R   0.599810 0.438020 0.500010 -0.515405
O12   O     O_R   0.599810 0.561980 0.500010 -0.447127
O13   O     O_R   0.400190 0.438020 0.499990 -0.528014
O14   O     O_R   0.499980 0.561960 0.370260 -0.483327
O15   O     O_R   0.500020 0.438040 0.629740 -0.455577
O16   O     O_R   0.500020 0.561960 0.629740 -0.509484
O17   O     O_R   0.499980 0.438040 0.370260 -0.473502
O18   O     O_3   0.373283 0.468156 0.769495 -0.575854

loop_
_geom_bond_atom_site_label_1
_geom_bond_atom_site_label_2
_ccdc_geom_bond_type
C19   H7    S    
C13   O5    S    
C63   C65   A    
C93   C94   A    
C3    H82   S    
C15   H110  S    
C100  H50   S    
C24   C99   A    
C120  H80   S    
C73   C74   A    
C6    O5    S    
C104  H60   S    
C95   C96   A    
C37   O7    S    
C3    O4    S    
C94   H44   S    
Cu2   O13   S    
C39   N1    A    
C55   C68   A    
C85   C91   A    
C102  H57   S    
C7    C8    S    
C43   H24   S    
C44   C105  S    
C87   H38   S    
Cu1   O1    S    
C104  H63   S    
C22   H15   S    
C4    H85   S    
C119  H77   S    
C76   C78   A    
C23   H17   S    
C52   C85   S    
C81   C82   A    
C24   C26   A    
C31   H2    S    
C22   O10   S    
C80   H32   S    
C109  C111  A    
C18   H3    S    
C112  C117  A    
C55   C112  S    
C37   N1    A    
C6    H90   S    
C106  C107  A    
C16   H114  S    
C75   H28   S    
C58   C60   A    
C115  C116  A    
C107  H65   S    
C19   H6    S    
C97   H47   S    
C108  C109  A    
C15   H112  S    
C60   C62   A    
C103  H58   S    
C64   C71   A    
C21   H11   S    
C33   O11   A    
C50   C72   S    
C118  C119  S    
C92   C93   A    
C29   C88   A    
C62   C64   A    
C23   H16   S    
Cu2   O11   S    
C24   O6    S    
C110  O3    S    
Cu2   N2    S    
C99   H95   S    
C109  H67   S    
C16   C17   S    
C65   C67   A    
C39   O9    S    
C72   C78   A    
C41   C46   A    
C96   H46   S    
C74   H27   S    
C62   O2    S    
C2    C27   A    
C102  O2    S    
C9    C10   S    
C26   C110  A    
C48   O17   A    
C49   C59   S    
C72   C73   A    
C48   C60   S    
C82   H34   S    
C17   H116  S    
C98   O18   S    
C16   O8    S    
C115  H71   S    
C93   H43   S    
C103  H59   S    
C37   C41   A    
C120  H79   S    
C102  C103  S    
C61   O18   S    
C113  H69   S    
C70   H40   S    
C89   H39   S    
C112  C113  A    
C1    O13   A    
C92   C97   A    
C114  C115  A    
C45   C47   A    
C40   C45   A    
C5    H89   S    
C34   H21   S    
C59   C61   A    
C50   C53   A    
C114  H70   S    
C74   C75   A    
C73   H26   S    
C119  H78   S    
C3    H83   S    
C64   C67   A    
C30   H106  S    
Cu1   O14   S    
C25   H18   S    
C8    H96   S    
C106  H64   S    
C41   H22   S    
C20   H8    S    
Cu2   O15   S    
C49   O16   A    
C84   H36   S    
C86   C87   A    
C19   O9    S    
C12   H105  S    
C39   C43   A    
C58   H29   S    
C16   H113  S    
C27   C35   S    
C85   C86   A    
C50   C56   A    
C71   H51   S    
C22   H14   S    
C67   C69   A    
C33   O12   A    
C28   C66   A    
C75   C76   A    
C32   C35   A    
C21   H10   S    
C5    H88   S    
C18   H5    S    
C57   H1    S    
C40   O10   S    
Cu2   O17   S    
C83   C84   A    
C83   H35   S    
C63   C70   A    
C11   H103  S    
C65   C68   A    
C38   O8    S    
C96   C97   A    
C15   H111  S    
C53   C92   S    
C61   C63   A    
C17   C18   S    
C14   H109  S    
C31   C34   A    
C44   C69   A    
C58   C69   A    
C76   H30   S    
C66   C110  A    
C44   C70   A    
C9    O6    S    
Cu1   Cu2   S    
C1    O1    A    
C10   H101  S    
C47   C54   S    
C98   H49   S    
C9    H98   S    
C26   C36   S    
C12   C14   S    
C28   C33   S    
C98   C100  S    
C87   C89   A    
C100  H52   S    
C102  H56   S    
C31   C35   A    
C91   H42   S    
C101  H53   S    
C57   C59   A    
C1    C29   S    
C57   C68   A    
C48   O14   A    
C3    C4    S    
C118  H76   S    
C21   H12   S    
C118  O3    S    
C28   C99   A    
Cu1   O16   S    
C113  C114  A    
C86   H37   S    
C66   H62   S    
C12   H107  S    
C45   H25   S    
C108  H66   S    
C22   C23   S    
C25   H19   S    
C88   H84   S    
C80   C81   A    
Cu1   O12   S    
C95   H45   S    
C11   H102  S    
C32   H13   S    
C119  C120  S    
C78   H31   S    
C53   C54   A    
C6    C7    S    
C12   O7    S    
C5    H87   S    
C105  C106  A    
C81   H33   S    
C30   C36   A    
C90   H41   S    
C51   C54   A    
C19   C20   S    
C8    H94   S    
C77   H73   S    
C116  H72   S    
C51   C52   A    
C40   N2    A    
C8    H97   S    
Cu1   N1    S    
C18   H4    S    
C30   C32   A    
C42   H23   S    
C25   H20   S    
C90   C91   A    
C79   C84   A    
C6    H91   S    
C11   H104  S    
C49   O15   A    
C13   C88   A    
C100  C101  S    
C116  C117  A    
C34   C36   A    
C42   C47   A    
C23   C25   S    
C105  C111  A    
C94   C95   A    
C43   C46   A    
C51   C79   S    
C14   H108  S    
C7    H92   S    
C101  H55   S    
C10   C11   S    
C10   H100  S    
C38   N2    A    
C79   C80   A    
C98   H48   S    
C38   C42   A    
C9    H99   S    
C4    C5    S    
C104  H61   S    
C29   C77   A    
C20   C21   S    
C111  H68   S    
C82   C83   A    
C46   C56   S    
C103  C104  S    
C117  H74   S    
C120  H81   S    
C2    C77   A    
C14   C15   S    
C13   C27   A    
C101  H54   S    
C20   H9    S    
C4    H86   S    
C7    H93   S    
C89   C90   A    
C118  H75   S    
C2    O4    S    
C55   C71   A    
C52   C56   A    
C107  C108  A    
C17   H115  S    
