data_mof_unit_27140.cif
_audit_creation_date              2013-03-05T15:43:30-0500
_audit_creation_method            fapswitch 2.2
_symmetry_space_group_name_H-M    P1
_symmetry_Int_Tables_number       1
_space_group_crystal_system       triclinic
_cell_length_a                    10.776864
_cell_length_b                    10.956581
_cell_length_c                    9.728044
_cell_angle_alpha                 89.654431
_cell_angle_beta                  90.360801
_cell_angle_gamma                 90.17141
_cell_volume                      1148.61524882

loop_
_atom_site_label
_atom_site_type_symbol
_atom_site_description
_atom_site_fract_x
_atom_site_fract_y
_atom_site_fract_z
_atom_type_partial_charge
O1    O     O_R   0.500020 0.321960 0.617040 -0.552114
O2    O     O_R   0.499980 0.321920 0.382900 -0.541156
C1    C     C_R   0.497297 0.265510 0.499972 0.872568
O3    O     O_R   0.317710 0.500000 0.617070 -0.553395
O4    O     O_R   0.317670 0.499960 0.382930 -0.542295
C2    C     C_R   0.260199 0.496866 0.499728 0.846444
Cu1   Cu    Cu3+1 0.500030 0.500020 0.638630 1.084820
Cu2   Cu    Cu3+1 0.499970 0.499980 0.361370 1.121654
O5    O     O_R   0.500020 0.678080 0.617100 -0.609115
O6    O     O_R   0.499980 0.678040 0.382960 -0.554703
O7    O     O_R   0.682330 0.500040 0.617070 -0.592006
O8    O     O_R   0.682290 0.500000 0.382930 -0.539739
C3    C     C_R   0.503891 0.734419 0.499576 0.836130
C4    C     C_R   0.739595 0.494160 0.500434 0.834617
C5    C     C_3   0.074097 0.469463 0.647860 -0.408200
H1    H     H_    0.114762 0.533431 0.724051 0.253308
H2    H     H_    0.105793 0.377707 0.682674 0.234380
C6    C     C_3   0.931666 0.478744 0.651933 0.111573
H3    H     H_    0.909987 0.563550 0.708728 0.169703
C7    C     C_3   0.071021 0.619681 0.446320 0.170565
C8    C     C_3   0.072287 0.385019 0.408954 0.055029
C9    C     C_3   0.122400 0.494133 0.499233 -0.260929
H4    H     H_    0.105415 0.299691 0.460457 0.133178
C10   C     C_3   0.877382 0.491083 0.500530 -0.281018
C11   C     C_3   0.927241 0.613800 0.435397 0.140253
C12   C     C_3   0.927336 0.380245 0.413974 0.045255
H5    H     H_    0.903349 0.296326 0.471829 0.180552
H6    H     H_    0.106942 0.635948 0.341146 0.172150
H7    H     H_    0.904452 0.613994 0.324588 0.219028
C13   C     C_2   0.473564 0.933825 0.394636 0.281078
C14   C     C_2   0.522823 0.866332 0.497667 0.224393
C15   C     C_2   0.499230 0.066094 0.387249 0.366893
C16   C     C_2   0.481526 0.134107 0.499989 -0.230812
H8    H     H_    0.449498 0.092196 0.594978 0.163189
C17   C     C_2   0.438272 0.420883 0.922878 0.657097
N1    N     N_2   0.498630 0.498660 0.846910 -0.007669
C18   C     C_2   0.460462 0.409178 0.077080 0.181861
N2    N     N_2   0.498590 0.498630 0.153040 -0.010408
H9    H     H_    0.441483 0.321871 0.125555 0.116158
N3    N     N_R   0.868028 0.363650 0.277981 0.184346
O9    O     O_R   0.868980 0.448179 0.183585 -0.257560
O10   O     O_R   0.810155 0.261862 0.251887 -0.263857
O11   O     O_3   0.400132 0.879476 0.294824 -0.682842
H10   H     H_    0.365623 0.944305 0.234296 0.356545
O12   O     O_3   0.599004 0.920522 0.595274 -0.724526
H11   H     H_    0.634203 0.856371 0.656166 0.347801
O13   O     O_3   0.539045 0.118639 0.265520 -0.675135
H12   H     H_    0.554296 0.052689 0.198405 0.347872
O14   O     O_3   0.352476 0.345944 0.859561 -0.730560
H13   H     H_    0.313172 0.294120 0.931027 0.325085
O15   O     O_3   0.603796 0.543442 0.901972 -0.572283
H14   H     H_    0.637332 0.600232 0.832072 0.371808
O16   O     O_3   0.477789 0.609715 0.098345 -0.565981
H15   H     H_    0.532236 0.666121 0.149637 0.392953
N4    N     N_R   0.878779 0.376873 0.732677 0.158288
O17   O     O_R   0.819971 0.400437 0.845793 -0.231251
O18   O     O_R   0.906736 0.263861 0.706931 -0.328557
N5    N     N_R   0.115112 0.723132 0.529840 0.169877
O19   O     O_R   0.075913 0.740635 0.654408 -0.322914
O20   O     O_R   0.189366 0.803535 0.475423 -0.308201
O21   O     O_3   0.870105 0.720815 0.484593 -0.657419
H16   H     H_    0.844474 0.709061 0.581105 0.341242
N6    N     N_R   0.121965 0.381687 0.268153 0.181589
O22   O     O_R   0.112054 0.473947 0.184095 -0.302540
O23   O     O_R   0.180693 0.284954 0.227306 -0.342096

loop_
_geom_bond_atom_site_label_1
_geom_bond_atom_site_label_2
_geom_bond_distance
_ccdc_geom_bond_type
C17   O14   1.379442 S    
C5    C6    1.539397 S    
Cu1   O7    1.977097 S    
C8    C12   1.563895 S    
N6    O23   1.301550 A    
C18   N2    1.295356 D    
O4    Cu2   1.977097 S    
Cu1   N1    2.026274 S    
C17   N1    1.300230 D    
C13   C14   1.349057 D    
Cu2   O8    1.974687 S    
C15   C16   1.344583 D    
N4    O17   1.300911 A    
N3    O10   1.301710 A    
O2    C1    1.292944 A    
O8    C4    1.297150 A    
Cu1   Cu2   2.697196 S    
C18   H9    1.083447 S    
C11   O21   1.413438 S    
O16   H15   0.986447 S    
C13   C15   1.475977 S    
N2    O16   1.344256 S    
C12   N3    1.477609 S    
C12   H5    1.105975 S    
O4    C2    1.297697 A    
N1    O15   1.343270 S    
Cu2   N2    2.026747 S    
C6    N4    1.476113 S    
O3    Cu1   1.974686 S    
C6    C10   1.586518 S    
O3    C2    1.296062 A    
N3    O9    1.300355 A    
C17   C18   1.522247 S    
C10   C12   1.579741 S    
C16   H8    1.087116 S    
Cu1   O5    1.960884 S    
N4    O18   1.301399 A    
O11   H10   0.991630 S    
C11   H7    1.104056 S    
O21   H16   0.987902 S    
C15   O13   1.383662 S    
C13   O11   1.384962 S    
C8    N6    1.474459 S    
C7    C11   1.553649 S    
C1    C16   1.449224 S    
N5    O20   1.300821 A    
C5    H1    1.110392 S    
C2    C9    1.485241 S    
O13   H12   0.991556 S    
O12   H11   0.991250 S    
O15   H14   0.988335 S    
C10   C11   1.577244 S    
Cu2   O6    1.963460 S    
O14   H13   0.991294 S    
C14   O12   1.386434 S    
C4    C10   1.485383 S    
O7    C4    1.297056 A    
C5    H2    1.112913 S    
O5    C3    1.296840 A    
C6    H3    1.110103 S    
C7    H6    1.109414 S    
O1    Cu1   1.963460 S    
N5    O19   1.301328 A    
C8    C9    1.579578 S    
C7    N5    1.474345 S    
C8    H4    1.116513 S    
C3    C14   1.459071 S    
C5    C9    1.561555 S    
O2    Cu2   1.960884 S    
N6    O22   1.300566 A    
C7    C9    1.567220 S    
O1    C1    1.299353 A    
O6    C3    1.295383 A    
