data_mof_unit_34743.cif
_audit_creation_date              2013-03-05T15:54:32-0500
_audit_creation_method            fapswitch 2.2
_symmetry_space_group_name_H-M    P1
_symmetry_Int_Tables_number       1
_space_group_crystal_system       triclinic
_cell_length_a                    8.217353
_cell_length_b                    15.022014
_cell_length_c                    16.343084
_cell_angle_alpha                 97.157393
_cell_angle_beta                  93.064482
_cell_angle_gamma                 97.502476
_cell_volume                      1979.5615316

loop_
_atom_site_label
_atom_site_type_symbol
_atom_site_description
_atom_site_fract_x
_atom_site_fract_y
_atom_site_fract_z
_atom_type_partial_charge
P1    P     P_3+3 0.987090 0.708160 0.571840 0.476883
O1    O     O_2   0.162600 0.722340 0.548210 -0.350846
O2    O     O_3   0.890740 0.608910 0.545450 -0.393887
O3    O     O_3   0.394140 0.666560 0.400120 -0.389303
O4    O     O_2   0.298323 0.822638 0.449520 -0.357354
O5    O     O_3   0.009528 0.738681 0.679088 -0.574784
O6    O     O_3   0.381335 0.798853 0.297176 -0.535174
H1    H     H_    0.333748 0.665179 0.244761 0.161846
C1    C     C_3   0.418172 0.750872 0.155592 -0.849044
H2    H     H_    0.292495 0.763715 0.136524 0.309766
H3    H     H_    0.506856 0.812609 0.152403 0.244807
P2    P     P_3+3 0.349530 0.428340 0.313070 0.492863
P3    P     P_3+3 0.945939 0.614779 0.250090 0.541607
O7    O     O_2   0.182040 0.455730 0.301660 -0.304186
O8    O     O_3   0.971540 0.620730 0.357730 -0.358432
O9    O     O_2   0.076342 0.559787 0.212335 -0.341845
O10   O     O_3   0.313200 0.310343 0.289427 -0.586360
O11   O     O_3   0.006037 0.724356 0.226577 -0.473895
C2    C     C_3   0.870586 0.772247 0.235111 0.190049
H4    H     H_    0.767921 0.739752 0.189963 0.052915
C3    C     C_3   0.914693 0.869851 0.217528 -0.558607
C4    C     C_3   0.708503 0.298772 0.273166 0.442116
C5    C     C_3   0.590439 0.217953 0.229525 -0.890504
H5    H     H_    0.531271 0.180090 0.275912 0.256398
H6    H     H_    0.494953 0.240230 0.189057 0.218493
H7    H     H_    0.658121 0.171093 0.190722 0.285165
Ba1   Ba    Ba6+2 0.163640 0.544330 0.462610 1.589732
C6    C     C_3   0.023716 0.665104 0.722113 0.231521
H8    H     H_    0.920383 0.609815 0.703893 0.126121
C7    C     C_3   0.020153 0.701316 0.813660 -0.617458
H9    H     H_    0.901633 0.727561 0.823773 0.227855
C8    C     C_3   0.242068 0.271191 0.354589 0.279969
H10   H     H_    0.331981 0.280228 0.409176 0.131390
C9    C     C_3   0.190037 0.169447 0.327673 -0.744190
H11   H     H_    0.119354 0.139908 0.375540 0.217533
P4    P     P_3+3 0.823210 0.291830 0.428100 0.480102
O12   O     O_2   0.647690 0.277600 0.451760 -0.393122
O13   O     O_3   0.919560 0.391080 0.454480 -0.381996
O14   O     O_3   0.416160 0.333430 0.599820 -0.376372
O15   O     O_3   0.828397 0.265386 0.320353 -0.543053
P5    P     P_3+3 0.854610 0.376829 0.748999 0.457529
O16   O     O_3   0.378690 0.546410 0.598120 -0.377484
O17   O     O_3   0.838760 0.379260 0.642200 -0.371138
O18   O     O_2   0.730559 0.435291 0.788523 -0.410978
O19   O     O_3   0.786892 0.267215 0.769369 -0.507617
Ba2   Ba    Ba6+2 0.646540 0.455660 0.537320 1.554844
P6    P     P_3+3 0.431811 0.782476 0.399137 0.459680
C10   C     C_3   0.423183 0.726572 0.243186 0.475716
O20   O     O_3   0.431610 0.453580 0.401810 -0.394536
C11   C     C_3   0.541661 0.736165 0.680966 0.283524
H12   H     H_    0.480880 0.715880 0.617660 0.110686
C12   C     C_3   0.523326 0.835653 0.707997 -0.494525
H13   H     H_    0.389755 0.841928 0.704068 0.166870
P7    P     P_3+3 0.449419 0.569138 0.702016 0.450398
O21   O     O_2   0.628260 0.544210 0.698310 -0.373006
O22   O     O_3   0.466651 0.684608 0.738042 -0.583015
C13   C     C_3   0.843740 0.203930 0.710493 0.330988
H14   H     H_    0.751033 0.185284 0.657126 0.147818
H15   H     H_    0.962482 0.229925 0.686885 0.031885
C14   C     C_3   0.870063 0.119279 0.749572 -0.721388
P8    P     P_3+3 0.375177 0.215823 0.598435 0.440664
C15   C     C_3   0.361474 0.249626 0.755479 0.439589
H16   H     H_    0.228137 0.249647 0.740638 0.016484
O23   O     O_2   0.499064 0.173234 0.543068 -0.392759
O24   O     O_3   0.427423 0.190119 0.697126 -0.534574
C16   C     C_3   0.382165 0.219363 0.840342 -0.936660
C17   C     C_R   0.161378 0.171095 0.557397 0.169289
C18   C     C_R   0.092624 0.078228 0.550193 -0.037433
C19   C     C_R   0.955155 0.890704 0.531326 -0.053888
C20   C     C_R   0.104420 0.923476 0.578403 -0.067479
C21   C     C_R   0.172810 0.014538 0.586341 -0.159114
C22   C     C_R   0.888760 0.796801 0.520878 0.249561
H17   H     H_    0.171477 0.879381 0.610034 0.182135
C23   C     C_R   0.735546 0.770066 0.477098 -0.494047
C24   C     C_R   0.919882 0.206372 0.481684 0.249043
C25   C     C_R   0.855345 0.112617 0.469531 -0.054511
C26   C     C_R   0.937939 0.048555 0.505833 0.055653
C27   C     C_R   0.712075 0.081289 0.419722 -0.018093
C28   C     C_R   0.638794 0.991615 0.410481 -0.075201
C29   C     C_R   0.713453 0.925198 0.448985 -0.011898
C30   C     C_R   0.868749 0.954475 0.495080 0.098160
C31   C     C_R   0.644393 0.831632 0.443251 0.162061
C32   C     C_R   0.069976 0.233902 0.527170 -0.541613
H18   H     H_    0.682872 0.699593 0.472149 0.178687
H19   H     H_    0.121739 0.304642 0.533983 0.183390
C33   C     C_R   0.629381 0.531467 0.264852 -0.546104
C34   C     C_R   0.473859 0.484612 0.239057 0.256848
C35   C     C_R   0.419836 0.472328 0.155467 -0.232789
C36   C     C_R   0.522790 0.505213 0.096307 0.053072
C37   C     C_R   0.684707 0.548829 0.121885 -0.233715
C38   C     C_R   0.736929 0.562273 0.207608 0.216326
C39   C     C_R   0.383290 0.499262 0.850059 -0.208061
C40   C     C_R   0.329900 0.499396 0.767611 0.285371
C41   C     C_R   0.278517 0.457095 0.904404 0.210938
N1    N     N_2   0.469081 0.497015 0.010730 -0.079303
N2    N     N_2   0.325184 0.459630 0.990380 -0.048561
C42   C     C_R   0.173826 0.457235 0.737827 -0.524455
C43   C     C_R   0.066145 0.418649 0.790786 0.220921
C44   C     C_R   0.118698 0.417070 0.873756 -0.311722
H20   H     H_    0.132431 0.459957 0.674314 0.175604
H21   H     H_    0.141945 0.639851 0.710585 0.106387
H22   H     H_    0.121358 0.758656 0.830615 0.244536
C45   C     C_2   0.035387 0.630810 0.869216 0.559207
H23   H     H_    0.942057 0.572151 0.864555 0.041516
O25   O     O_2   0.149134 0.640751 0.922155 -0.528713
H24   H     H_    0.133380 0.303094 0.371924 0.137810
C46   C     C_2   0.090101 0.150675 0.246192 0.854980
H25   H     H_    0.142363 0.172501 0.191205 0.032506
O26   O     O_2   0.950788 0.109672 0.240823 -0.575609
H26   H     H_    0.299122 0.133795 0.322794 0.179939
H27   H     H_    0.547487 0.711087 0.260268 -0.026830
H28   H     H_    0.451484 0.694238 0.112268 0.214586
H29   H     H_    0.674068 0.727854 0.680055 0.091194
C47   C     C_2   0.589356 0.865701 0.796204 0.608348
H30   H     H_    0.506634 0.886177 0.842435 0.047924
O27   O     O_2   0.734926 0.866962 0.816671 -0.579490
C48   C     C_2   0.609438 0.895882 0.652665 0.406568
H31   H     H_    0.742179 0.902956 0.652113 0.051795
O28   O     O_2   0.531720 0.938556 0.609505 -0.599852
H32   H     H_    0.808494 0.906508 0.232433 0.180262
C49   C     C_2   0.721045 0.084840 0.791459 0.779655
H33   H     H_    0.603742 0.064591 0.756097 0.028057
O29   O     O_2   0.730363 0.080081 0.865537 -0.564100
H34   H     H_    0.895885 0.065482 0.700935 0.144362
H35   H     H_    0.978799 0.135610 0.795052 0.227846
H36   H     H_    0.427904 0.319339 0.758131 0.141115
H37   H     H_    0.324297 0.263650 0.886400 0.222938
H38   H     H_    0.514813 0.223745 0.859686 0.292570
H39   H     H_    0.829762 0.774001 0.299123 0.078658
H40   H     H_    0.322292 0.148393 0.838681 0.257146
H41   H     H_    0.288188 0.034776 0.622745 0.207768
C50   C     C_2   0.484670 0.975444 0.358197 0.534131
H42   H     H_    0.368365 0.963114 0.385668 0.093409
O30   O     O_2   0.486584 0.982914 0.284666 -0.590392
H43   H     H_    0.651616 0.127034 0.387113 0.155717
H44   H     H_    0.503831 0.534987 0.871840 0.147115
C51   C     C_2   0.794560 0.576247 0.056674 0.564232
H45   H     H_    0.761490 0.549906 0.992252 0.004015
O31   O     O_2   0.921442 0.628879 0.072540 -0.528235
H46   H     H_    0.298494 0.435733 0.136816 0.187534
H47   H     H_    0.034388 0.387363 0.914796 0.166971
H48   H     H_    0.670287 0.539859 0.329739 0.183681
C52   C     C_2   0.062671 0.915273 0.272027 0.749412
H49   H     H_    0.184540 0.904317 0.255102 0.117319
O32   O     O_2   0.046403 0.963087 0.336145 -0.633934
C53   C     C_2   0.939434 0.872273 0.126822 0.674380
H50   H     H_    0.838999 0.843704 0.081426 0.030603
O33   O     O_2   0.069105 0.905907 0.103114 -0.568206
H51   H     H_    0.641813 0.346743 0.310693 0.057425
C54   C     C_2   0.789361 0.345872 0.206881 0.510935
H52   H     H_    0.714383 0.373365 0.162427 -0.041260
O34   O     O_2   0.937117 0.350105 0.199657 -0.532715

loop_
_geom_bond_atom_site_label_1
_geom_bond_atom_site_label_2
_geom_bond_distance
_ccdc_geom_bond_type
C2    H39   1.113845 S    
C34   C35   1.395826 A    
C4    C54   1.503605 S    
C17   C32   1.399950 A    
C36   N1    1.429292 S    
C19   C22   1.430276 A    
C46   O26   1.220357 D    
C2    H4    1.109323 S    
O6    C10   1.402502 S    
O3    Ba1   2.787106 S    
C47   H30   1.085883 S    
C13   H14   1.109895 S    
C51   O31   1.218258 D    
Ba2   O20   2.752290 S    
O19   C13   1.408518 S    
P3    O11   1.751216 S    
C9    C46   1.502078 S    
P4    O12   1.508372 D    
C2    C3    1.530042 S    
C25   C27   1.388364 A    
O11   C2    1.405914 S    
C3    H32   1.113076 S    
C33   C38   1.399968 A    
C48   O28   1.219746 D    
C7    H9    1.110190 S    
C9    H11   1.101834 S    
C13   H15   1.109823 S    
Ba1   O13   2.833680 S    
C52   H49   1.080648 S    
C42   C43   1.393206 A    
C16   H37   1.109692 S    
P1    O1    1.508098 D    
O16   Ba2   2.893116 S    
C5    H7    1.111629 S    
C14   H34   1.110270 S    
C35   H46   1.082566 S    
P7    C40   1.826250 S    
C6    H21   1.105119 S    
O5    C6    1.395780 S    
N1    N2    1.249877 D    
C50   H42   1.081502 S    
Ba2   O21   2.817240 S    
C11   C12   1.533885 S    
C46   H25   1.085095 S    
P4    Ba2   3.386146 S    
C20   C21   1.396827 A    
O7    Ba1   2.817102 S    
C27   H43   1.074791 S    
C15   O24   1.404124 S    
C12   C48   1.497388 S    
C1    H28   1.109718 S    
C4    H51   1.106642 S    
C8    H24   1.101192 S    
P3    C38   1.853721 S    
P5    O17   1.748612 S    
C39   H44   1.082472 S    
C23   C31   1.409423 A    
C44   H47   1.082833 S    
P2    O20   1.547131 S    
C53   O33   1.221940 D    
O14   P8    1.751848 S    
P7    O22   1.745844 S    
P1    C22   1.898686 S    
C49   O29   1.220570 D    
C15   C16   1.520274 S    
P2    Ba1   3.372716 S    
C17   C18   1.423150 A    
P4    O15   1.760275 S    
C25   C26   1.417221 A    
C3    C52   1.501192 S    
C29   C31   1.435121 A    
C15   H36   1.110591 S    
C33   C34   1.392806 A    
C13   C14   1.526813 S    
C11   O22   1.402402 S    
P1    O5    1.749152 S    
P1    O2    1.590832 S    
O6    P6    1.750487 S    
C7    C45   1.491289 S    
P8    O23   1.545574 D    
C24   C25   1.424159 A    
H1    C10   1.105557 S    
C15   H16   1.109523 S    
P4    C24   1.875646 S    
O4    P6    1.546227 D    
P8    C17   1.855074 S    
O8    Ba1   2.724155 S    
C26   C30   1.438424 A    
C5    H5    1.099673 S    
C4    O15   1.400381 S    
C7    H22   1.113183 S    
C20   H17   1.076961 S    
C39   C41   1.418047 A    
C11   H12   1.113191 S    
C45   O25   1.220419 D    
C41   N2    1.431112 S    
C1    H3    1.110631 S    
C49   H33   1.084303 S    
O1    Ba1   2.860571 S    
O14   Ba2   2.786580 S    
Ba1   Ba2   4.503205 S    
C22   C23   1.399426 A    
C32   H19   1.081658 S    
P2    O7    1.495959 D    
P3    O8    1.750209 S    
C9    H26   1.104119 S    
P5    O18   1.546107 D    
C54   O34   1.220332 D    
P4    O13   1.590812 S    
C6    H8    1.107556 S    
C40   C42   1.388239 A    
C42   H20   1.082265 S    
C12   H13   1.112979 S    
C33   H48   1.082116 S    
C53   H50   1.085559 S    
C1    H2    1.110617 S    
C18   C26   1.418787 A    
C52   O32   1.218342 D    
P7    O21   1.565626 D    
C14   H35   1.112356 S    
P2    C34   1.839261 S    
P5    C43   1.834014 S    
P6    C31   1.874143 S    
C23   H18   1.081604 S    
C29   C30   1.434408 A    
C47   O27   1.221826 D    
C12   C47   1.505506 S    
C37   C51   1.495156 S    
C51   H45   1.084639 S    
O2    Ba2   2.834273 S    
C54   H52   1.082301 S    
C11   H29   1.111918 S    
C3    C53   1.511279 S    
O2    Ba1   2.892816 S    
C36   C37   1.420903 A    
C48   H31   1.082682 S    
C8    H10   1.110561 S    
P2    O10   1.749043 S    
C27   C28   1.388445 A    
Ba1   O16   2.752879 S    
C24   C32   1.391766 A    
C37   C38   1.424870 A    
C41   C44   1.409101 A    
C18   C21   1.400856 A    
C28   C50   1.464711 S    
C6    C7    1.530131 S    
C39   C40   1.394925 A    
C16   H38   1.109790 S    
C5    H6    1.110529 S    
C14   C49   1.499402 S    
O17   Ba2   2.724749 S    
C19   C20   1.409179 A    
O13   Ba2   2.893649 S    
C19   C30   1.430675 A    
C21   H41   1.079184 S    
C28   C29   1.429283 A    
P8    O24   1.749106 S    
C10   H27   1.105963 S    
C35   C36   1.411361 A    
C1    C10   1.520570 S    
C50   O30   1.221529 D    
C43   C44   1.404920 A    
P3    O9    1.544747 D    
C45   H23   1.082125 S    
P1    Ba1   3.385678 S    
O10   C8    1.398057 S    
P5    O19   1.746133 S    
C4    C5    1.525301 S    
O12   Ba2   2.861121 S    
O16   P7    1.742327 S    
Ba1   O20   2.893945 S    
C8    C9    1.534269 S    
C16   H40   1.110755 S    
O3    P6    1.730586 S    
