data_mof_unit_29663.cif
_audit_creation_date              2012-12-10T18:31:53-0500
_audit_creation_method            fapswitch 2.2
_symmetry_space_group_name_H-M    P1
_symmetry_Int_Tables_number       1
_space_group_crystal_system       triclinic
_cell_length_a                    10.680344
_cell_length_b                    14.9216
_cell_length_c                    15.354019
_cell_angle_alpha                 80.858142
_cell_angle_beta                  89.937255
_cell_angle_gamma                 105.363002
_cell_volume                      2327.13081073

loop_
_atom_site_label
_atom_site_type_symbol
_atom_type_description
_atom_site_fract_x
_atom_site_fract_y
_atom_site_fract_z
_atom_type_partial_charge
C1    C     C_R   0.478450 0.439916 0.663307 0.851652
C2    C     C_3   0.120773 0.501517 0.497888 0.073829
C3    C     C_3   0.071079 0.499188 0.402809 0.398536
C4    C     C_3   0.104989 0.593056 0.529197 -0.354531
C5    C     C_R   0.468480 0.401024 0.758874 -0.125237
C6    C     C_R   0.554981 0.596496 0.243558 -0.149827
C7    C     C_R   0.394061 0.281860 0.892029 0.070262
C8    C     C_R   0.396628 0.308035 0.797880 0.073328
C9    C     C_R   0.531797 0.464334 0.812392 -0.293005
C10   C     C_R   0.536768 0.438919 0.902841 0.038492
C11   C     C_R   0.479155 0.343789 0.942051 0.058755
C12   C     C_R   0.742033 0.501012 0.501400 0.841686
C13   C     C_R   0.589040 0.508144 0.956510 0.096912
C14   C     C_R   0.564345 0.482477 0.048117 0.063262
C15   C     C_R   0.533264 0.386324 0.085167 -0.259060
C16   C     C_R   0.505502 0.316954 0.031623 0.079016
C17   C     C_R   0.658820 0.602500 0.922970 -0.251560
C18   C     C_R   0.690907 0.670192 0.978152 -0.201561
C19   C     C_R   0.648292 0.647449 0.067095 0.071730
C20   C     C_R   0.579699 0.553409 0.100770 0.030169
C21   C     C_R   0.673194 0.716324 0.123001 0.535092
C22   C     C_R   0.631109 0.688431 0.212995 -0.331563
C23   C     C_R   0.523148 0.559492 0.337280 0.894009
C24   C     C_R   0.524125 0.532151 0.185758 -0.307115
C25   C     C_R   0.728382 0.852566 0.609040 -0.289743
C26   C     C_R   0.680149 0.758612 0.600319 0.002076
C27   C     C_R   0.509649 0.793321 0.514268 -0.010249
C28   C     C_R   0.560932 0.891061 0.513138 0.010667
C29   C     C_R   0.670103 0.919381 0.564646 0.090195
C30   C     C_R   0.508348 0.961003 0.463552 -0.143319
C31   C     C_R   0.551115 0.055324 0.480281 -0.097893
C32   C     C_R   0.669165 0.082469 0.524010 0.535818
C33   C     C_R   0.724385 0.014369 0.567815 -0.302015
C34   C     C_R   0.257439 0.499562 0.499495 0.870508
C35   C     C_R   0.421625 0.942094 0.394077 0.481693
C36   C     C_R   0.359993 0.009853 0.354616 0.022965
C37   C     C_R   0.387067 0.098340 0.383409 -0.012703
C38   C     C_R   0.479206 0.120382 0.448425 -0.015151
C39   C     C_R   0.324995 0.166401 0.347562 -0.401168
C40   C     C_R   0.340166 0.249050 0.382760 0.694616
C41   C     C_R   0.493247 0.206247 0.481179 -0.117166
C42   C     C_3   0.896499 0.417434 0.562790 -0.431056
C43   C     C_3   0.038851 0.415521 0.561902 -0.543709
C44   C     C_3   0.926094 0.502774 0.402554 -0.129673
C45   C     C_3   0.962718 0.594078 0.531271 -0.420427
C46   C     C_3   0.879465 0.504798 0.498889 0.077903
H1    H     H_    0.835890 0.351181 0.544050 0.237352
H2    H     H_    0.162064 0.656995 0.484197 0.220617
H3    H     H_    0.458330 0.463484 0.208566 0.199736
H4    H     H_    0.661845 0.736536 0.259410 0.161822
H5    H     H_    0.745329 0.741135 0.949988 0.191423
H6    H     H_    0.576914 0.535569 0.781770 0.172383
H7    H     H_    0.863631 0.419276 0.631207 0.179611
H8    H     H_    0.540010 0.364652 0.155314 0.156870
H9    H     H_    0.693451 0.625852 0.855035 0.139906
H10   H     H_    0.813296 0.036693 0.601970 0.164534
H11   H     H_    0.555159 0.224323 0.534697 0.199749
H12   H     H_    0.813516 0.873326 0.647157 0.141184
H13   H     H_    0.729331 0.707177 0.629493 0.125751
H14   H     H_    0.420101 0.763776 0.484937 0.200730
H15   H     H_    0.074899 0.416607 0.629822 0.185875
H16   H     H_    0.264670 0.157352 0.291699 0.167538
H17   H     H_    0.046545 0.349067 0.541303 0.193821
H18   H     H_    0.866611 0.435644 0.383935 0.113731
H19   H     H_    0.071127 0.429743 0.386041 0.034591
H20   H     H_    0.951731 0.659331 0.489333 0.180200
H21   H     H_    0.930790 0.595780 0.599944 0.176387
H22   H     H_    0.142367 0.597286 0.596548 0.170511
N1    N     N_R   0.573860 0.731700 0.552730 -0.116139
N2    N     N_R   0.426060 0.268290 0.447230 -0.154203
O1    O     O_R   0.462770 0.383110 0.605620 -0.620957
O2    O     O_R   0.510160 0.531900 0.639510 -0.615782
O3    O     O_R   0.661510 0.425600 0.483070 -0.619659
O4    O     O_R   0.708900 0.574390 0.516960 -0.636041
O5    O     O_R   0.489840 0.468100 0.360490 -0.581907
O6    O     O_R   0.537230 0.616890 0.394380 -0.601553
O7    O     O_R   0.291100 0.425610 0.483040 -0.602787
O8    O     O_R   0.338490 0.574400 0.516930 -0.620992
Zn1   Zn    Zn3+2 0.468350 0.400660 0.477370 0.958215
Zn2   Zn    Zn3+2 0.531650 0.599340 0.522630 0.934339
C47   C     C_3   0.901831 0.584521 0.333192 -0.317025
C48   C     C_3   0.891553 0.560183 0.239071 -0.341523
C49   C     C_3   0.956439 0.645305 0.169702 -0.818926
H23   H     H_    0.918780 0.706258 0.177263 0.275392
H24   H     H_    0.063221 0.665406 0.176905 0.272444
H25   H     H_    0.936288 0.627730 0.102602 0.245364
H26   H     H_    0.935174 0.501860 0.232611 0.209046
H27   H     H_    0.787554 0.534612 0.224728 0.216802
H28   H     H_    0.809633 0.600402 0.349327 0.159522
H29   H     H_    0.978359 0.651011 0.335628 0.251852
O9    O     O_3   0.152054 0.575971 0.343527 -0.605187
C50   C     C_3   0.214699 0.544253 0.278345 -0.312038
H30   H     H_    0.144423 0.508475 0.233587 0.155556
H31   H     H_    0.270468 0.495443 0.308429 0.210199
H32   H     H_    0.283237 0.606040 0.238002 0.191998
C51   C     C_3   0.517381 0.219210 0.070264 -0.447591
C52   C     C_3   0.654575 0.221864 0.102223 -0.301774
C53   C     C_3   0.662221 0.124202 0.145698 -0.941826
H33   H     H_    0.596327 0.099386 0.205735 0.264674
H34   H     H_    0.634400 0.073235 0.099060 0.257796
H35   H     H_    0.763142 0.127409 0.165379 0.250712
H36   H     H_    0.726049 0.247796 0.045081 0.221759
H37   H     H_    0.682127 0.270134 0.151285 0.215631
H38   H     H_    0.445034 0.188705 0.126526 0.200633
H39   H     H_    0.498655 0.171922 0.020021 0.202302
C54   C     C_3   0.289603 0.196173 0.940551 -0.448832
C55   C     C_3   0.149030 0.199955 0.922130 -0.321376
C56   C     C_3   0.054293 0.149031 0.000339 -0.911663
H40   H     H_    0.057850 0.074585 0.017643 0.270287
H41   H     H_    0.078879 0.184762 0.058710 0.259610
H42   H     H_    0.953752 0.149905 0.982675 0.253330
H43   H     H_    0.144039 0.274296 0.907168 0.226619
H44   H     H_    0.115064 0.163938 0.865381 0.230304
H45   H     H_    0.305486 0.129602 0.925346 0.176753
H46   H     H_    0.295848 0.192096 0.012635 0.222075
C57   C     C_3   0.327712 0.236492 0.740621 -0.385199
C58   C     C_3   0.208327 0.260134 0.696098 -0.334271
C59   C     C_3   0.134841 0.180758 0.648586 -0.893819
H47   H     H_    0.197999 0.171778 0.594866 0.262198
H48   H     H_    0.102832 0.113539 0.695718 0.253865
H49   H     H_    0.047252 0.197681 0.619269 0.255693
H50   H     H_    0.141318 0.272615 0.745047 0.199752
H51   H     H_    0.236998 0.325614 0.647376 0.237626
H52   H     H_    0.397819 0.229826 0.690296 0.211964
H53   H     H_    0.296706 0.164607 0.779400 0.192322
O10   O     O_3   0.753136 0.805595 0.090847 -0.623218
C60   C     C_3   0.702655 0.876665 0.115534 -0.370128
H54   H     H_    0.729305 0.887947 0.183541 0.170450
H55   H     H_    0.595522 0.861602 0.108828 0.157006
H56   H     H_    0.747935 0.943695 0.070818 0.204183
O11   O     O_3   0.279184 0.315899 0.345649 -0.593774
C61   C     C_3   0.142763 0.278140 0.355707 -0.418498
H57   H     H_    0.096605 0.323217 0.309370 0.178315
H58   H     H_    0.109620 0.276858 0.424523 0.183236
H59   H     H_    0.105950 0.206474 0.338757 0.146459
C62   C     C_3   0.260173 0.983610 0.285136 -0.371209
C63   C     C_3   0.120935 0.956875 0.325480 -0.345994
C64   C     C_3   0.020668 0.931277 0.256447 -0.877965
H60   H     H_    0.029710 0.992321 0.202695 0.261507
H61   H     H_    0.034300 0.870385 0.227968 0.274329
H62   H     H_    0.921375 0.911644 0.287916 0.242398
H63   H     H_    0.107900 0.895273 0.379261 0.231844
H64   H     H_    0.102476 0.016038 0.354451 0.215861
H65   H     H_    0.274913 0.041340 0.227686 0.172368
H66   H     H_    0.272625 0.922988 0.255919 0.245031
O12   O     O_3   0.740900 0.175422 0.516131 -0.636422
C65   C     C_3   0.809589 0.200893 0.433345 -0.385489
H67   H     H_    0.872908 0.153835 0.425866 0.165724
H68   H     H_    0.873584 0.273338 0.428387 0.171456
H69   H     H_    0.742341 0.200965 0.378058 0.184634
O13   O     O_3   0.398339 0.858394 0.361319 -0.629372
C66   C     C_3   0.498323 0.865611 0.298507 -0.378147
H70   H     H_    0.593375 0.871374 0.329813 0.172210
H71   H     H_    0.506080 0.925995 0.244107 0.154395
H72   H     H_    0.474061 0.800591 0.268620 0.213485

loop_
_geom_bond_atom_site_label_1
_geom_bond_atom_site_label_2
_ccdc_geom_bond_type
C51   H39   S    
O10   C60   S    
C12   O4    A    
C55   H43   S    
C65   H67   S    
C23   O6    A    
C63   H63   S    
O1    Zn1   S    
C52   C53   S    
C43   H17   S    
C7    C8    A    
C45   C46   S    
C44   H18   S    
C7    C11   A    
C1    O1    A    
C40   N2    A    
C30   C35   A    
C54   H45   S    
C49   H23   S    
C1    C5    S    
C36   C37   A    
C65   H68   S    
C27   H14   S    
C42   H7    S    
C30   C31   A    
C62   H65   S    
O8    Zn2   S    
C32   O12   S    
C54   C55   S    
C15   C16   A    
C6    C22   A    
C29   C33   A    
C57   C58   S    
C3    O9    S    
C18   C19   A    
C42   C46   S    
C59   H47   S    
C55   H44   S    
C35   C36   A    
C61   H57   S    
C45   H21   S    
C55   C56   S    
C56   H40   S    
C9    C10   A    
C17   H9    S    
C52   H36   S    
C27   N1    A    
C22   H4    S    
C47   H28   S    
C2    C34   S    
C33   H10   S    
C63   H64   S    
O4    Zn2   S    
C21   C22   A    
C3    H19   S    
C9    H6    S    
C35   O13   S    
C36   C62   S    
C12   O3    A    
C44   C46   S    
C18   H5    S    
C47   C48   S    
C4    C45   S    
O7    Zn1   S    
C25   C29   A    
C3    C44   S    
C16   C51   S    
C1    O2    A    
C15   H8    S    
C20   C24   A    
C65   H69   S    
C38   C41   A    
C12   C46   S    
C44   C47   S    
C10   C11   A    
C39   C40   A    
C4    H22   S    
C25   C26   A    
C10   C13   A    
C50   H32   S    
C59   H49   S    
C2    C4    S    
C58   H50   S    
C60   H55   S    
C5    C9    A    
C37   C38   A    
C14   C20   A    
C11   C16   A    
C31   C32   A    
C66   H72   S    
C2    C43   S    
O13   C66   S    
C6    C24   A    
C51   C52   S    
C50   H31   S    
C17   C18   A    
O3    Zn1   S    
C7    C54   S    
C52   H37   S    
C64   H61   S    
C47   H29   S    
C61   H58   S    
C49   H24   S    
C40   O11   S    
C66   H71   S    
C48   C49   S    
C53   H34   S    
C57   H53   S    
C51   H38   S    
C42   C43   S    
O11   C61   S    
O9    C50   S    
C43   H15   S    
O12   C65   S    
C4    H2    S    
C24   H3    S    
C39   H16   S    
C28   C29   A    
C57   H52   S    
C19   C21   A    
N2    Zn1   S    
O6    Zn2   S    
C23   O5    A    
C62   C63   S    
C64   H62   S    
C5    C8    A    
C56   H42   S    
C60   H54   S    
C53   H35   S    
C63   C64   S    
C62   H66   S    
C31   C38   A    
C13   C17   A    
C54   H46   S    
C34   O7    A    
C32   C33   A    
C19   C20   A    
C28   C30   A    
C2    C3    S    
C58   H51   S    
C60   H56   S    
C41   H11   S    
O2    Zn2   S    
C58   C59   S    
C34   O8    A    
C61   H59   S    
C48   H27   S    
C6    C23   S    
C50   H30   S    
C56   H41   S    
C42   H1    S    
C59   H48   S    
C64   H60   S    
C8    C57   S    
C49   H25   S    
C66   H70   S    
C37   C39   A    
C53   H33   S    
C25   H12   S    
C45   H20   S    
C26   N1    A    
C14   C15   A    
N1    Zn2   S    
C21   O10   S    
C13   C14   A    
O5    Zn1   S    
C48   H26   S    
C26   H13   S    
C41   N2    A    
C27   C28   A    
