data_mof_unit_40833.cif
_audit_creation_date              2012-12-10T18:09:54-0500
_audit_creation_method            fapswitch 2.2
_symmetry_space_group_name_H-M    P1
_symmetry_Int_Tables_number       1
_space_group_crystal_system       triclinic
_cell_length_a                    10.945883
_cell_length_b                    12.68202
_cell_length_c                    13.424822
_cell_angle_alpha                 83.648762
_cell_angle_beta                  96.982697
_cell_angle_gamma                 101.967582
_cell_volume                      1802.53761745

loop_
_atom_site_label
_atom_site_type_symbol
_atom_type_description
_atom_site_fract_x
_atom_site_fract_y
_atom_site_fract_z
_atom_type_partial_charge
Br1   Br    Br    0.806230 0.337627 0.351788 -0.319948
Br2   Br    Br    0.905052 0.432628 0.725296 -0.246933
Br3   Br    Br    0.203551 0.507864 0.723537 -0.364307
Br4   Br    Br    0.632292 0.883496 0.029661 -0.394641
Br5   Br    Br    0.251558 0.145326 0.950509 -0.341893
Br6   Br    Br    0.802808 0.251594 0.569899 -0.371498
Br7   Br    Br    0.747825 0.581165 0.817583 -0.380528
Br8   Br    Br    0.292683 0.295061 0.261492 -0.426070
Br9   Br    Br    0.095556 0.284073 0.618600 -0.290026
Br10  Br    Br    0.070537 0.284453 0.397017 -0.262669
Br11  Br    Br    0.938137 0.675855 0.636677 -0.385321
C1    C     C_R   0.489487 0.441216 0.691134 0.951112
C2    C     C_R   0.453097 0.464787 0.963171 0.039020
C3    C     C_R   0.503899 0.486845 0.870203 0.060569
C4    C     C_R   0.741969 0.497778 0.506304 0.966202
C5    C     C_R   0.485027 0.545259 0.032210 0.069054
C6    C     C_R   0.541136 0.653109 0.000228 0.051901
C7    C     C_R   0.588354 0.672779 0.907093 -0.193740
C8    C     C_R   0.588174 0.585586 0.853520 0.241004
C9    C     C_R   0.479138 0.517412 0.134335 -0.204262
C10   C     C_R   0.556428 0.703305 0.170261 -0.125943
C11   C     C_R   0.472430 0.409049 0.798216 -0.115994
C12   C     C_3   0.119439 0.495224 0.498533 -0.339552
C13   C     C_R   0.369099 0.100832 0.316071 -0.216789
C14   C     C_R   0.642297 0.797404 0.640657 0.052447
C15   C     C_R   0.664906 0.898382 0.677551 -0.174132
C16   C     C_R   0.512736 0.559220 0.309897 0.948201
C17   C     C_R   0.609441 0.979887 0.624992 -0.111940
C18   C     C_R   0.534677 0.961537 0.532844 0.033458
C19   C     C_R   0.515903 0.856902 0.498391 0.231122
C20   C     C_R   0.478392 0.042318 0.473827 0.002291
C21   C     C_R   0.414906 0.019097 0.377194 0.027334
C22   C     C_R   0.398631 0.915131 0.343491 -0.114429
C23   C     C_3   0.067731 0.571168 0.405255 -0.218440
C24   C     C_R   0.445414 0.835290 0.406870 -0.210910
C25   C     C_R   0.484679 0.146662 0.505663 -0.016346
C26   C     C_R   0.374030 0.199105 0.351710 0.440531
C27   C     C_R   0.257353 0.499083 0.497992 1.018324
C28   C     C_3   0.894534 0.374481 0.486968 0.412343
C29   C     C_3   0.039469 0.372962 0.497823 0.390400
C30   C     C_3   0.926765 0.570991 0.417256 -0.522962
C31   C     C_3   0.956816 0.530898 0.608256 0.411981
C32   C     C_3   0.877513 0.492572 0.507152 -0.253979
C33   C     C_2   0.128081 0.692209 0.395240 0.908864
C34   C     C_3   0.098427 0.540020 0.598548 0.033050
C35   C     C_2   0.325631 0.883305 0.246213 0.994697
C36   C     C_2   0.086560 0.531602 0.305367 1.020183
C37   C     C_R   0.568714 0.733507 0.068650 0.313647
C38   C     C_R   0.515681 0.594490 0.203398 -0.102331
C39   C     C_R   0.401949 0.306161 0.824735 -0.163364
C40   C     C_R   0.354252 0.283295 0.917800 0.365170
C41   C     C_R   0.376018 0.362737 0.985137 -0.172783
H1    H     H_    0.140106 0.625733 0.594257 0.244481
H2    H     H_    0.684633 0.734400 0.680801 0.193483
H3    H     H_    0.628683 0.056354 0.657289 0.183640
H4    H     H_    0.724455 0.913125 0.747119 0.198953
H5    H     H_    0.417116 0.754123 0.386749 0.228776
H6    H     H_    0.864908 0.555239 0.346539 0.246514
H7    H     H_    0.213474 0.825982 0.463032 0.362105
H8    H     H_    0.175838 0.893394 0.144242 0.393988
H9    H     H_    0.210720 0.513758 0.211898 0.380520
H10   H     H_    0.912873 0.652934 0.429786 0.238454
H11   H     H_    0.584042 0.764252 0.223540 0.201295
H12   H     H_    0.650064 0.748729 0.887478 0.194565
H13   H     H_    0.459484 0.433689 0.161252 0.202917
H14   H     H_    0.376899 0.245586 0.770989 0.201157
H15   H     H_    0.329346 0.344169 0.052891 0.196977
H16   H     H_    0.330590 0.091353 0.239111 0.224355
H17   H     H_    0.530615 0.170277 0.577525 0.155321
N1    N     N_R   0.433240 0.222190 0.444680 -0.129782
N2    N     N_R   0.566070 0.776970 0.554790 -0.136157
O1    O     O_R   0.468120 0.366740 0.627160 -0.622864
O2    O     O_R   0.206297 0.744605 0.472113 -0.803363
O3    O     O_2   0.357995 0.818112 0.199547 -0.606897
O4    O     O_R   0.216467 0.922353 0.210331 -0.726307
O5    O     O_2   0.998098 0.503021 0.242998 -0.518794
O6    O     O_R   0.208652 0.536115 0.281775 -0.808887
O7    O     O_R   0.510770 0.544830 0.662520 -0.609659
O8    O     O_R   0.663880 0.410950 0.482330 -0.576863
O9    O     O_R   0.706530 0.589040 0.517700 -0.592946
O10   O     O_R   0.489230 0.455170 0.337480 -0.582215
O11   O     O_R   0.531880 0.633260 0.372840 -0.660486
O12   O     O_R   0.293470 0.410960 0.482300 -0.547239
O13   O     O_R   0.336120 0.589050 0.517670 -0.590713
O14   O     O_2   0.094812 0.747208 0.320070 -0.566110
Zn1   Zn    Zn3+2 0.471520 0.381090 0.476390 1.073286
Zn2   Zn    Zn3+2 0.528480 0.618910 0.523610 1.017321

loop_
_geom_bond_atom_site_label_1
_geom_bond_atom_site_label_2
_ccdc_geom_bond_type
O7    Zn2   S    
C12   C34   S    
C27   O12   A    
C6    C37   A    
C10   C38   A    
C19   N2    A    
C9    C38   A    
C19   C24   A    
C17   C18   A    
C36   O5    D    
O9    Zn2   S    
O11   Zn2   S    
C1    C11   S    
Br11  C31   S    
Br10  C29   S    
C7    C8    A    
C4    O8    A    
C4    O9    A    
H9    O6    S    
C5    C6    A    
C1    O7    A    
O13   Zn2   S    
C14   N2    A    
H7    O2    S    
O10   Zn1   S    
C11   C39   A    
C10   C37   A    
C1    O1    A    
C34   H1    S    
C26   N1    A    
C22   C35   S    
C30   C32   S    
C23   C30   S    
C30   H10   S    
C35   O4    S    
C17   H3    S    
C25   N1    A    
C6    C7    A    
C40   C41   A    
C9    H13   S    
C16   O10   A    
C23   C33   S    
C14   H2    S    
C28   C29   S    
Br1   C28   S    
C28   C32   S    
C39   C40   A    
C14   C15   A    
Br3   C34   S    
Br9   C29   S    
C31   C34   S    
C13   C21   A    
C18   C19   A    
C2    C41   A    
C20   C21   A    
C5    C9    A    
C12   C23   S    
C13   C26   A    
C39   H14   S    
C41   H15   S    
N2    Zn2   S    
Br7   C8    S    
Br8   C26   S    
C36   O6    S    
C33   O14   D    
N1    Zn1   S    
C35   O3    D    
C25   H17   S    
Br4   C37   S    
C27   O13   A    
Br6   C28   S    
C3    C8    A    
C16   O11   A    
C15   H4    S    
C30   H6    S    
O1    Zn1   S    
C12   C27   S    
H8    O4    S    
C15   C17   A    
C24   H5    S    
C21   C22   A    
C3    C11   A    
C4    C32   S    
C18   C20   A    
C7    H12   S    
Br2   C31   S    
C22   C24   A    
C33   O2    S    
C10   H11   S    
C13   H16   S    
C16   C38   S    
O12   Zn1   S    
C31   C32   S    
C2    C5    A    
C20   C25   A    
Br5   C40   S    
C23   C36   S    
C2    C3    A    
O8    Zn1   S    
C12   C29   S    
