data_mof_unit_67692.cif
_audit_creation_date              2012-12-10T19:48:30-0500
_audit_creation_method            fapswitch 2.2
_symmetry_space_group_name_H-M    P1
_symmetry_Int_Tables_number       1
_space_group_crystal_system       triclinic
_cell_length_a                    10.854006
_cell_length_b                    10.658012
_cell_length_c                    9.496931
_cell_angle_alpha                 92.141765
_cell_angle_beta                  91.446386
_cell_angle_gamma                 92.236334
_cell_volume                      1096.62929358

loop_
_atom_site_label
_atom_site_type_symbol
_atom_type_description
_atom_site_fract_x
_atom_site_fract_y
_atom_site_fract_z
_atom_type_partial_charge
C1    C     C_R   0.497612 0.259906 0.498047 0.863571
C2    C     C_R   0.503328 0.740028 0.502016 0.876585
C3    C     C_R   0.871350 0.501159 0.505119 -0.217449
C4    C     C_R   0.128658 0.497360 0.494931 -0.150460
C5    C     C_R   0.944738 0.582725 0.597140 -0.086802
C6    C     C_R   0.055354 0.418661 0.400942 -0.003732
C7    C     C_3   0.614441 0.048316 0.490912 0.362232
C8    C     C_3   0.387854 0.951387 0.509708 0.339361
C9    C     C_3   0.549930 0.956305 0.383007 0.364617
C10   C     C_3   0.452151 0.043714 0.617160 0.348666
C11   C     C_3   0.504932 0.876377 0.504554 -0.297743
C12   C     C_3   0.497193 0.123470 0.495725 -0.256695
C13   C     C_3   0.570869 0.968662 0.614675 -0.194080
C14   C     C_3   0.430988 0.031145 0.385848 -0.187352
C15   C     C_3   0.421548 0.575978 0.051058 0.405219
C16   C     C_3   0.578416 0.424097 0.949105 0.401452
C17   C     C_3   0.393666 0.466178 0.946318 0.331021
C18   C     C_3   0.606317 0.533756 0.053904 0.330825
C19   C     C_3   0.528313 0.611148 0.956302 -0.148575
C20   C     C_3   0.471758 0.388974 0.043781 -0.090865
C21   C     C_R   0.262684 0.495097 0.497850 0.900209
C22   C     C_R   0.737329 0.504443 0.502129 0.794273
C23   C     C_R   0.096065 0.245935 0.055490 0.460058
C24   C     C_R   0.906000 0.743945 0.948210 0.453522
C25   C     C_R   0.093466 0.346099 0.155852 -0.275592
C26   C     C_R   0.906010 0.646784 0.843772 -0.317804
C27   C     C_R   0.105580 0.324811 0.300558 0.016405
C28   C     C_R   0.891560 0.672664 0.700238 -0.108169
C29   C     C_R   0.124420 0.202432 0.345757 0.406011
C30   C     C_R   0.869304 0.797497 0.661695 0.382505
C31   C     C_R   0.128844 0.101466 0.244603 0.266287
C32   C     C_R   0.868358 0.894094 0.766616 0.344803
C33   C     C_R   0.115904 0.125142 0.100284 -0.268808
C34   C     C_R   0.885449 0.866264 0.909146 -0.313975
C35   C     C_R   0.927186 0.418222 0.408841 0.400203
C36   C     C_R   0.074378 0.581211 0.590002 0.410263
Cu1   Cu    Cu3+1 0.500030 0.499990 0.643150 1.039007
Cu2   Cu    Cu3+1 0.499970 0.500010 0.356850 1.044381
H1    H     H_    0.116904 0.048502 0.022148 0.182856
H2    H     H_    0.886928 0.940718 0.990087 0.199258
H3    H     H_    0.072484 0.439090 0.122280 0.146132
H4    H     H_    0.928957 0.553011 0.872922 0.150585
H5    H     H_    0.624382 0.943501 0.709369 0.212141
H6    H     H_    0.376506 0.055965 0.291625 0.200765
N1    N     N_3   0.500090 0.499970 0.858290 -0.271572
N2    N     N_3   0.499910 0.500030 0.141710 -0.249908
O1    O     O_R   0.500060 0.316850 0.620870 -0.497581
O2    O     O_R   0.499940 0.683150 0.379130 -0.493849
O3    O     O_R   0.500000 0.316860 0.379090 -0.624871
O4    O     O_R   0.500000 0.683140 0.620910 -0.613949
O5    O     O_R   0.319670 0.500010 0.620890 -0.504212
O6    O     O_R   0.680330 0.499990 0.379110 -0.544983
O7    O     O_R   0.319620 0.500010 0.379110 -0.581189
O8    O     O_R   0.680380 0.499990 0.620890 -0.585698
O9    O     O_3   0.279657 0.426943 0.885482 -0.674669
H7    H     H_    0.230789 0.503393 0.881869 0.335043
O10   O     O_3   0.720454 0.572031 0.114920 -0.684150
H8    H     H_    0.767710 0.494623 0.120847 0.343655
O11   O     O_3   0.336409 0.656087 0.110729 -0.648026
H9    H     H_    0.295035 0.695203 0.030158 0.326044
O12   O     O_3   0.662141 0.341408 0.891261 -0.632590
H10   H     H_    0.733882 0.394864 0.864563 0.322511
C37   C     C_2   0.565291 0.738130 0.906945 0.567882
H11   H     H_    0.645893 0.749148 0.843227 0.019448
O13   O     O_2   0.505430 0.829195 0.937927 -0.471690
C38   C     C_2   0.435467 0.261779 0.093139 0.594239
H12   H     H_    0.354492 0.250027 0.156200 -0.009784
O14   O     O_2   0.496415 0.171309 0.062914 -0.437263
O15   O     O_3   0.072375 0.261547 0.913991 -0.659474
H13   H     H_    0.047535 0.348974 0.900846 0.331649
O16   O     O_3   0.933911 0.724093 0.087900 -0.670513
H14   H     H_    0.957712 0.635833 0.096822 0.327339
O17   O     O_3   0.129221 0.184176 0.489167 -0.708708
H15   H     H_    0.135159 0.093688 0.506335 0.404438
O18   O     O_3   0.858442 0.830808 0.522896 -0.691882
H16   H     H_    0.847990 0.754358 0.460824 0.326947
O19   O     O_3   0.139588 0.980333 0.288781 -0.650787
H17   H     H_    0.141060 0.921687 0.205302 0.365104
O20   O     O_3   0.856495 0.016180 0.726223 -0.620371
H18   H     H_    0.857826 0.072936 0.811477 0.361846
O21   O     O_3   0.859271 0.332601 0.321744 -0.701423
H19   H     H_    0.783040 0.306237 0.369003 0.373015
O22   O     O_3   0.152304 0.661135 0.673395 -0.730761
H20   H     H_    0.108334 0.733226 0.712553 0.334133
O23   O     O_3   0.602770 0.910285 0.259498 -0.611282
H21   H     H_    0.674486 0.862629 0.290728 0.343232
O24   O     O_3   0.398812 0.089962 0.740232 -0.618040
H22   H     H_    0.322916 0.130754 0.708684 0.354645
O25   O     O_3   0.732471 0.103716 0.480032 -0.653287
H23   H     H_    0.781568 0.041128 0.429088 0.390739
O26   O     O_3   0.269712 0.897158 0.523086 -0.647217
H24   H     H_    0.264083 0.876992 0.623706 0.352713

loop_
_geom_bond_atom_site_label_1
_geom_bond_atom_site_label_2
_ccdc_geom_bond_type
C38   O14   D    
O24   H22   S    
C4    C36   A    
Cu1   O4    S    
C27   C29   A    
O17   H15   S    
C23   O15   S    
C14   H6    S    
C13   H5    S    
C9    C14   S    
C37   O13   D    
O21   H19   S    
C35   O21   S    
C22   O8    A    
Cu2   O3    S    
O19   H17   S    
C15   C19   S    
C33   H1    S    
C34   H2    S    
C20   C38   S    
C24   C26   A    
Cu1   O5    S    
Cu2   O6    S    
C36   O22   S    
C7    O25   S    
C5    C36   A    
C17   C20   S    
C6    C35   A    
C7    C9    S    
C18   C19   S    
C2    O4    A    
C9    O23   S    
C6    C27   S    
C19   C37   S    
C23   C33   A    
C31   C33   A    
Cu1   O1    S    
C17   O9    S    
Cu2   O2    S    
C38   H12   S    
O11   H9    S    
O15   H13   S    
C1    C12   S    
C2    C11   S    
C18   N2    S    
C31   O19   S    
C7    C12   S    
C10   O24   S    
C4    C6    A    
C25   H3    S    
O26   H24   S    
C1    O1    A    
C2    O2    A    
O23   H21   S    
C24   C34   A    
C37   H11   S    
C32   C34   A    
O18   H16   S    
Cu1   Cu2   S    
C21   O7    A    
C5    C28   S    
C18   O10   S    
O22   H20   S    
C3    C35   A    
C16   C20   S    
O9    H7    S    
C8    O26   S    
C4    C21   S    
C9    C11   S    
C10   C12   S    
Cu1   O8    S    
C16   C18   S    
C12   C14   S    
C16   O12   S    
Cu1   N1    S    
C21   O5    A    
C26   H4    S    
C22   O6    A    
C15   C17   S    
C8    C14   S    
C15   O11   S    
C17   N1    S    
C3    C5    A    
C10   C13   S    
C16   N1    S    
C19   N1    S    
C25   C27   A    
C26   C28   A    
C28   C30   A    
O16   H14   S    
C29   C31   A    
C32   O20   S    
C30   C32   A    
C30   O18   S    
C11   C13   S    
O10   H8    S    
Cu2   O7    S    
C8    C11   S    
C23   C25   A    
O12   H10   S    
Cu2   N2    S    
O20   H18   S    
C7    C13   S    
C29   O17   S    
C8    C10   S    
C3    C22   S    
C15   N2    S    
O25   H23   S    
C1    O3    A    
C20   N2    S    
C24   O16   S    
