data_mof_unit_25261.cif
_audit_creation_date              2012-12-10T18:06:43-0500
_audit_creation_method            fapswitch 2.2
_symmetry_space_group_name_H-M    P1
_symmetry_Int_Tables_number       1
_space_group_crystal_system       triclinic
_cell_length_a                    12.571105
_cell_length_b                    13.136533
_cell_length_c                    15.144258
_cell_angle_alpha                 83.774463
_cell_angle_beta                  98.19489
_cell_angle_gamma                 97.656303
_cell_volume                      2443.10762741

loop_
_atom_site_label
_atom_site_type_symbol
_atom_type_description
_atom_site_fract_x
_atom_site_fract_y
_atom_site_fract_z
_atom_type_partial_charge
C1    C     C_R   0.444848 0.307845 0.514829 0.846457
C2    C     C_R   0.476634 0.610583 0.096887 0.098274
C3    C     C_R   0.373058 0.638320 0.061755 0.114735
C4    C     C_R   0.558690 0.618666 0.040566 0.017885
C5    C     C_R   0.526890 0.627014 0.946994 0.016518
C6    C     C_R   0.429127 0.670186 0.913468 0.195409
C7    C     C_R   0.352951 0.674489 0.971631 -0.247992
C8    C     C_R   0.669851 0.613424 0.072960 0.082251
C9    C     C_R   0.738558 0.587787 0.016252 -0.280457
C10   C     C_R   0.697503 0.564959 0.929284 0.134178
C11   C     C_R   0.591338 0.585244 0.893413 0.090376
C12   C     C_R   0.437389 0.517252 0.334798 0.865732
C13   C     C_R   0.759683 0.517913 0.879509 -0.251198
C14   C     C_R   0.716696 0.487215 0.794786 0.097623
C15   C     C_R   0.548065 0.550712 0.810035 -0.301206
C16   C     C_R   0.732054 0.936745 0.540788 -0.192680
C17   C     C_R   0.594196 0.801425 0.491824 -0.049309
C18   C     C_R   0.302019 0.160610 0.515469 -0.189391
C19   C     C_R   0.269613 0.056279 0.509926 -0.151884
C20   C     C_R   0.346953 0.989204 0.513249 -0.174516
C21   C     C_R   0.459058 0.025236 0.527960 0.059486
C22   C     C_R   0.490557 0.127000 0.551543 0.050135
C23   C     C_R   0.556900 0.692121 0.489362 0.861086
C24   C     C_R   0.540728 0.963446 0.520671 0.072566
C25   C     C_R   0.651084 0.998604 0.547218 0.129860
C26   C     C_R   0.678572 0.092053 0.584670 -0.249981
C27   C     C_R   0.599253 0.154262 0.591381 0.104465
C28   C     C_R   0.515581 0.867389 0.487138 -0.242659
C29   C     C_R   0.703404 0.837515 0.514074 -0.204207
C30   C     C_R   0.412355 0.197304 0.532073 -0.122084
C31   C     C_R   0.142345 0.647498 0.623325 -0.296098
C32   C     C_R   0.762161 0.369723 0.403284 0.281250
C33   C     C_R   0.852558 0.313877 0.416077 0.134320
C34   C     C_R   0.565212 0.490084 0.665072 0.854020
C35   C     C_R   0.947445 0.354552 0.467927 0.054363
C36   C     C_R   0.951182 0.451778 0.501153 -0.054822
C37   C     C_R   0.852327 0.490022 0.504467 0.116567
C38   C     C_R   0.048447 0.509950 0.534873 -0.008641
C39   C     C_R   0.045412 0.591255 0.588792 0.176186
C40   C     C_R   0.945657 0.617124 0.604161 0.009454
C41   C     C_R   0.850622 0.569310 0.559226 -0.220202
C42   C     C_R   0.148570 0.495728 0.510571 -0.018212
C43   C     C_R   0.239207 0.625805 0.600448 -0.025372
C44   C     C_R   0.410070 0.552385 0.239642 -0.083962
C45   C     C_R   0.610344 0.505853 0.758671 -0.068363
C46   C     C_R   0.290967 0.628378 0.117147 -0.189820
C47   C     C_R   0.309658 0.586314 0.205952 -0.190702
C48   C     C_R   0.491323 0.563679 0.184291 -0.209812
H1    H     H_    0.276690 0.703621 0.945790 0.155092
H2    H     H_    0.840702 0.501883 0.907494 0.137124
H3    H     H_    0.765326 0.787627 0.514919 0.145654
H4    H     H_    0.761631 0.115176 0.612378 0.154654
H5    H     H_    0.816655 0.963086 0.560654 0.132787
H6    H     H_    0.434009 0.839697 0.460474 0.150044
H7    H     H_    0.240908 0.213010 0.503464 0.160652
H8    H     H_    0.316464 0.909468 0.505981 0.130352
H9    H     H_    0.184328 0.028096 0.498036 0.137665
H10   H     H_    0.314742 0.668884 0.625660 0.145489
H11   H     H_    0.463782 0.555189 0.785609 0.194229
H12   H     H_    0.143658 0.709019 0.665776 0.174011
H13   H     H_    0.156410 0.444177 0.461803 0.146250
H14   H     H_    0.776999 0.594900 0.569856 0.216082
H15   H     H_    0.822293 0.579768 0.042179 0.144084
H16   H     H_    0.212097 0.651796 0.091471 0.132859
H17   H     H_    0.245841 0.580380 0.247970 0.155471
H18   H     H_    0.565113 0.531945 0.209070 0.171809
N1    N     N_R   0.239390 0.551900 0.544730 -0.105017
N2    N     N_R   0.759950 0.448600 0.455730 -0.141166
O1    O     O_R   0.374950 0.371210 0.521360 -0.603422
O2    O     O_R   0.542050 0.338030 0.492790 -0.617785
O3    O     O_R   0.368720 0.526070 0.390200 -0.611951
O4    O     O_R   0.535820 0.492890 0.361630 -0.608391
O5    O     O_R   0.457950 0.661970 0.507210 -0.616090
O6    O     O_R   0.625050 0.628790 0.478640 -0.629017
O7    O     O_R   0.464180 0.507110 0.638370 -0.611566
O8    O     O_R   0.631280 0.473930 0.609800 -0.612697
Zn1   Zn    Zn3+2 0.388420 0.522150 0.519080 0.934506
Zn2   Zn    Zn3+2 0.611580 0.477850 0.480920 0.918415
N3    N     N_3   0.629197 0.234947 0.650191 -0.448118
H19   H     H_    0.561889 0.264926 0.665472 0.176942
H20   H     H_    0.681095 0.292823 0.619994 0.242819
N4    N     N_3   0.940748 0.695106 0.662378 -0.477000
H21   H     H_    0.890109 0.664429 0.710228 0.192004
H22   H     H_    0.906092 0.756394 0.624500 0.180480
C49   C     C_3   0.670393 0.345395 0.330030 -0.807522
H23   H     H_    0.660395 0.416314 0.285297 0.220950
H24   H     H_    0.686364 0.288953 0.285898 0.209675
H25   H     H_    0.594329 0.313926 0.356327 0.268014
N5    N     N_3   0.036130 0.294449 0.493714 -0.477748
H26   H     H_    0.063650 0.276167 0.436061 0.178866
H27   H     H_    0.009401 0.226637 0.531161 0.192079
C50   C     C_3   0.845982 0.211474 0.376595 -0.936923
H28   H     H_    0.769722 0.162808 0.390183 0.257863
H29   H     H_    0.848317 0.224949 0.303233 0.243483
H30   H     H_    0.912318 0.165354 0.404968 0.234717
N6    N     N_3   0.779669 0.433195 0.747965 -0.446556
H31   H     H_    0.794485 0.364495 0.786758 0.187893
H32   H     H_    0.854428 0.477488 0.743384 0.189291
C51   C     C_3   0.408065 0.723852 0.820644 -0.940667
H33   H     H_    0.480382 0.734645 0.784821 0.251734
H34   H     H_    0.339194 0.679583 0.781834 0.232800
H35   H     H_    0.386277 0.802208 0.825040 0.249965
N7    N     N_3   0.715128 0.641547 0.160586 -0.463581
H36   H     H_    0.773369 0.705484 0.153165 0.194256
H37   H     H_    0.754904 0.580675 0.194198 0.174524

loop_
_geom_bond_atom_site_label_1
_geom_bond_atom_site_label_2
_ccdc_geom_bond_type
O2    Zn2   S    
C17   C29   A    
O1    Zn1   S    
C19   C20   A    
N1    Zn1   S    
C4    C8    A    
C49   H23   S    
C19   H9    S    
C26   C27   A    
C17   C23   S    
C31   C43   A    
C36   C37   A    
O8    Zn2   S    
C38   C42   A    
C3    C7    A    
C38   C39   A    
C37   N2    A    
C18   C19   A    
C16   H5    S    
C1    C30   S    
O4    Zn2   S    
C43   H10   S    
C11   C15   A    
C35   C36   A    
C8    C9    A    
N6    H32   S    
C18   C30   A    
N5    H27   S    
C9    C10   A    
C44   C47   A    
C20   H8    S    
C34   O7    A    
C32   N2    A    
C12   O4    A    
C21   C22   A    
C41   H14   S    
C23   O5    A    
C14   N6    S    
C14   C45   A    
C49   H24   S    
N2    Zn2   S    
C40   N4    S    
C24   C25   A    
C7    H1    S    
C33   C50   S    
C39   C40   A    
N3    H20   S    
C28   H6    S    
C2    C48   A    
C16   C29   A    
C50   H30   S    
C1    O1    A    
N3    H19   S    
C46   H16   S    
C31   H12   S    
C2    C4    A    
C26   H4    S    
C51   H33   S    
N6    H31   S    
C50   H29   S    
N7    H37   S    
C34   C45   S    
O7    Zn1   S    
C42   H13   S    
C18   H7    S    
C35   N5    S    
C40   C41   A    
C51   H34   S    
C12   O3    A    
N4    H22   S    
C22   C27   A    
C42   N1    A    
C15   C45   A    
C23   O6    A    
O3    Zn1   S    
C29   H3    S    
C49   H25   S    
C16   C25   A    
C46   C47   A    
C22   C30   A    
C9    H15   S    
C17   C28   A    
C15   H11   S    
C24   C28   A    
C4    C5    A    
C10   C13   A    
C5    C11   A    
C6    C7    A    
C3    C46   A    
C27   N3    S    
C1    O2    A    
C32   C33   A    
C36   C38   A    
C2    C3    A    
C25   C26   A    
C12   C44   S    
C6    C51   S    
C5    C6    A    
C32   C49   S    
C50   H28   S    
C33   C35   A    
C31   C39   A    
C37   C41   A    
C8    N7    S    
C10   C11   A    
C13   H2    S    
C51   H35   S    
C20   C21   A    
C43   N1    A    
N4    H21   S    
O6    Zn2   S    
C21   C24   A    
N7    H36   S    
O5    Zn1   S    
C48   H18   S    
N5    H26   S    
C13   C14   A    
C47   H17   S    
C44   C48   A    
C34   O8    A    
