data_mof_unit_14976.cif
_audit_creation_date              2012-12-10T18:45:02-0500
_audit_creation_method            fapswitch 2.2
_symmetry_space_group_name_H-M    P1
_symmetry_Int_Tables_number       1
_space_group_crystal_system       triclinic
_cell_length_a                    10.711469
_cell_length_b                    9.974847
_cell_length_c                    10.863514
_cell_angle_alpha                 89.99926
_cell_angle_beta                  93.965744
_cell_angle_gamma                 89.99127
_cell_volume                      1157.93577046

loop_
_atom_site_label
_atom_site_type_symbol
_atom_type_description
_atom_site_fract_x
_atom_site_fract_y
_atom_site_fract_z
_atom_type_partial_charge
C1    C     C_R   0.261108 0.499206 0.510621 0.918534
C2    C     C_R   0.738893 0.499188 0.489383 0.918446
C3    C     C_R   0.936503 0.616874 0.489850 -0.176066
C4    C     C_R   0.063447 0.616893 0.509947 -0.176190
C5    C     C_R   0.602699 0.073456 0.544894 0.424108
C6    C     C_R   0.397292 0.073489 0.455128 0.424021
C7    C     C_R   0.604596 0.930755 0.541246 -0.109853
C8    C     C_R   0.395401 0.930791 0.458773 -0.109726
C9    C     C_R   0.492196 0.501491 0.259717 0.874978
C10   C     C_R   0.507785 0.501489 0.740283 0.875090
C11   C     C_R   0.454682 0.758127 0.114843 -0.331105
C12   C     C_R   0.545156 0.758147 0.885159 -0.331161
C13   C     C_R   0.479729 0.879659 0.059091 0.469237
C14   C     C_R   0.520096 0.879671 0.940937 0.469087
C15   C     C_R   0.516225 0.632841 0.938634 0.037740
C16   C     C_R   0.483661 0.632836 0.061361 0.037649
C17   C     C_R   0.484630 0.508008 0.125880 -0.077871
C18   C     C_R   0.515307 0.508011 0.874119 -0.077870
C19   C     C_R   0.494473 0.387397 0.062411 -0.183051
C20   C     C_R   0.505477 0.387398 0.937590 -0.182989
C21   C     C_R   0.062364 0.373133 0.523192 -0.107613
C22   C     C_R   0.937689 0.373089 0.477024 -0.107858
C23   C     C_R   0.872137 0.496105 0.478347 -0.041160
C24   C     C_R   0.127865 0.496150 0.521664 -0.041247
H1    H     H_    0.493643 0.291793 0.108919 0.191449
H2    H     H_    0.506324 0.291795 0.891085 0.191474
H3    H     H_    0.409732 0.767187 0.198433 0.265954
H4    H     H_    0.590096 0.767240 0.801565 0.265934
H5    H     H_    0.889463 0.711708 0.481767 0.158773
H6    H     H_    0.110441 0.711740 0.517852 0.158945
N1    N     N_R   0.500000 0.857200 0.500000 -0.158270
N2    N     N_R   0.500000 0.142810 0.500000 -0.158594
O1    O     O_R   0.316770 0.614620 0.499990 -0.607977
O2    O     O_R   0.683230 0.614620 0.500010 -0.607926
O3    O     O_R   0.316800 0.385290 0.500000 -0.538282
O4    O     O_R   0.683200 0.385290 0.500000 -0.538345
O5    O     O_R   0.500010 0.614690 0.316770 -0.617947
O6    O     O_R   0.499990 0.614690 0.683230 -0.617958
O7    O     O_R   0.500040 0.385360 0.316770 -0.627180
O8    O     O_R   0.499960 0.385360 0.683230 -0.627095
Zn1   Zn    Zn3+2 0.500000 0.653120 0.500000 0.992980
Zn2   Zn    Zn3+2 0.500000 0.346880 0.500000 1.038781
O9    O     O_3   0.465772 0.998665 0.121323 -0.634464
C25   C     C_3   0.578888 0.023908 0.192211 -0.289116
H7    H     H_    0.657530 0.039765 0.131977 0.199997
H8    H     H_    0.601991 0.941744 0.259357 0.152672
H9    H     H_    0.568963 0.116814 0.246397 0.206082
O10   O     O_3   0.534051 0.998698 0.878740 -0.634499
C26   C     C_3   0.420999 0.023891 0.807707 -0.289108
H10   H     H_    0.342215 0.039597 0.867829 0.199915
H11   H     H_    0.398106 0.941759 0.740462 0.152615
H12   H     H_    0.430909 0.116878 0.753619 0.206242
C27   C     C_2   0.116642 0.251521 0.586134 0.503974
H13   H     H_    0.084310 0.151870 0.560952 0.031935
O11   O     O_2   0.195098 0.262140 0.672677 -0.581485
C28   C     C_2   0.883481 0.251377 0.414235 0.504126
H14   H     H_    0.915727 0.151751 0.439680 0.032132
O12   O     O_2   0.805170 0.261869 0.327550 -0.581427
O13   O     O_3   0.710112 0.143530 0.581720 -0.623118
C29   C     C_3   0.723282 0.151342 0.711441 -0.243850
H15   H     H_    0.741875 0.051678 0.754260 0.197529
H16   H     H_    0.640509 0.197726 0.749478 0.200294
H17   H     H_    0.804865 0.216199 0.737961 0.170806
O14   O     O_3   0.289857 0.143590 0.418356 -0.623116
C30   C     C_3   0.276648 0.151452 0.288640 -0.243540
H18   H     H_    0.258000 0.051812 0.245803 0.197549
H19   H     H_    0.359423 0.197786 0.250587 0.200235
H20   H     H_    0.195083 0.216380 0.262164 0.170843
C31   C     C_2   0.726452 0.869380 0.576325 0.494318
H21   H     H_    0.808280 0.906891 0.533866 0.028520
O15   O     O_2   0.740504 0.790514 0.661654 -0.594289
C32   C     C_2   0.273534 0.869460 0.423760 0.494296
H22   H     H_    0.191739 0.906981 0.466292 0.028447
O16   O     O_2   0.259431 0.790627 0.338415 -0.594364

loop_
_geom_bond_atom_site_label_1
_geom_bond_atom_site_label_2
_ccdc_geom_bond_type
C7    C31   S    
C15   C18   A    
C6    N2    A    
O9    C25   S    
C25   H9    S    
C13   C14   A    
C14   O10   S    
C11   C16   A    
O4    Zn2   S    
C19   C20   A    
C12   C15   A    
C11   H3    S    
C10   O6    A    
C30   H20   S    
O1    Zn1   S    
O14   C30   S    
C2    O2    A    
C13   O9    S    
O8    Zn2   S    
C12   C14   A    
C1    O1    A    
O13   C29   S    
C27   H13   S    
C28   H14   S    
C29   H16   S    
C21   C27   S    
C11   C13   A    
C1    O3    A    
C16   C17   A    
O2    Zn1   S    
C20   H2    S    
C10   C18   S    
C29   H17   S    
C4    C24   A    
C9    C17   S    
O10   C26   S    
C17   C19   A    
C25   H8    S    
C30   H18   S    
O7    Zn2   S    
C18   C20   A    
C2    C23   S    
C27   O11   D    
O5    Zn1   S    
C31   H21   S    
C19   H1    S    
C26   H10   S    
C8    C32   S    
C31   O15   D    
C5    O13   S    
C22   C28   S    
C2    O4    A    
C15   C16   A    
C9    O7    A    
C3    H5    S    
C7    N1    A    
C25   H7    S    
C12   H4    S    
C1    C24   S    
C32   O16   D    
C9    O5    A    
C21   C24   A    
C6    O14   S    
O6    Zn1   S    
C5    C7    A    
O3    Zn2   S    
N2    Zn2   S    
C22   C23   A    
C29   H15   S    
C10   O8    A    
C6    C8    A    
N1    Zn1   S    
C30   H19   S    
C21   C22   A    
C8    N1    A    
C3    C23   A    
C5    N2    A    
C4    H6    S    
C3    C4    A    
C26   H12   S    
C28   O12   D    
C32   H22   S    
C26   H11   S    
