data_mof_unit_46988.cif
_audit_creation_date              2012-12-10T16:51:11-0500
_audit_creation_method            fapswitch 2.2
_symmetry_space_group_name_H-M    P1
_symmetry_Int_Tables_number       1
_space_group_crystal_system       triclinic
_cell_length_a                    27.651342
_cell_length_b                    9.044472
_cell_length_c                    7.486868
_cell_angle_alpha                 103.090108
_cell_angle_beta                  94.869385
_cell_angle_gamma                 96.348569
_cell_volume                      1800.84124291

loop_
_atom_site_label
_atom_site_type_symbol
_atom_type_description
_atom_site_fract_x
_atom_site_fract_y
_atom_site_fract_z
_atom_type_partial_charge
C1    C     C_R   0.498244 0.200169 0.454128 0.839074
C2    C     C_R   0.501756 0.799831 0.545872 0.839074
C3    C     C_R   0.099962 0.470763 0.477970 -0.224925
C4    C     C_R   0.900038 0.529237 0.522030 -0.224925
C5    C     C_R   0.117260 0.333423 0.492626 -0.196012
C6    C     C_R   0.882740 0.666577 0.507374 -0.196012
C7    C     C_R   0.082694 0.203069 0.475112 0.673665
C8    C     C_R   0.917306 0.796931 0.524887 0.673665
C9    C     C_R   0.132008 0.590528 0.443800 -0.244103
C10   C     C_R   0.867992 0.409472 0.556199 -0.244103
C11   C     C_R   0.353666 0.474616 0.501402 -0.372963
C12   C     C_R   0.646334 0.525384 0.498598 -0.372963
C13   C     C_R   0.967892 0.380007 0.533627 -0.090631
C14   C     C_R   0.032108 0.619992 0.466373 -0.090631
C15   C     C_R   0.982988 0.639317 0.494298 -0.016406
C16   C     C_R   0.017012 0.360683 0.505701 -0.016407
C17   C     C_R   0.950156 0.514761 0.511930 -0.021757
C18   C     C_R   0.049844 0.485239 0.488070 -0.021757
C19   C     C_R   0.937543 0.277511 0.604711 0.594622
C20   C     C_R   0.062457 0.722489 0.395288 0.594622
C21   C     C_R   0.887719 0.287426 0.608553 0.670126
C22   C     C_R   0.112281 0.712574 0.391447 0.670126
C23   C     C_R   0.407257 0.492271 0.499896 0.924869
C24   C     C_R   0.592743 0.507729 0.500104 0.924870
C25   C     C_R   0.032374 0.215871 0.461258 0.277299
C26   C     C_R   0.967626 0.784129 0.538741 0.277298
C27   C     C_2   0.491836 0.033444 0.431849 0.046015
C28   C     C_2   0.508164 0.966556 0.568151 0.046015
C29   C     C_R   0.168183 0.328412 0.505412 0.760433
C30   C     C_R   0.831817 0.671588 0.494588 0.760433
C31   C     C_R   0.182198 0.578779 0.450547 0.720311
C32   C     C_R   0.817802 0.421220 0.549453 0.720312
C33   C     C_R   0.282456 0.549887 0.651295 0.193406
C34   C     C_R   0.717544 0.450113 0.348705 0.193405
C35   C     C_R   0.333205 0.563705 0.648057 0.566880
C36   C     C_R   0.666794 0.436295 0.351943 0.566880
C37   C     C_R   0.322509 0.365012 0.362599 0.111748
C38   C     C_R   0.677491 0.634988 0.637401 0.111749
C39   C     C_R   0.271753 0.355634 0.362972 0.655450
C40   C     C_R   0.728247 0.644366 0.637027 0.655450
C41   C     C_R   0.251491 0.449085 0.505035 -0.047876
C42   C     C_R   0.748509 0.550915 0.494965 -0.047876
Cu1   Cu    Cu3+1 0.505380 0.517380 0.684380 1.182432
Cu2   Cu    Cu3+1 0.494620 0.482620 0.315620 1.182432
N1    N     N_R   0.199498 0.452508 0.490397 -0.445516
N2    N     N_R   0.800502 0.547492 0.509603 -0.445516
N3    N     N_2   0.486510 0.456430 0.038510 0.066731
N4    N     N_2   0.513490 0.543570 0.961490 0.066731
O1    O     O_R   0.503500 0.286120 0.619780 -0.570308
O2    O     O_R   0.496500 0.713880 0.380220 -0.570308
O3    O     O_R   0.494410 0.256780 0.308360 -0.527613
O4    O     O_R   0.505590 0.743220 0.691640 -0.527613
O5    O     O_R   0.434810 0.514700 0.655690 -0.532727
O6    O     O_R   0.565190 0.485300 0.344310 -0.532726
O7    O     O_R   0.425720 0.485350 0.344280 -0.552120
O8    O     O_R   0.574280 0.514650 0.655720 -0.552120
O9    O     O_2   0.186277 0.202106 0.533754 -0.348907
O10   O     O_2   0.813723 0.797894 0.466246 -0.348907
O11   O     O_2   0.786292 0.307338 0.580970 -0.384204
O12   O     O_2   0.213708 0.692662 0.419029 -0.384204
Br1   Br    Br    0.346979 0.216412 0.178595 -0.199394
Br2   Br    Br    0.653021 0.783588 0.821405 -0.199394
Br3   Br    Br    0.436893 0.306478 0.897689 -0.209115
Br4   Br    Br    0.563107 0.693522 0.102311 -0.209115
F1    F     F_    0.241825 0.256970 0.223047 -0.541326
F2    F     F_    0.758175 0.743030 0.776953 -0.541326
F3    F     F_    0.097446 0.063308 0.450732 -0.516728
F4    F     F_    0.902554 0.936692 0.549267 -0.516728
F5    F     F_    0.637530 0.333414 0.213736 -0.555349
F6    F     F_    0.362469 0.666586 0.786264 -0.555349
Br5   Br    Br    0.743928 0.328911 0.143935 -0.182963
Br6   Br    Br    0.256072 0.671089 0.856065 -0.182963
F7    F     F_    0.859914 0.184265 0.676553 -0.481717
F8    F     F_    0.140086 0.815735 0.323447 -0.481717
F9    F     F_    0.957492 0.182613 0.695348 -0.556860
F10   F     F_    0.042508 0.817387 0.304652 -0.556860
Br7   Br    Br    0.987139 0.056662 0.295627 -0.214649
Br8   Br    Br    0.012861 0.943338 0.704373 -0.214649
Br9   Br    Br    0.452286 0.921118 0.205955 -0.248892
Br10  Br    Br    0.547713 0.078881 0.794045 -0.248892

loop_
_geom_bond_atom_site_label_1
_geom_bond_atom_site_label_2
_ccdc_geom_bond_type
C8    C26   A    
C14   C18   A    
C34   C42   A    
C39   C41   A    
C26   Br8   S    
C25   Br7   S    
C19   C21   A    
C27   Br9   S    
N3    Br3   S    
Cu1   O4    S    
N4    Br4   S    
C24   O6    A    
C21   F7    S    
C20   F10   S    
C3    C18   A    
C42   N2    S    
C11   C37   A    
C2    O2    A    
C33   Br6   S    
C11   C35   A    
Cu1   O5    S    
C35   F6    S    
C12   C36   A    
Cu1   N4    S    
Cu2   N3    S    
C40   C42   A    
C40   F2    S    
C39   F1    S    
C23   O5    A    
C5    C29   A    
C10   C21   A    
C13   C19   A    
C14   C20   A    
C4    C6    A    
C5    C7    A    
Cu1   O1    S    
C15   C26   A    
C6    C8    A    
C29   N1    A    
C31   O12   S    
Cu1   Cu2   S    
C3    C9    A    
Cu2   O6    S    
N3    N4    D    
C1    O3    A    
C2    O4    A    
C4    C17   A    
Cu2   O3    S    
C6    C30   A    
C29   O9    S    
C8    F4    S    
C22   F8    S    
C4    C10   A    
C36   F5    S    
Cu2   O2    S    
C16   C25   A    
C15   C17   A    
C32   N2    A    
C30   N2    A    
C20   C22   A    
C3    C5    A    
C37   Br1   S    
C23   O7    A    
C24   O8    A    
C12   C24   S    
C7    C25   A    
C13   C17   A    
C33   C41   A    
C19   F9    S    
C37   C39   A    
C38   C40   A    
Cu2   O7    S    
C30   O10   S    
C11   C23   S    
C33   C35   A    
C34   C36   A    
C12   C38   A    
C28   Br10  S    
C9    C31   A    
C7    F3    S    
C10   C32   A    
Cu1   O8    S    
C16   C18   A    
C9    C22   A    
C31   N1    A    
C13   C16   A    
C27   C28   D    
C1    C27   S    
C41   N1    S    
C14   C15   A    
C2    C28   S    
C32   O11   S    
C1    O1    A    
C34   Br5   S    
C38   Br2   S    
