data_mof_unit_26936.cif
_audit_creation_date              2012-12-11T17:29:27-0500
_audit_creation_method            fapswitch 2.2
_symmetry_space_group_name_H-M    P1
_symmetry_Int_Tables_number       1
_space_group_crystal_system       triclinic
_cell_length_a                    7.008155
_cell_length_b                    21.465164
_cell_length_c                    23.704234
_cell_angle_alpha                 90.029478
_cell_angle_beta                  89.928248
_cell_angle_gamma                 90.303269
_cell_volume                      3565.80307378

loop_
_atom_site_label
_atom_site_type_symbol
_atom_type_description
_atom_site_fract_x
_atom_site_fract_y
_atom_site_fract_z
_atom_type_partial_charge
O1    O     O_R   0.385180 0.195030 0.193850 -0.530862
O2    O     O_R   0.614820 0.804970 0.806150 -0.529924
O3    O     O_R   0.714780 0.188250 0.308340 -0.537350
O4    O     O_R   0.285220 0.811750 0.691660 -0.539066
O5    O     O_R   0.885140 0.307540 0.308730 -0.536030
O6    O     O_R   0.114860 0.692460 0.691270 -0.538086
C1    C     C_R   0.544802 0.173494 0.327689 0.718221
C2    C     C_R   0.455097 0.827000 0.672707 0.714462
O7    O     O_R   0.714890 0.187670 0.194260 -0.538198
O8    O     O_R   0.285110 0.812330 0.805740 -0.530228
O9    O     O_R   0.885250 0.306950 0.193830 -0.533065
O10   O     O_R   0.114750 0.693050 0.806170 -0.531468
C3    C     C_R   0.545942 0.172824 0.174740 0.720727
C4    C     C_R   0.454136 0.827293 0.825151 0.716923
O11   O     O_R   0.385070 0.195610 0.308740 -0.532523
O12   O     O_R   0.614930 0.804390 0.691260 -0.531524
O13   O     O_3   0.551660 0.290420 0.251280 -0.367076
O14   O     O_3   0.448340 0.709580 0.748720 -0.378805
V1    V     V_3+5 0.826490 0.244020 0.251290 1.419496
V2    V     V_3+5 0.173510 0.755980 0.748710 1.408864
O15   O     O_R   0.214970 0.314310 0.194240 -0.533954
O16   O     O_R   0.785030 0.685690 0.805760 -0.539217
C5    C     C_R   0.045816 0.329371 0.175003 0.721066
C6    C     C_R   0.953940 0.670638 0.824961 0.730478
O17   O     O_R   0.214860 0.314890 0.308320 -0.536653
O18   O     O_R   0.785140 0.685110 0.691680 -0.543453
C7    C     C_R   0.046360 0.329949 0.327116 0.719823
C8    C     C_R   0.953067 0.669417 0.672630 0.726892
V3    V     V_3+5 0.326500 0.258540 0.251290 1.430151
V4    V     V_3+5 0.673500 0.741460 0.748710 1.389576
O19   O     O_3   0.051460 0.212150 0.251290 -0.368671
O20   O     O_3   0.948540 0.787850 0.748710 -0.361499
C9    C     C_3   0.872437 0.468539 0.543545 -0.417072
C10   C     C_3   0.093766 0.519508 0.460411 -0.354230
C11   C     C_3   0.061112 0.441115 0.519157 0.407162
C12   C     C_3   0.905247 0.546280 0.484167 0.465380
H1    H     H_    0.787619 0.447075 0.577975 0.132692
H2    H     H_    0.185340 0.540218 0.427010 0.168626
C13   C     C_1   0.036447 0.375025 0.371982 -0.215295
C14   C     C_1   0.958140 0.621820 0.628389 -0.206775
C15   C     C_3   0.810445 0.481264 0.481717 0.417937
C16   C     C_3   0.158159 0.505347 0.521389 0.376485
C17   C     C_3   0.997920 0.454694 0.458342 -0.095664
C18   C     C_3   0.971895 0.534324 0.545403 -0.095855
C19   C     C_1   0.021632 0.411652 0.410450 0.024770
C20   C     C_1   0.961506 0.582140 0.591354 0.023150
H3    H     H_    0.221683 0.584520 0.991582 0.159832
H4    H     H_    0.707994 0.431662 0.024259 0.176852
C21   C     C_R   0.131147 0.507342 0.041539 0.460415
C22   C     C_R   0.802838 0.508812 0.972602 0.464056
C23   C     C_R   0.988874 0.461919 0.049757 -0.055708
C24   C     C_R   0.961307 0.548065 0.959303 -0.055548
C25   C     C_R   0.823466 0.464244 0.016183 -0.243554
C26   C     C_R   0.115280 0.549365 0.996646 -0.294765
C27   C     C_1   0.011262 0.414529 0.093500 0.024967
C28   C     C_1   0.967504 0.589747 0.910427 -0.028552
C29   C     C_1   0.964344 0.626055 0.870965 -0.213990
C30   C     C_1   0.031218 0.375706 0.130448 -0.184982
H5    H     H_    0.196729 0.043668 0.462557 0.202959
H6    H     H_    0.794961 0.966956 0.545875 0.206991
C31   C     C_R   0.320064 0.988547 0.529057 0.456149
C32   C     C_R   0.671963 0.033034 0.488659 0.452618
C33   C     C_R   0.490096 0.963390 0.550460 -0.047177
C34   C     C_R   0.502920 0.051903 0.461960 -0.046019
C35   C     C_R   0.664856 0.985926 0.529892 -0.304506
C36   C     C_R   0.327349 0.029431 0.482502 -0.299084
C37   C     C_1   0.482917 0.914611 0.593289 0.033862
C38   C     C_1   0.513090 0.094094 0.413791 0.030324
C39   C     C_1   0.528975 0.129646 0.374109 -0.208209
C40   C     C_1   0.469960 0.874383 0.629208 -0.195741
C41   C     C_R   0.368526 0.007343 0.956824 0.285694
C42   C     C_R   0.628731 0.989569 0.045767 0.260576
C43   C     C_R   0.485572 0.954117 0.956753 -0.192697
C44   C     C_R   0.509280 0.042527 0.046066 -0.197346
C45   C     C_R   0.614826 0.945143 0.001762 0.370965
C46   C     C_R   0.374318 0.049858 0.002502 0.327697
C47   C     C_1   0.474764 0.909614 0.909838 0.121452
C48   C     C_1   0.524440 0.089206 0.091105 0.102052
C49   C     C_1   0.535315 0.127343 0.129130 -0.207145
C50   C     C_1   0.464785 0.872418 0.871038 -0.188818
O21   O     O_3   0.138584 0.382271 0.532349 -0.555239
C51   C     C_3   0.176329 0.377619 0.590495 -0.270251
H7    H     H_    0.061667 0.397449 0.617414 0.129241
H8    H     H_    0.315639 0.399482 0.600488 0.129459
H9    H     H_    0.187803 0.327540 0.601410 0.159471
O22   O     O_3   0.815520 0.602426 0.468670 -0.537334
C52   C     C_3   0.805379 0.606498 0.409458 -0.185849
H10   H     H_    0.735570 0.564827 0.390485 0.158848
H11   H     H_    0.949533 0.613786 0.390944 0.119036
H12   H     H_    0.717780 0.647552 0.398269 0.157561
O23   O     O_3   0.352702 0.513071 0.534154 -0.550366
C53   C     C_3   0.381989 0.524363 0.591650 0.099471
H13   H     H_    0.504274 0.495833 0.605826 0.115799
H14   H     H_    0.259366 0.510999 0.619197 0.091925
C54   C     C_3   0.434902 0.592406 0.598299 -0.316999
H15   H     H_    0.572016 0.602029 0.576402 0.230878
H16   H     H_    0.325062 0.622235 0.578383 0.205994
C55   C     C_3   0.452488 0.608974 0.659874 -0.736166
H17   H     H_    0.323742 0.594471 0.683914 0.213244
H18   H     H_    0.466341 0.660090 0.661312 0.266805
H19   H     H_    0.579285 0.586200 0.678653 0.213789
O24   O     O_3   0.633958 0.470392 0.454489 -0.559221
C56   C     C_3   0.545138 0.414745 0.473400 0.183564
H20   H     H_    0.394444 0.417762 0.460126 0.195663
H21   H     H_    0.545061 0.410352 0.520068 0.133681
C57   C     C_3   0.626831 0.355946 0.446125 -0.395965
H22   H     H_    0.644283 0.363494 0.400053 0.221715
H23   H     H_    0.766561 0.345249 0.465559 0.211894
C58   C     C_3   0.496031 0.299768 0.455155 -0.787489
H24   H     H_    0.470809 0.291978 0.500896 0.238848
H25   H     H_    0.563406 0.257523 0.437067 0.219680
H26   H     H_    0.357611 0.307286 0.433626 0.241989
O25   O     O_3   0.293734 0.508521 0.074615 -0.565482
C59   C     C_3   0.254886 0.538725 0.126499 0.080043
H27   H     H_    0.334257 0.513722 0.160047 0.143558
H28   H     H_    0.101238 0.537377 0.139171 0.099827
C60   C     C_3   0.325921 0.606251 0.124494 -0.327823
H29   H     H_    0.481292 0.606907 0.115043 0.196776
H30   H     H_    0.250225 0.631810 0.090548 0.189912
C61   C     C_3   0.291792 0.639430 0.180515 -0.836388
H31   H     H_    0.368660 0.615330 0.215094 0.229213
H32   H     H_    0.136845 0.640450 0.190399 0.230503
H33   H     H_    0.345366 0.688108 0.177720 0.231201
O26   O     O_3   0.628529 0.508655 0.944190 -0.567426
C62   C     C_3   0.559840 0.567867 0.926689 0.133113
H34   H     H_    0.407254 0.561012 0.916102 0.147739
H35   H     H_    0.621742 0.581490 0.885595 0.126013
C63   C     C_3   0.573748 0.620728 0.971311 -0.372974
H36   H     H_    0.514773 0.604646 0.012131 0.205530
H37   H     H_    0.722474 0.634774 0.980260 0.194093
C64   C     C_3   0.471062 0.679349 0.951341 -0.835721
H38   H     H_    0.546398 0.699573 0.914311 0.239777
H39   H     H_    0.470231 0.714282 0.985842 0.219838
H40   H     H_    0.321306 0.669113 0.939276 0.232049
O27   O     O_3   0.145688 0.969126 0.550208 -0.562820
C65   C     C_3   0.111120 0.997033 0.603670 0.051506
H41   H     H_    0.011588 0.036314 0.597391 0.132133
H42   H     H_    0.240617 0.016745 0.624737 0.088001
C66   C     C_3   0.019390 0.949096 0.643717 -0.265165
H43   H     H_    0.936258 0.913855 0.619604 0.211739
H44   H     H_    0.132844 0.924094 0.666882 0.189035
C67   C     C_3   0.887188 0.979676 0.686708 -0.854431
H45   H     H_    0.966431 0.014856 0.711860 0.230818
H46   H     H_    0.829048 0.943668 0.715743 0.237955
H47   H     H_    0.765968 0.002551 0.664961 0.228791
O28   O     O_3   0.845612 0.058499 0.472667 -0.563430
C68   C     C_3   0.869562 0.117856 0.498394 0.062950
H48   H     H_    0.966310 0.112954 0.535030 0.122191
H49   H     H_    0.733991 0.139080 0.514030 0.098423
C69   C     C_3   0.961391 0.163449 0.456599 -0.305765
H50   H     H_    0.096295 0.144002 0.439704 0.198277
H51   H     H_    0.863568 0.171190 0.420626 0.200723
C70   C     C_3   0.004275 0.226063 0.484513 -0.804808
H52   H     H_    0.874295 0.244834 0.505091 0.236280
H53   H     H_    0.052941 0.259828 0.452078 0.234804
H54   H     H_    0.118258 0.220804 0.516654 0.233258
O29   O     O_3   0.257118 0.101464 0.002114 -0.544501
C71   C     C_3   0.080493 0.084472 0.026323 -0.120332
H55   H     H_    0.098143 0.068343 0.070654 0.137290
H56   H     H_    0.006761 0.048117 0.000778 0.178997
H57   H     H_    0.987177 0.126042 0.027208 0.144345
O30   O     O_3   0.740268 0.895620 0.000948 -0.519988
C72   C     C_3   0.646252 0.842528 0.022697 -0.197998
H58   H     H_    0.529253 0.826857 0.994403 0.126758
H59   H     H_    0.588819 0.850877 0.065775 0.105840
H60   H     H_    0.750589 0.803983 0.025599 0.157125
O31   O     O_3   0.242865 0.017131 0.912798 -0.549019
C73   C     C_3   0.337387 0.052313 0.870741 0.126988
H61   H     H_    0.477440 0.031275 0.859183 0.103663
H62   H     H_    0.361569 0.100857 0.885871 0.146189
C74   C     C_3   0.213376 0.054077 0.817796 -0.289812
H63   H     H_    0.183764 0.005662 0.803435 0.201254
H64   H     H_    0.075221 0.076794 0.827803 0.201446
C75   C     C_3   0.312179 0.089829 0.770247 -0.874053
H65   H     H_    0.343987 0.138352 0.783718 0.238126
H66   H     H_    0.217744 0.091450 0.732733 0.227505
H67   H     H_    0.447219 0.066415 0.758155 0.234172
O32   O     O_3   0.774302 0.983999 0.084886 -0.554952
C76   C     C_3   0.700908 0.963713 0.137451 0.113861
H68   H     H_    0.711247 0.912169 0.139736 0.125728
H69   H     H_    0.548808 0.976744 0.144752 0.097900
C77   C     C_3   0.822534 0.991965 0.184588 -0.306611
H70   H     H_    0.971935 0.975423 0.180353 0.195254
H71   H     H_    0.823194 0.043561 0.180726 0.198881
C78   C     C_3   0.746360 0.974154 0.242757 -0.826783
H72   H     H_    0.599062 0.991993 0.248479 0.227762
H73   H     H_    0.838933 0.994977 0.275833 0.241288
H74   H     H_    0.745911 0.922719 0.247883 0.232207

loop_
_geom_bond_atom_site_label_1
_geom_bond_atom_site_label_2
_ccdc_geom_bond_type
C5    C30   S    
C21   O25   S    
C74   H63   S    
C33   C35   A    
O29   C71   S    
O13   V3    S    
C54   H15   S    
C10   C16   S    
C42   O32   S    
O4    C2    A    
C64   H40   S    
V1    O19   S    
C63   H36   S    
C3    C49   S    
O32   C76   S    
C11   O21   S    
C54   C55   S    
O27   C65   S    
C28   C29   T    
C14   C20   T    
C74   H64   S    
O9    V1    S    
O30   C72   S    
C44   C46   A    
C45   O30   S    
C34   C38   S    
O16   C6    A    
C72   H59   S    
O25   C59   S    
O3    C1    A    
C60   H30   S    
H5    C36   S    
C41   C46   A    
C66   C67   S    
C78   H73   S    
C57   H22   S    
C8    C14   S    
O12   V4    S    
C21   C26   A    
C55   H17   S    
C15   O24   S    
C16   O23   S    
C31   C33   A    
C11   C16   S    
O7    C3    A    
C75   H65   S    
C51   H8    S    
C32   C34   A    
C71   H57   S    
O13   V1    S    
O5    C7    A    
C31   C36   A    
O7    V1    S    
C73   C74   S    
O6    C8    A    
C72   H58   S    
C7    C13   S    
C6    C29   S    
C21   C23   A    
C69   C70   S    
C62   C63   S    
C22   C24   A    
O3    V1    S    
O14   V4    S    
C4    C50   S    
C70   H53   S    
C11   C17   S    
C10   C12   S    
C52   H12   S    
C61   H33   S    
C13   C19   T    
C76   C77   S    
C24   C26   A    
C73   H62   S    
C2    O12   A    
C41   O31   S    
C71   H56   S    
C15   C17   S    
C67   H47   S    
C12   C15   S    
C16   C18   S    
C65   C66   S    
C53   H14   S    
C10   H2    S    
C61   H32   S    
O11   V3    S    
C75   H66   S    
O17   V3    S    
H4    C25   S    
C74   C75   S    
C33   C37   S    
C46   O29   S    
C22   C25   A    
C68   H48   S    
C72   H60   S    
C22   O26   S    
C42   C44   A    
O8    C4    A    
C60   C61   S    
O8    V2    S    
O23   C53   S    
C41   C43   A    
C48   C49   T    
C38   C39   T    
C78   H74   S    
C1    O11   A    
C18   C20   S    
C23   C27   S    
C12   O22   S    
O15   V3    S    
C53   C54   S    
O21   C51   S    
C23   C25   A    
C77   C78   S    
C34   C36   A    
O10   V2    S    
O1    V3    S    
C56   H21   S    
C70   H54   S    
C17   C19   S    
C75   H67   S    
H3    C26   S    
C65   H42   S    
C73   H61   S    
H6    C35   S    
O18   V4    S    
C55   H18   S    
O15   C5    A    
C32   O28   S    
C62   H34   S    
C69   H51   S    
C58   H26   S    
O1    C3    A    
C43   C45   A    
C64   H38   S    
C51   H9    S    
C63   C64   S    
C68   C69   S    
O31   C73   S    
C67   H46   S    
C61   H31   S    
C31   O27   S    
C9    H1    S    
O28   C68   S    
V2    O20   S    
C47   C50   T    
O16   V4    S    
C32   C35   A    
C68   H49   S    
O22   C52   S    
C9    C18   S    
C2    C40   S    
C10   C17   S    
C65   H41   S    
C64   H39   S    
C63   H37   S    
C1    C39   S    
C59   H28   S    
C66   H43   S    
C54   H16   S    
C59   H27   S    
O5    V1    S    
O17   C7    A    
C55   H19   S    
O6    V2    S    
O10   C6    A    
O18   C8    A    
C69   H50   S    
O2    V4    S    
C37   C40   T    
C9    C15   S    
C52   H11   S    
V3    O19   S    
C60   H29   S    
V4    O20   S    
C66   H44   S    
C42   C45   A    
C78   H72   S    
C71   H55   S    
C57   H23   S    
C58   H25   S    
O9    C5    A    
C53   H13   S    
C9    C11   S    
C56   C57   S    
O14   V2    S    
O24   C56   S    
O2    C4    A    
C77   H71   S    
C59   C60   S    
C12   C18   S    
C76   H68   S    
O4    V2    S    
C24   C28   S    
C52   H10   S    
C51   H7    S    
C44   C48   S    
C27   C30   T    
C56   H20   S    
C62   H35   S    
C43   C47   S    
C67   H45   S    
C70   H52   S    
C58   H24   S    
C77   H70   S    
O26   C62   S    
C76   H69   S    
C57   C58   S    
