data_mof_unit_10371.cif
_audit_creation_date              2012-12-11T17:07:50-0500
_audit_creation_method            fapswitch 2.2
_symmetry_space_group_name_H-M    P1
_symmetry_Int_Tables_number       1
_space_group_crystal_system       triclinic
_cell_length_a                    17.162479
_cell_length_b                    17.162492
_cell_length_c                    17.233998
_cell_angle_alpha                 89.999673
_cell_angle_beta                  90.000104
_cell_angle_gamma                 90.000596
_cell_volume                      5076.28976827

loop_
_atom_site_label
_atom_site_type_symbol
_atom_type_description
_atom_site_fract_x
_atom_site_fract_y
_atom_site_fract_z
_atom_type_partial_charge
C1    C     C_R   0.423617 0.330465 0.855348 -0.239605
C2    C     C_R   0.169547 0.923608 0.355355 -0.239578
C3    C     C_R   0.679742 0.766532 0.357780 -0.172804
C4    C     C_R   0.233457 0.320264 0.642223 -0.172825
C5    C     C_R   0.221058 0.865062 0.807063 -0.180556
C6    C     C_R   0.766520 0.679748 0.642218 -0.172791
C7    C     C_R   0.778953 0.134945 0.807066 -0.180544
C8    C     C_R   0.733475 0.179751 0.857781 -0.172788
C9    C     C_R   0.721038 0.634941 0.692929 -0.180550
C10   C     C_R   0.266537 0.820255 0.857778 -0.172817
C11   C     C_R   0.278934 0.365070 0.692939 -0.180567
C12   C     C_R   0.634936 0.721051 0.307065 -0.180555
C13   C     C_R   0.106897 0.198585 0.401230 -0.133988
C14   C     C_R   0.820260 0.266551 0.142232 -0.172833
C15   C     C_R   0.365064 0.278938 0.307058 -0.180569
C16   C     C_R   0.179741 0.733445 0.142237 -0.172836
C17   C     C_R   0.830454 0.076391 0.355353 -0.239583
C18   C     C_R   0.923612 0.169546 0.644644 -0.239587
C19   C     C_R   0.198586 0.106898 0.598770 -0.133973
C20   C     C_R   0.076389 0.830455 0.644646 -0.239593
C21   C     C_R   0.801415 0.893106 0.598772 -0.133994
C22   C     C_3   0.888189 0.314956 0.742269 -0.482539
C23   C     C_3   0.660285 0.862898 0.702753 -0.437026
C24   C     C_3   0.111765 0.685064 0.742326 -0.482562
C25   C     C_R   0.698585 0.393106 0.901231 -0.133948
C26   C     C_3   0.339795 0.137133 0.702654 -0.437128
C27   C     C_3   0.862883 0.660243 0.297306 -0.437079
C28   C     C_3   0.685087 0.111744 0.257637 -0.482617
C29   C     C_3   0.137129 0.339776 0.297331 -0.437162
C30   C     C_3   0.314916 0.888264 0.257632 -0.482617
C31   C     C_3   0.362861 0.839794 0.202642 -0.437194
C32   C     C_3   0.185076 0.388248 0.242345 -0.482607
C33   C     C_3   0.637142 0.160214 0.202647 -0.437197
C34   C     C_3   0.814936 0.611768 0.242323 -0.482550
C35   C     C_3   0.388265 0.185080 0.757640 -0.482533
C36   C     C_R   0.576381 0.669539 0.855351 -0.239607
C37   C     C_3   0.160237 0.637118 0.797311 -0.437097
C38   C     C_3   0.611812 0.814951 0.757735 -0.482543
C39   C     C_3   0.839715 0.362903 0.797250 -0.437014
C40   C     C_R   0.391983 0.698125 0.899070 0.683728
C41   C     C_R   0.328511 0.418535 0.855987 0.736128
C42   C     C_R   0.608017 0.301876 0.899067 0.683735
C43   C     C_R   0.671488 0.581467 0.855985 0.736115
C44   C     C_R   0.418528 0.328503 0.144008 0.736131
C45   C     C_R   0.301876 0.608013 0.100931 0.683721
C46   C     C_R   0.581471 0.671494 0.144010 0.736129
C47   C     C_R   0.301413 0.606896 0.901235 -0.133948
C48   C     C_R   0.698125 0.391986 0.100930 0.683727
C49   C     C_R   0.918528 0.171498 0.355994 0.736122
C50   C     C_R   0.801875 0.891983 0.399069 0.683741
C51   C     C_R   0.081473 0.828501 0.355995 0.736122
C52   C     C_R   0.198124 0.108015 0.399068 0.683731
C53   C     C_R   0.891984 0.801877 0.600934 0.683737
C54   C     C_R   0.828504 0.081473 0.644009 0.736122
C55   C     C_R   0.108015 0.198124 0.600932 0.683731
C56   C     C_R   0.171496 0.918528 0.644010 0.736127
C57   C     C_R   0.362866 0.359970 0.811693 -0.140460
C58   C     C_R   0.393103 0.698585 0.098769 -0.133966
C59   C     C_R   0.686311 0.315538 0.885302 -0.157101
C60   C     C_R   0.637131 0.640036 0.811696 -0.140465
C61   C     C_R   0.313687 0.684466 0.885308 -0.157090
C62   C     C_R   0.315532 0.686309 0.114695 -0.157086
C63   C     C_R   0.640039 0.637138 0.188302 -0.140463
C64   C     C_R   0.684469 0.313690 0.114694 -0.157085
C65   C     C_R   0.359959 0.362857 0.188300 -0.140467
C66   C     C_R   0.815533 0.813687 0.385307 -0.157092
C67   C     C_R   0.140042 0.862854 0.311702 -0.140470
C68   C     C_R   0.184467 0.186310 0.385303 -0.157091
C69   C     C_R   0.669544 0.576387 0.144647 -0.239590
C70   C     C_R   0.859960 0.137144 0.311701 -0.140472
C71   C     C_R   0.862860 0.140043 0.688298 -0.140477
C72   C     C_R   0.186311 0.184468 0.614696 -0.157087
C73   C     C_R   0.137141 0.859960 0.688301 -0.140467
C74   C     C_R   0.813689 0.815538 0.614702 -0.157096
C75   C     C_R   0.819554 0.288435 0.837961 0.124244
C76   C     C_R   0.636001 0.744526 0.712247 0.134003
C77   C     C_R   0.180435 0.711588 0.837991 0.124268
C78   C     C_R   0.364012 0.255512 0.712204 0.134001
C79   C     C_R   0.744507 0.635993 0.287780 0.134006
C80   C     C_R   0.606898 0.301414 0.098768 -0.133981
C81   C     C_R   0.711609 0.180435 0.161990 0.124277
C82   C     C_R   0.255502 0.364005 0.287785 0.134025
C83   C     C_R   0.288392 0.819565 0.161992 0.124280
C84   C     C_R   0.244490 0.864002 0.212207 0.134034
C85   C     C_R   0.211598 0.319565 0.337997 0.124281
C86   C     C_R   0.755511 0.135997 0.212206 0.134035
C87   C     C_R   0.788412 0.680434 0.337991 0.124260
C88   C     C_R   0.319573 0.211607 0.661991 0.124267
C89   C     C_R   0.135996 0.755493 0.787778 0.134004
C90   C     C_R   0.680444 0.788431 0.662039 0.124239
C91   C     C_R   0.330454 0.423610 0.144646 -0.239583
C92   C     C_R   0.863995 0.244530 0.787751 0.133990
C93   C     C_R   0.747883 0.260259 0.864810 0.082937
C94   C     C_R   0.661914 0.671072 0.736602 0.082488
C95   C     C_R   0.252117 0.739752 0.864822 0.082947
C96   C     C_R   0.338078 0.328946 0.736592 0.082493
C97   C     C_R   0.671065 0.661919 0.263404 0.082483
C98   C     C_R   0.739760 0.252123 0.135177 0.082962
C99   C     C_R   0.328937 0.338075 0.263401 0.082491
C100  C     C_R   0.260240 0.747875 0.135179 0.082963
C101  C     C_R   0.171061 0.838067 0.236601 0.082498
C102  C     C_R   0.893103 0.801413 0.401234 -0.133982
C103  C     C_R   0.239755 0.247879 0.364819 0.082953
C104  C     C_R   0.828940 0.161930 0.236599 0.082500
C105  C     C_R   0.760247 0.752115 0.364822 0.082941
C106  C     C_R   0.247884 0.239761 0.635173 0.082959
C107  C     C_R   0.161924 0.828934 0.763401 0.082490
C108  C     C_R   0.752114 0.760256 0.635191 0.082946
C109  C     C_R   0.838077 0.171077 0.763393 0.082495
C110  C     C_R   0.134935 0.778924 0.192951 -0.180587
C111  C     C_R   0.320257 0.233457 0.357772 -0.172821
C112  C     C_R   0.865066 0.221072 0.192948 -0.180586
F1    F     F_    0.425290 0.768853 0.909953 -0.739529
F2    F     F_    0.731148 0.925290 0.409951 -0.739516
F3    F     F_    0.040635 0.763480 0.338261 -0.748916
F4    F     F_    0.268850 0.074706 0.409955 -0.739522
F5    F     F_    0.925290 0.731149 0.590050 -0.739513
F6    F     F_    0.763481 0.040640 0.661748 -0.748900
F7    F     F_    0.074703 0.268850 0.590050 -0.739529
F8    F     F_    0.236515 0.959367 0.661750 -0.748903
F9    F     F_    0.263494 0.459374 0.838249 -0.748922
F10   F     F_    0.574711 0.231147 0.909942 -0.739516
F11   F     F_    0.736504 0.540628 0.838239 -0.748913
F12   F     F_    0.459369 0.263488 0.161749 -0.748910
F13   F     F_    0.231149 0.574704 0.090044 -0.739533
F14   F     F_    0.540632 0.736510 0.161752 -0.748907
F15   F     F_    0.768851 0.425295 0.090043 -0.739532
F16   F     F_    0.959364 0.236520 0.338260 -0.748911
H1    H     H_    0.465089 0.286869 0.838086 0.200206
H2    H     H_    0.213148 0.965078 0.338094 0.200206
H3    H     H_    0.080054 0.254485 0.411819 0.216761
H4    H     H_    0.786853 0.034921 0.338092 0.200206
H5    H     H_    0.965082 0.213148 0.661904 0.200224
H6    H     H_    0.254485 0.080054 0.588180 0.216756
H7    H     H_    0.034918 0.786854 0.661907 0.200210
H8    H     H_    0.745515 0.919950 0.588183 0.216760
H9    H     H_    0.951627 0.327070 0.747474 0.219014
H10   H     H_    0.710977 0.890768 0.731875 0.226719
H11   H     H_    0.048326 0.672977 0.747550 0.219008
H12   H     H_    0.754485 0.419952 0.911819 0.216756
H13   H     H_    0.289137 0.109215 0.731783 0.226773
H14   H     H_    0.890776 0.710916 0.268177 0.226743
H15   H     H_    0.673018 0.048308 0.252404 0.219016
H16   H     H_    0.109219 0.289116 0.268205 0.226771
H17   H     H_    0.326977 0.951701 0.252393 0.219012
H18   H     H_    0.390784 0.789145 0.231768 0.226796
H19   H     H_    0.173001 0.451684 0.247575 0.219012
H20   H     H_    0.609225 0.210867 0.231772 0.226792
H21   H     H_    0.827029 0.548329 0.247545 0.219005
H22   H     H_    0.451706 0.173010 0.752405 0.219004
H23   H     H_    0.534910 0.713138 0.838090 0.200212
H24   H     H_    0.210907 0.609220 0.768184 0.226759
H25   H     H_    0.548375 0.827068 0.752537 0.219020
H26   H     H_    0.789024 0.390773 0.768126 0.226729
H27   H     H_    0.864818 0.315680 0.682064 0.218034
H28   H     H_    0.624683 0.902401 0.665903 0.220302
H29   H     H_    0.135119 0.684312 0.682118 0.218047
H30   H     H_    0.375401 0.097675 0.665764 0.220271
H31   H     H_    0.902364 0.624642 0.334178 0.220286
H32   H     H_    0.684316 0.135087 0.317843 0.218066
H33   H     H_    0.097667 0.375376 0.334214 0.220288
H34   H     H_    0.245514 0.580051 0.911825 0.216758
H35   H     H_    0.315693 0.864925 0.317840 0.218067
H36   H     H_    0.402309 0.875397 0.165748 0.220281
H37   H     H_    0.184312 0.364902 0.182138 0.218061
H38   H     H_    0.597687 0.124613 0.165758 0.220285
H39   H     H_    0.815685 0.635124 0.182114 0.218041
H40   H     H_    0.364920 0.184310 0.817852 0.218049
H41   H     H_    0.124635 0.597642 0.834186 0.220280
H42   H     H_    0.635189 0.815670 0.817938 0.218033
H43   H     H_    0.875315 0.402406 0.834103 0.220292
H44   H     H_    0.075350 0.761805 0.203908 0.198254
H45   H     H_    0.419947 0.754485 0.088181 0.216749
H46   H     H_    0.347167 0.182913 0.383597 0.212528
H47   H     H_    0.924651 0.238191 0.203904 0.198254
H48   H     H_    0.652832 0.817073 0.383609 0.212522
H49   H     H_    0.182911 0.347173 0.616399 0.212521
H50   H     H_    0.238171 0.924652 0.796115 0.198237
H51   H     H_    0.817055 0.652833 0.616378 0.212498
H52   H     H_    0.761849 0.075350 0.796126 0.198210
H53   H     H_    0.682940 0.152839 0.883622 0.212510
H54   H     H_    0.738140 0.575346 0.703866 0.198217
H55   H     H_    0.317079 0.847163 0.883606 0.212527
H56   H     H_    0.713142 0.534915 0.161909 0.200207
H57   H     H_    0.261816 0.424657 0.703893 0.198247
H58   H     H_    0.575345 0.738162 0.296117 0.198240
H59   H     H_    0.847167 0.317099 0.116414 0.212537
H60   H     H_    0.424652 0.261824 0.296107 0.198250
H61   H     H_    0.152834 0.682896 0.116419 0.212538
H62   H     H_    0.580054 0.245515 0.088179 0.216748
H63   H     H_    0.286855 0.465079 0.161907 0.200207
H64   H     H_    0.919946 0.745514 0.411825 0.216762
N1    N     N_R   0.425360 0.368540 0.922560 -0.071601
N2    N     N_R   0.131460 0.925360 0.422560 -0.071601
N3    N     N_R   0.074640 0.131460 0.422560 -0.090812
N4    N     N_R   0.868540 0.074640 0.422560 -0.071601
N5    N     N_R   0.925360 0.131460 0.577440 -0.071601
N6    N     N_R   0.131460 0.074640 0.577440 -0.090813
N7    N     N_R   0.074640 0.868540 0.577440 -0.071601
N8    N     N_R   0.868540 0.925360 0.577440 -0.090819
N9    N     N_R   0.425340 0.631500 0.922560 -0.114088
N10   N     N_R   0.368500 0.425340 0.922560 -0.103572
N11   N     N_R   0.574660 0.368500 0.922560 -0.114093
N12   N     N_R   0.631460 0.425360 0.922560 -0.090815
N13   N     N_R   0.631500 0.574660 0.922560 -0.103577
N14   N     N_R   0.425340 0.368500 0.077440 -0.103580
N15   N     N_R   0.368500 0.574660 0.077440 -0.114082
N16   N     N_R   0.574660 0.631500 0.077440 -0.103580
N17   N     N_R   0.631500 0.425340 0.077440 -0.114082
N18   N     N_R   0.925340 0.131500 0.422560 -0.103575
N19   N     N_R   0.868500 0.925340 0.422560 -0.114087
N20   N     N_R   0.074660 0.868500 0.422560 -0.103575
N21   N     N_R   0.131500 0.074660 0.422560 -0.114085
N22   N     N_R   0.925340 0.868500 0.577440 -0.114087
N23   N     N_R   0.574640 0.631460 0.922560 -0.071601
N24   N     N_R   0.868500 0.074660 0.577440 -0.103580
N25   N     N_R   0.074660 0.131500 0.577440 -0.114084
N26   N     N_R   0.131500 0.925340 0.577440 -0.103579
N27   N     N_R   0.368540 0.574640 0.922560 -0.090813
N28   N     N_R   0.425360 0.631460 0.077440 -0.090809
N29   N     N_R   0.631460 0.574640 0.077440 -0.071602
N30   N     N_R   0.574640 0.368540 0.077440 -0.090807
N31   N     N_R   0.368540 0.425360 0.077440 -0.071601
N32   N     N_R   0.925360 0.868540 0.422560 -0.090813
Ni1   Ni    Ni4+2 0.500000 0.369720 0.000000 0.257281
Ni2   Ni    Ni4+2 0.630280 0.500000 0.000000 0.257280
Ni3   Ni    Ni4+2 0.500000 0.630280 0.000000 0.257279
Ni4   Ni    Ni4+2 0.369720 0.500000 0.000000 0.257289
Ni5   Ni    Ni4+2 0.000000 0.869720 0.500000 0.257286
Ni6   Ni    Ni4+2 0.130280 0.000000 0.500000 0.257289
Ni7   Ni    Ni4+2 0.000000 0.130280 0.500000 0.257287
Ni8   Ni    Ni4+2 0.869720 0.000000 0.500000 0.257283

loop_
_geom_bond_atom_site_label_1
_geom_bond_atom_site_label_2
_ccdc_geom_bond_type
C8    H53   S    
C58   C62   A    
N11   N12   A    
C67   C101  S    
C53   N22   A    
C10   H55   S    
C6    H51   S    
C43   N13   A    
C111  H46   S    
C33   H38   S    
C82   C99   A    
N2    Ni6   S    
C23   H10   S    
C1    N1    A    
C53   C74   A    
C68   C103  S    
C4    H49   S    
C25   N12   A    
C86   C104  A    
C24   C89   S    
C6    C9    A    
C56   N26   A    
C42   N11   A    
C16   C110  A    
C7    C8    A    
C55   N25   A    
C32   H19   S    
C55   F7    S    
C3    C105  A    
C19   H6    S    
C54   N24   A    
C22   H9    S    
C77   C89   A    
N15   N28   A    
C3    H48   S    
C29   C32   S    
C1    H1    S    
C36   N23   A    
C37   H41   S    
C30   C31   S    
C53   F5    S    
C92   C109  A    
C73   C107  S    
C81   C98   A    
C22   C39   S    
C27   H31   S    
C71   C109  S    
C45   C62   A    
C28   H32   S    
C27   H14   S    
C31   C83   S    
C18   H5    S    
C103  C111  A    
C110  H44   S    
C41   F9    S    
C11   C96   A    
C66   C102  A    
N26   Ni6   S    
C39   H43   S    
C3    C12   A    
C76   C94   A    
C69   N29   A    
C31   H18   S    
C58   N28   A    
C51   N20   A    
C54   C71   A    
N4    Ni8   S    
C78   C96   A    
C57   C96   S    
C49   N18   A    
C20   C73   A    
N8    N22   A    
N18   Ni7   S    
C38   H42   S    
C9    H54   S    
C35   H22   S    
C39   C75   S    
N27   Ni4   S    
C26   H13   S    
C21   H8    S    
C29   C85   S    
C81   C86   A    
C52   C68   A    
N9    Ni3   S    
N4    N18   A    
C64   C98   S    
C17   C70   A    
C27   C34   S    
C23   H28   S    
C17   H4    S    
C84   C101  A    
C64   C80   A    
C44   C65   A    
N7    N26   A    
N17   N30   A    
C30   H35   S    
C18   N5    A    
C79   C87   A    
C90   C108  A    
C34   H21   S    
C79   C97   A    
C14   C98   A    
C22   H27   S    
N5    Ni7   S    
C24   H11   S    
C33   C81   S    
C41   C57   A    
N19   Ni8   S    
C39   H26   S    
C102  N32   A    
C15   C111  A    
C25   H12   S    
C19   C72   A    
C65   C99   S    
C91   H63   S    
C2    C67   A    
N22   Ni5   S    
C45   F13   S    
C104  C112  A    
C24   H29   S    
C16   C100  A    
C38   C76   S    
N30   Ni1   S    
N16   N29   A    
N7    Ni5   S    
C29   H16   S    
C74   C108  S    
N29   Ni2   S    
C77   C95   A    
C40   F1    S    
C51   F3    S    
C40   C61   A    
C7    C109  A    
N28   Ni3   S    
C2    N2    A    
C14   C112  A    
C20   N7    A    
C46   N16   A    
C18   C71   A    
C33   H20   S    
C1    C57   A    
C34   C79   S    
C88   C106  A    
N15   Ni4   S    
C102  H64   S    
C83   C84   A    
C87   C105  A    
N14   N31   A    
C12   H58   S    
C89   C107  A    
N14   Ni1   S    
C44   N14   A    
C24   C37   S    
C13   H3    S    
C23   C90   S    
N3    Ni7   S    
N13   Ni2   S    
C28   H15   S    
C51   C67   A    
C40   N9    A    
C4    C11   A    
C27   C87   S    
C50   C66   A    
N20   Ni5   S    
N9    N27   A    
C12   C97   A    
N5    N24   A    
C43   C60   A    
C4    C106  A    
C62   C100  S    
C75   C92   A    
C26   C88   S    
C63   C97   S    
C72   C106  S    
C28   C33   S    
C49   C70   A    
C54   F6    S    
C28   C86   S    
N6    N25   A    
N17   Ni2   S    
C37   H24   S    
C91   N31   A    
C34   H39   S    
C23   C38   S    
C43   F11   S    
N6    Ni6   S    
N11   Ni1   S    
C21   N8    A    
C42   F10   S    
C30   H17   S    
C35   H40   S    
C5    C107  A    
C78   C88   A    
C52   F4    S    
C65   C91   A    
C49   F16   S    
C37   C77   S    
C31   H36   S    
C19   N6    A    
C6    C108  A    
C56   C73   A    
C11   H57   S    
C80   H62   S    
C46   F14   S    
C8    C93   A    
C55   C72   A    
C15   C99   A    
C36   C60   A    
C85   C103  A    
C42   C59   A    
C47   C61   A    
N10   Ni4   S    
C61   C95   S    
C36   H23   S    
C56   F8    S    
C82   C85   A    
C32   C82   S    
C15   H60   S    
C35   C78   S    
C38   H25   S    
C46   C63   A    
C83   C100  A    
C59   C93   S    
C101  C110  A    
N1    Ni1   S    
C63   C69   A    
N16   Ni3   S    
N32   Ni5   S    
N25   Ni7   S    
C48   F15   S    
C14   H59   S    
N31   Ni4   S    
C47   N27   A    
C10   C95   A    
C75   C93   A    
N19   N32   A    
C21   C74   A    
C52   N21   A    
C2    H2    S    
N23   Ni3   S    
C44   F12   S    
C7    H52   S    
C26   H30   S    
C70   C104  S    
C20   H7    S    
C30   C84   S    
C5    H50   S    
N3    N21   A    
N2    N20   A    
C48   C64   A    
C16   H61   S    
N1    N10   A    
C69   H56   S    
C80   N30   A    
C58   H45   S    
C26   C35   S    
C5    C10   A    
C112  H47   S    
N8    Ni8   S    
C48   N17   A    
N13   N23   A    
C45   N15   A    
C13   N3    A    
C22   C92   S    
N24   Ni8   S    
C17   N4    A    
C25   C59   A    
C66   C105  S    
C29   H33   S    
C50   F2    S    
C41   N10   A    
C32   H37   S    
C50   N19   A    
N12   Ni2   S    
C9    C94   A    
C47   H34   S    
N21   Ni6   S    
C76   C90   A    
C13   C68   A    
C60   C94   S    
