data_mof_unit_57418.cif
_audit_creation_date              2012-12-10T17:19:54-0500
_audit_creation_method            fapswitch 2.2
_symmetry_space_group_name_H-M    P1
_symmetry_Int_Tables_number       1
_space_group_crystal_system       triclinic
_cell_length_a                    9.61123
_cell_length_b                    10.782085
_cell_length_c                    15.653584
_cell_angle_alpha                 87.418893
_cell_angle_beta                  73.576729
_cell_angle_gamma                 91.381142
_cell_volume                      1553.25362413

loop_
_atom_site_label
_atom_site_type_symbol
_atom_type_description
_atom_site_fract_x
_atom_site_fract_y
_atom_site_fract_z
_atom_type_partial_charge
C1    C     C_R   0.996751 0.262439 0.502746 0.871154
C2    C     C_R   0.674729 0.505158 0.907014 0.022921
C3    C     C_R   0.768905 0.454058 0.953619 -0.044315
C4    C     C_R   0.528428 0.531016 0.954327 -0.088706
C5    C     C_R   0.475055 0.490881 0.046354 -0.088930
C6    C     C_R   0.567542 0.424266 0.087298 0.492647
C7    C     C_R   0.713462 0.415270 0.042825 -0.251096
C8    C     C_R   0.431665 0.594089 0.913805 0.477661
C9    C     C_R   0.282908 0.589807 0.956360 -0.222917
C10   C     C_R   0.230060 0.547536 0.045180 0.007403
C11   C     C_R   0.328292 0.512020 0.092922 0.062197
C12   C     C_R   0.917635 0.501127 0.671443 0.973535
C13   C     C_R   0.080603 0.545290 0.088403 -0.182485
C14   C     C_R   0.028882 0.510430 0.179179 0.466255
C15   C     C_R   0.277205 0.505065 0.186234 -0.244643
C16   C     C_R   0.944475 0.115026 0.674298 0.482731
C17   C     C_R   0.958725 0.048974 0.749967 -0.312100
C18   C     C_R   0.002463 0.927609 0.744923 -0.309104
C19   C     C_R   0.028554 0.867696 0.664691 0.465815
C20   C     C_R   0.006010 0.930617 0.587785 -0.062285
C21   C     C_R   0.980971 0.059767 0.590504 -0.069622
C22   C     C_R   0.987548 0.127928 0.509779 -0.056860
C23   C     C_R   0.000255 0.737004 0.504040 0.834761
C24   C     C_R   0.992967 0.067410 0.432241 -0.210449
C25   C     C_R   0.995512 0.939433 0.432764 -0.219098
C26   C     C_R   0.004076 0.870786 0.508750 -0.047170
C27   C     C_R   0.703585 0.663976 0.379599 -0.071303
C28   C     C_R   0.660387 0.744618 0.321131 -0.174243
C29   C     C_R   0.516485 0.746068 0.322244 -0.216388
C30   C     C_R   0.414948 0.666482 0.381559 -0.147791
C31   C     C_R   0.454291 0.581551 0.441557 0.204621
C32   C     C_R   0.603989 0.580899 0.441089 0.204246
C33   C     C_R   0.545962 0.422690 0.555813 -0.056455
C34   C     C_R   0.082340 0.499416 0.328256 0.779806
C35   C     C_R   0.398202 0.422688 0.555806 -0.077633
C36   C     C_R   0.871425 0.496034 0.768931 -0.104566
C37   C     C_R   0.128603 0.503135 0.230171 -0.200384
C38   C     C_R   0.914829 0.431480 0.908460 0.488794
C39   C     C_R   0.966803 0.459136 0.816933 -0.222550
C40   C     C_R   0.727007 0.517532 0.813654 -0.230685
Cu1   Cu    Cu3+1 0.140660 0.499990 0.500010 0.956903
Cu2   Cu    Cu3+1 0.859340 0.500010 0.499990 0.953282
H1    H     H_    0.780638 0.366481 0.076618 0.201873
H2    H     H_    0.003683 0.568113 0.051728 0.179286
H3    H     H_    0.994488 0.119676 0.371139 0.120564
H4    H     H_    0.932187 0.091515 0.813572 0.162099
H5    H     H_    0.013597 0.878377 0.804342 0.168619
H6    H     H_    0.994553 0.893557 0.372671 0.117850
H7    H     H_    0.578101 0.359039 0.601398 0.127546
H8    H     H_    0.739425 0.806827 0.274802 0.137600
H9    H     H_    0.482940 0.809506 0.276856 0.142868
H10   H     H_    0.307336 0.675612 0.377389 0.192226
H11   H     H_    0.209668 0.627882 0.921337 0.162304
H12   H     H_    0.079255 0.443012 0.782914 0.160509
H13   H     H_    0.654985 0.535058 0.773472 0.221921
N1    N     N_R   0.648320 0.501210 0.499140 -0.202086
N2    N     N_R   0.352470 0.501290 0.499110 -0.204076
O1    O     O_R   0.118810 0.319640 0.500010 -0.576313
O2    O     O_R   0.881240 0.319660 0.500000 -0.576360
O3    O     O_R   0.055570 0.499980 0.629840 -0.561945
O4    O     O_R   0.818000 0.500010 0.629830 -0.595058
O5    O     O_R   0.118760 0.680340 0.500000 -0.576496
O6    O     O_R   0.881190 0.680360 0.499990 -0.613363
O7    O     O_R   0.182000 0.499990 0.370170 -0.602412
O8    O     O_R   0.944430 0.500020 0.370160 -0.569699
O9    O     O_3   0.882435 0.229409 0.684661 -0.603198
C41   C     C_3   0.730259 0.209458 0.716723 -0.344083
H14   H     H_    0.687385 0.156904 0.669336 0.159749
H15   H     H_    0.697616 0.160975 0.784069 0.156709
H16   H     H_    0.678334 0.300358 0.723496 0.187709
O10   O     O_3   0.075420 0.747765 0.662899 -0.591836
C42   C     C_3   0.222742 0.750613 0.662427 -0.234200
H17   H     H_    0.236282 0.781998 0.726448 0.152341
H18   H     H_    0.291339 0.809995 0.605148 0.150530
H19   H     H_    0.262963 0.655064 0.654794 0.203028
H20   H     H_    0.816344 0.670899 0.373466 0.189228
H21   H     H_    0.353062 0.506859 0.225484 0.236518
H22   H     H_    0.320255 0.359298 0.601648 0.137636
O11   O     O_3   0.881104 0.491278 0.217078 -0.568396
C43   C     C_3   0.850462 0.361887 0.233354 -0.260842
H23   H     H_    0.886124 0.324677 0.290649 0.160100
H24   H     H_    0.902006 0.308301 0.174138 0.134135
H25   H     H_    0.731347 0.344650 0.250474 0.221257
O12   O     O_3   0.007636 0.384880 0.954318 -0.600361
C44   C     C_3   0.028829 0.258534 0.936979 -0.373736
H26   H     H_    0.090719 0.247204 0.866289 0.172603
H27   H     H_    0.923753 0.204035 0.954434 0.151375
H28   H     H_    0.093993 0.219758 0.979385 0.188530
O13   O     O_3   0.516734 0.361091 0.169583 -0.592465
C45   C     C_3   0.468706 0.240546 0.156810 -0.366626
H29   H     H_    0.426031 0.190528 0.222975 0.195618
H30   H     H_    0.559702 0.186914 0.116735 0.152505
H31   H     H_    0.378823 0.243401 0.124928 0.171350
O14   O     O_3   0.477913 0.662194 0.833322 -0.604638
C46   C     C_3   0.533055 0.779102 0.848280 -0.356995
H32   H     H_    0.629525 0.769989 0.873778 0.178538
H33   H     H_    0.448021 0.831365 0.894892 0.154561
H34   H     H_    0.568443 0.834375 0.783822 0.192940

loop_
_geom_bond_atom_site_label_1
_geom_bond_atom_site_label_2
_ccdc_geom_bond_type
C24   C25   A    
C16   C21   A    
C34   C37   S    
Cu1   Cu2   S    
C19   O10   S    
C19   C20   A    
C4    C8    A    
C18   H5    S    
C46   H34   S    
C15   H21   S    
C44   H26   S    
C24   H3    S    
C28   C29   A    
Cu1   O1    S    
C5    C11   A    
C3    C7    A    
C42   H19   S    
C38   C39   A    
C39   H12   S    
C16   C17   A    
C33   H7    S    
C18   C19   A    
C23   C26   S    
C15   C37   A    
Cu2   N1    S    
C28   H8    S    
C23   O5    A    
C46   H32   S    
C3    C38   A    
C8    C9    A    
Cu2   O8    S    
C7    H1    S    
C12   C36   S    
C9    C10   A    
C33   N1    A    
C23   O6    A    
O9    C41   S    
C1    C22   S    
C21   C22   A    
C11   C15   A    
Cu1   O5    S    
C43   H25   S    
C34   O8    A    
C44   H27   S    
C41   H14   S    
C36   C40   A    
C8    O14   S    
C17   H4    S    
C43   H24   S    
C42   H17   S    
C25   C26   A    
C41   H15   S    
C2    C4    A    
C29   C30   A    
C45   H30   S    
C31   C32   A    
C25   H6    S    
C30   C31   A    
C40   H13   S    
C34   O7    A    
C17   C18   A    
C14   O11   S    
O12   C44   S    
Cu2   O4    S    
C42   H18   S    
C22   C24   A    
C9    H11   S    
C27   H20   S    
C45   H31   S    
C29   H9    S    
C44   H28   S    
C30   H10   S    
C38   O12   S    
C27   C32   A    
C36   C39   A    
Cu1   O3    S    
C43   H23   S    
C10   C13   A    
Cu2   O2    S    
C46   H33   S    
C6    C7    A    
C6    O13   S    
C35   H22   S    
C35   N2    A    
C41   H16   S    
C31   N2    A    
C1    O2    A    
C2    C3    A    
Cu1   N2    S    
O10   C42   S    
C1    O1    A    
C14   C37   A    
C12   O4    A    
C45   H29   S    
C5    C6    A    
C20   C26   A    
C33   C35   A    
O14   C46   S    
C10   C11   A    
O11   C43   S    
C12   O3    A    
C2    C40   A    
C4    C5    A    
C16   O9    S    
C20   C21   A    
C27   C28   A    
Cu1   O7    S    
O13   C45   S    
C13   C14   A    
Cu2   O6    S    
C32   N1    A    
C13   H2    S    
