data_mof_unit_15386.cif
_audit_creation_date              2012-12-11T14:40:59-0500
_audit_creation_method            fapswitch 2.2
_symmetry_space_group_name_H-M    P1
_symmetry_Int_Tables_number       1
_space_group_crystal_system       monoclinic
_cell_length_a                    6.942304
_cell_length_b                    17.796465
_cell_length_c                    18.915478
_cell_angle_alpha                 90.0
_cell_angle_beta                  89.999986
_cell_angle_gamma                 90.0
_cell_volume                      2336.97836916

loop_
_atom_site_label
_atom_site_type_symbol
_atom_type_description
_atom_site_fract_x
_atom_site_fract_y
_atom_site_fract_z
_atom_type_partial_charge
O1    O     O_R   0.377350 0.828520 0.186660 -0.538025
O2    O     O_R   0.622650 0.171480 0.813340 -0.538025
O3    O     O_R   0.122650 0.171480 0.686660 -0.538025
O4    O     O_R   0.877350 0.828520 0.313340 -0.538025
O5    O     O_R   0.877350 0.671480 0.313340 -0.538025
O6    O     O_R   0.122650 0.328520 0.686660 -0.538025
O7    O     O_R   0.622650 0.328520 0.813340 -0.538025
O8    O     O_R   0.377350 0.671480 0.186660 -0.538025
O9    O     O_R   0.707090 0.671930 0.178410 -0.541665
O10   O     O_R   0.292910 0.328070 0.821590 -0.541665
O11   O     O_R   0.792910 0.328070 0.678410 -0.541665
O12   O     O_R   0.207090 0.671930 0.321590 -0.541665
O13   O     O_R   0.207090 0.828070 0.321590 -0.541665
O14   O     O_R   0.792910 0.171930 0.678410 -0.541665
O15   O     O_R   0.292910 0.171930 0.821590 -0.541665
O16   O     O_R   0.707090 0.828070 0.178410 -0.541665
C1    C     C_R   0.539708 0.645590 0.161573 0.709470
C2    C     C_R   0.460292 0.354410 0.838427 0.709470
C3    C     C_R   0.960292 0.354410 0.661573 0.709470
C4    C     C_R   0.039708 0.645590 0.338427 0.709470
C5    C     C_R   0.039708 0.854410 0.338427 0.709470
C6    C     C_R   0.960292 0.145590 0.661573 0.709470
C7    C     C_R   0.460292 0.145590 0.838427 0.709470
C8    C     C_R   0.539708 0.854410 0.161573 0.709470
O17   O     O_3   0.543850 0.750000 0.294270 -0.368186
O18   O     O_3   0.456150 0.250000 0.705730 -0.368186
O19   O     O_3   0.956150 0.250000 0.794270 -0.368186
O20   O     O_3   0.043850 0.750000 0.205730 -0.368186
V1    V     V_3+5 0.818700 0.750000 0.241790 1.391778
V2    V     V_3+5 0.181300 0.250000 0.758210 1.391778
V3    V     V_3+5 0.681300 0.250000 0.741790 1.391778
V4    V     V_3+5 0.318700 0.750000 0.258210 1.391778
C9    C     C_R   0.958348 0.416349 0.608703 -0.104285
C10   C     C_R   0.041652 0.583651 0.391297 -0.104284
C11   C     C_R   0.541652 0.583651 0.108703 -0.104284
C12   C     C_R   0.458348 0.416349 0.891297 -0.104284
C13   C     C_R   0.458348 0.083651 0.891297 -0.104284
C14   C     C_R   0.541652 0.916349 0.108703 -0.104284
C15   C     C_R   0.041652 0.916349 0.391297 -0.104285
C16   C     C_R   0.958348 0.083651 0.608703 -0.104285
C17   C     C_R   0.217813 0.477794 0.444345 0.135528
C18   C     C_R   0.782187 0.522206 0.555655 0.135528
C19   C     C_R   0.282187 0.522206 0.944345 0.135528
C20   C     C_R   0.717813 0.477794 0.055655 0.135528
C21   C     C_R   0.717813 0.022206 0.055655 0.135528
C22   C     C_R   0.282187 0.977794 0.944345 0.135528
C23   C     C_R   0.782187 0.977794 0.555655 0.135528
C24   C     C_R   0.217813 0.022206 0.444345 0.135528
C25   C     C_R   0.195758 0.532746 0.391232 -0.164411
C26   C     C_R   0.804242 0.467254 0.608768 -0.164411
C27   C     C_R   0.304242 0.467254 0.891232 -0.164411
C28   C     C_R   0.695758 0.532746 0.108768 -0.164411
C29   C     C_R   0.695758 0.967254 0.108768 -0.164411
C30   C     C_R   0.304242 0.032746 0.891232 -0.164411
C31   C     C_R   0.804242 0.032746 0.608768 -0.164411
C32   C     C_R   0.195758 0.967254 0.391232 -0.164411
C33   C     C_R   0.904343 0.579303 0.445054 -0.262466
C34   C     C_R   0.095657 0.420696 0.554946 -0.262466
C35   C     C_R   0.595657 0.420696 0.945054 -0.262466
C36   C     C_R   0.404343 0.579303 0.054946 -0.262466
C37   C     C_R   0.404343 0.920696 0.054946 -0.262466
C38   C     C_R   0.595657 0.079303 0.945054 -0.262466
C39   C     C_R   0.095657 0.079303 0.554945 -0.262466
C40   C     C_R   0.904343 0.920696 0.445054 -0.262466
C41   C     C_R   0.920594 0.525568 0.500128 0.084427
C42   C     C_R   0.079406 0.474432 0.499872 0.084427
C43   C     C_R   0.579406 0.474432 0.000128 0.084427
C44   C     C_R   0.420594 0.525568 0.999872 0.084427
C45   C     C_R   0.420594 0.974432 0.999872 0.084427
C46   C     C_R   0.579406 0.025568 0.000128 0.084427
C47   C     C_R   0.079406 0.025568 0.499872 0.084427
C48   C     C_R   0.920594 0.974432 0.500128 0.084427
H1    H     H_    0.211264 0.380016 0.555764 0.122355
H2    H     H_    0.788736 0.619984 0.444236 0.122355
H3    H     H_    0.288736 0.619984 0.055764 0.122355
H4    H     H_    0.711264 0.380016 0.944236 0.122355
H5    H     H_    0.711264 0.119984 0.944236 0.122355
H6    H     H_    0.288736 0.880016 0.055764 0.122355
H7    H     H_    0.788736 0.880016 0.444236 0.122355
H8    H     H_    0.211264 0.119984 0.555764 0.122355
H9    H     H_    0.700536 0.462842 0.651143 0.135652
H10   H     H_    0.299463 0.537158 0.348857 0.135652
H11   H     H_    0.799463 0.537158 0.151143 0.135652
H12   H     H_    0.200536 0.462842 0.848857 0.135652
H13   H     H_    0.200536 0.037158 0.848857 0.135652
H14   H     H_    0.799463 0.962842 0.151143 0.135652
H15   H     H_    0.299463 0.962842 0.348857 0.135652
H16   H     H_    0.700536 0.037158 0.651143 0.135652
C49   C     C_3   0.387665 0.423025 0.443068 -0.370602
C50   C     C_3   0.533057 0.432825 0.382937 -0.768297
H17   H     H_    0.462967 0.422998 0.330967 0.223323
H18   H     H_    0.597881 0.489814 0.384483 0.229609
H19   H     H_    0.650961 0.391167 0.389165 0.225268
H20   H     H_    0.468813 0.428507 0.493415 0.193563
H21   H     H_    0.330356 0.364814 0.439788 0.178759
C51   C     C_3   0.612335 0.576975 0.556932 -0.370602
C52   C     C_3   0.466943 0.567175 0.617063 -0.768297
H22   H     H_    0.402119 0.510186 0.615517 0.229609
H23   H     H_    0.537033 0.577002 0.669033 0.223323
H24   H     H_    0.349039 0.608833 0.610835 0.225268
H25   H     H_    0.669644 0.635185 0.560212 0.178759
H26   H     H_    0.531187 0.571492 0.506585 0.193563
C53   C     C_3   0.112335 0.576975 0.943068 -0.370602
C54   C     C_3   0.966943 0.567175 0.882937 -0.768297
H27   H     H_    0.037033 0.577002 0.830967 0.223323
H28   H     H_    0.902119 0.510186 0.884483 0.229609
H29   H     H_    0.849039 0.608833 0.889165 0.225268
H30   H     H_    0.031187 0.571492 0.993415 0.193563
H31   H     H_    0.169644 0.635185 0.939788 0.178759
C55   C     C_3   0.887665 0.423025 0.056932 -0.370602
C56   C     C_3   0.033057 0.432825 0.117063 -0.768297
H32   H     H_    0.097881 0.489814 0.115517 0.229610
H33   H     H_    0.962967 0.422998 0.169033 0.223323
H34   H     H_    0.150961 0.391167 0.110835 0.225268
H35   H     H_    0.830356 0.364814 0.060212 0.178759
H36   H     H_    0.968813 0.428507 0.006585 0.193563
C57   C     C_3   0.887665 0.076975 0.056932 -0.370601
C58   C     C_3   0.033057 0.067175 0.117062 -0.768297
H37   H     H_    0.962967 0.077002 0.169033 0.223323
H38   H     H_    0.097881 0.010186 0.115517 0.229609
H39   H     H_    0.150961 0.108833 0.110835 0.225268
H40   H     H_    0.968813 0.071493 0.006585 0.193563
H41   H     H_    0.830356 0.135185 0.060212 0.178758
C59   C     C_3   0.112335 0.923025 0.943068 -0.370602
C60   C     C_3   0.966943 0.932825 0.882937 -0.768297
H42   H     H_    0.902119 0.989814 0.884483 0.229609
H43   H     H_    0.037033 0.922998 0.830967 0.223323
H44   H     H_    0.849039 0.891167 0.889165 0.225268
H45   H     H_    0.169644 0.864814 0.939788 0.178759
H46   H     H_    0.031187 0.928507 0.993415 0.193563
C61   C     C_3   0.612335 0.923025 0.556932 -0.370602
C62   C     C_3   0.466943 0.932825 0.617063 -0.768296
H47   H     H_    0.537033 0.922998 0.669033 0.223323
H48   H     H_    0.402119 0.989814 0.615517 0.229609
H49   H     H_    0.349039 0.891167 0.610835 0.225268
H50   H     H_    0.531187 0.928508 0.506585 0.193563
H51   H     H_    0.669644 0.864814 0.560212 0.178759
C63   C     C_3   0.387665 0.076975 0.443068 -0.370602
C64   C     C_3   0.533057 0.067175 0.382937 -0.768297
H52   H     H_    0.597881 0.010186 0.384483 0.229609
H53   H     H_    0.462967 0.077002 0.330967 0.223323
H54   H     H_    0.650961 0.108833 0.389165 0.225268
H55   H     H_    0.330356 0.135185 0.439788 0.178759
H56   H     H_    0.468813 0.071492 0.493415 0.193563

loop_
_geom_bond_atom_site_label_1
_geom_bond_atom_site_label_2
_ccdc_geom_bond_type
C33   H2    S    
C17   C49   S    
C9    C34   A    
C51   H26   S    
C28   H11   S    
C38   H5    S    
C56   H32   S    
O14   V3    S    
C12   C35   A    
C54   H28   S    
C52   H22   S    
O5    C4    A    
C15   C40   A    
O11   C3    A    
C16   C39   A    
O12   C4    A    
C50   H19   S    
C18   C51   S    
O20   V1    S    
O6    C3    A    
C63   H55   S    
C62   H49   S    
C64   H54   S    
C37   C45   A    
C31   H16   S    
C38   C46   A    
C49   H20   S    
C55   C56   S    
C22   C45   A    
O13   V4    S    
C35   C43   A    
C58   H37   S    
C34   C42   A    
C62   H47   S    
C18   C41   A    
C8    C14   S    
C29   H14   S    
O4    V1    S    
O9    V1    S    
C14   C37   A    
C4    C10   S    
C20   C28   A    
O17   V4    S    
O15   C7    A    
O11   V3    S    
O18   V3    S    
O16   C8    A    
C51   H25   S    
O12   V4    S    
O19   V2    S    
C22   C59   S    
C17   C25   A    
C54   H27   S    
C52   H23   S    
C13   C38   A    
O5    V1    S    
C39   H8    S    
O17   V1    S    
O7    V3    S    
O19   V3    S    
C43   C44   A    
O8    V4    S    
O20   V4    S    
C61   H50   S    
C3    C9    S    
C19   C44   A    
C32   H15   S    
O16   V1    S    
C7    C13   S    
O1    V4    S    
C23   C61   S    
O2    V3    S    
C58   H39   S    
C25   H10   S    
C49   H21   S    
O3    V2    S    
C57   H40   S    
C61   H51   S    
C60   H44   S    
O10   V2    S    
C50   H18   S    
C15   C32   A    
C5    C15   S    
C37   H6    S    
O7    C2    A    
C6    C16   S    
C51   C52   S    
C22   C30   A    
C59   H46   S    
C56   H33   S    
C53   H30   S    
C12   C27   A    
C18   C26   A    
C13   C30   A    
O9    C1    A    
O6    V2    S    
C39   C47   A    
O18   V2    S    
C60   H42   S    
C40   H7    S    
C24   C47   A    
C61   C62   S    
C55   H36   S    
C11   C28   A    
C52   H24   S    
O15   V2    S    
C23   C31   A    
C26   H9    S    
C21   C57   S    
C24   C32   A    
C10   C25   A    
C21   C46   A    
C33   C41   A    
C20   C43   A    
C19   C53   S    
C16   C31   A    
C30   H13   S    
C64   H52   S    
C17   C42   A    
C27   H12   S    
C36   H3    S    
O8    C1    A    
C24   C63   S    
C53   H31   S    
O14   C6    A    
C9    C26   A    
C47   C48   A    
C63   H56   S    
C57   C58   S    
O13   C5    A    
O4    C5    A    
C64   H53   S    
C19   C27   A    
C50   H17   S    
C14   C29   A    
O10   C2    A    
C10   C33   A    
C35   H4    S    
C59   H45   S    
C56   H34   S    
O2    C7    A    
C40   C48   A    
C57   H41   S    
C45   C46   A    
C58   H38   S    
C23   C48   A    
C63   C64   S    
C21   C29   A    
C36   C44   A    
O1    C8    A    
C62   H48   S    
C41   C42   A    
C53   C54   S    
C60   H43   S    
C11   C36   A    
O3    C6    A    
C1    C11   S    
C49   C50   S    
C2    C12   S    
C55   H35   S    
C54   H29   S    
C34   H1    S    
C59   C60   S    
C20   C55   S    
