data_mof_unit_68275.cif
_audit_creation_date              2012-12-11T14:39:36-0500
_audit_creation_method            fapswitch 2.2
_symmetry_space_group_name_H-M    P1
_symmetry_Int_Tables_number       1
_space_group_crystal_system       triclinic
_cell_length_a                    7.227552
_cell_length_b                    13.834466
_cell_length_c                    16.74068
_cell_angle_alpha                 90.119813
_cell_angle_beta                  96.490362
_cell_angle_gamma                 89.56051
_cell_volume                      1663.11090968

loop_
_atom_site_label
_atom_site_type_symbol
_atom_type_description
_atom_site_fract_x
_atom_site_fract_y
_atom_site_fract_z
_atom_type_partial_charge
O1    O     O_R   0.525340 0.338340 0.164530 -0.564871
O2    O     O_R   0.474660 0.661660 0.835470 -0.562300
O3    O     O_R   0.974660 0.838340 0.835470 -0.558987
O4    O     O_R   0.025340 0.161660 0.164530 -0.543310
O5    O     O_R   0.253520 0.352000 0.336710 -0.532852
O6    O     O_R   0.746480 0.648000 0.663290 -0.470673
O7    O     O_R   0.246480 0.852000 0.663290 -0.533747
O8    O     O_R   0.753520 0.148000 0.336710 -0.526214
O9    O     O_R   0.083330 0.168380 0.337300 -0.513017
O10   O     O_R   0.916670 0.831620 0.662700 -0.506883
O11   O     O_R   0.416670 0.668380 0.662700 -0.536271
O12   O     O_R   0.583330 0.331620 0.337300 -0.505342
C1    C     C_R   0.430750 0.377111 0.358118 0.911732
C2    C     C_R   0.571314 0.623711 0.641397 0.778950
C3    C     C_R   0.068350 0.877094 0.642410 0.886479
C4    C     C_R   0.931112 0.122428 0.357427 0.899926
O13   O     O_R   0.195840 0.349670 0.165140 -0.484347
O14   O     O_R   0.804160 0.650330 0.834860 -0.485264
O15   O     O_R   0.304160 0.849670 0.834860 -0.489172
O16   O     O_R   0.695840 0.150330 0.165140 -0.493934
C5    C     C_R   0.355438 0.364779 0.133168 0.772093
C6    C     C_R   0.643654 0.632144 0.864963 0.639467
C7    C     C_R   0.144375 0.863436 0.867258 0.771789
C8    C     C_R   0.855824 0.135650 0.133239 0.751812
O17   O     O_3   0.387830 0.193120 0.250910 -0.372046
O18   O     O_3   0.612170 0.806880 0.749090 -0.374344
O19   O     O_3   0.112170 0.693120 0.749090 -0.353961
O20   O     O_3   0.887830 0.306880 0.250910 -0.378606
V1    V     V_3+5 0.113010 0.264540 0.250910 1.728230
V2    V     V_3+5 0.886990 0.735460 0.749090 1.776797
V3    V     V_3+5 0.386990 0.764540 0.749090 1.684533
V4    V     V_3+5 0.613010 0.235460 0.250910 1.692090
C9    C     C_R   0.032094 0.204734 0.510843 0.267732
C10   C     C_R   0.967844 0.792088 0.489761 0.340032
C11   C     C_R   0.464056 0.710047 0.488059 0.298569
C12   C     C_R   0.528138 0.297894 0.516642 0.320319
C13   C     C_R   0.140902 0.243990 0.576344 -0.188645
C14   C     C_R   0.865572 0.749869 0.424124 -0.347697
C15   C     C_R   0.359349 0.751054 0.421983 -0.259231
C16   C     C_R   0.591525 0.259372 0.592005 -0.354024
C17   C     C_R   0.197004 0.188411 0.642687 0.374950
C18   C     C_R   0.810778 0.803461 0.356183 0.341576
C19   C     C_R   0.297658 0.695685 0.356639 0.335974
C20   C     C_R   0.668620 0.317942 0.654103 0.418530
C21   C     C_R   0.121228 0.095794 0.647778 0.223321
C22   C     C_R   0.874798 0.898524 0.351197 0.363438
C23   C     C_R   0.365527 0.600375 0.351153 0.243248
C24   C     C_R   0.697143 0.415455 0.639119 0.343256
C25   C     C_R   0.055755 0.044524 0.575399 -0.193378
C26   C     C_R   0.938873 0.951961 0.423400 -0.193593
C27   C     C_R   0.439193 0.548750 0.422774 -0.177252
C28   C     C_R   0.596734 0.461119 0.570520 -0.194609
C29   C     C_R   0.016304 0.101321 0.503929 -0.010174
C30   C     C_R   0.979616 0.895638 0.495397 -0.024296
C31   C     C_R   0.483453 0.606634 0.493644 -0.007863
C32   C     C_R   0.529326 0.401016 0.504279 -0.023109
C33   C     C_R   0.034272 0.941360 0.570774 -0.111702
C34   C     C_R   0.962342 0.056046 0.428174 -0.101107
C35   C     C_R   0.464608 0.444410 0.428437 -0.097510
C36   C     C_R   0.552485 0.562272 0.567641 -0.065221
H1    H     H_    0.177022 0.319832 0.576840 0.174248
H2    H     H_    0.838148 0.672950 0.424287 0.136834
H3    H     H_    0.328466 0.827865 0.420367 0.159184
H4    H     H_    0.582124 0.182342 0.602287 0.112669
H5    H     H_    0.084937 0.001571 0.091179 0.209697
H6    H     H_    0.899313 0.987755 0.911488 0.219270
H7    H     H_    0.420952 0.495895 0.906350 0.178958
H8    H     H_    0.604796 0.483601 0.086449 0.198305
C37   C     C_2   0.153065 0.917747 0.945067 0.298982
C38   C     C_2   0.847231 0.083877 0.054395 0.277594
C39   C     C_2   0.346302 0.418877 0.055034 0.291633
C40   C     C_2   0.652238 0.581202 0.944192 0.294106
C41   C     C_2   0.007462 0.975165 0.960544 -0.123665
C42   C     C_2   0.984927 0.020494 0.040498 -0.073772
C43   C     C_2   0.494085 0.472993 0.038211 -0.108734
C44   C     C_2   0.517420 0.516791 0.957675 -0.113020
O21   O     O_3   0.710520 0.761026 0.290359 -0.565450
H9    H     H_    0.693904 0.691740 0.301714 0.321992
O22   O     O_3   0.304665 0.231682 0.705995 -0.575086
H10   H     H_    0.367335 0.180511 0.740632 0.361322
O23   O     O_3   0.730521 0.280178 0.728760 -0.533585
H11   H     H_    0.697244 0.210864 0.729857 0.339884
O24   O     O_3   0.187937 0.740773 0.294869 -0.565165
H12   H     H_    0.110415 0.690983 0.264826 0.385569
O25   O     O_3   0.940403 0.266857 0.454641 -0.633259
H13   H     H_    0.963085 0.335071 0.471152 0.291225
O26   O     O_3   0.061742 0.732070 0.546851 -0.626129
H14   H     H_    0.061672 0.664847 0.526273 0.308374
O27   O     O_3   0.552065 0.770788 0.546018 -0.627349
H15   H     H_    0.526514 0.839408 0.531232 0.279149
O28   O     O_3   0.449623 0.235447 0.457810 -0.639723
H16   H     H_    0.463888 0.167427 0.476271 0.283513
S1    S     S_3+6 0.067911 0.066731 0.744803 -0.014745
O29   O     O_2   0.240045 0.021518 0.787022 -0.344645
O30   O     O_2   0.029242 0.157240 0.789936 -0.242663
O31   O     O_3   0.880860 0.995496 0.743903 -0.520523
H17   H     H_    0.779757 0.030727 0.710901 0.314347
S2    S     S_3+6 0.890538 0.935309 0.251735 0.021591
O32   O     O_2   0.051875 0.001691 0.247997 -0.381823
O33   O     O_2   0.919194 0.850815 0.197685 -0.228326
O34   O     O_3   0.684016 0.985584 0.219986 -0.499322
H18   H     H_    0.592595 0.932702 0.220411 0.375942
S3    S     S_3+6 0.389860 0.563890 0.252391 -0.029094
O35   O     O_2   0.212690 0.514004 0.222702 -0.333120
O36   O     O_2   0.408062 0.649586 0.198767 -0.255244
O37   O     O_3   0.580129 0.494276 0.249345 -0.548095
H19   H     H_    0.682090 0.538859 0.240215 0.354791
S4    S     S_3+6 0.915307 0.457755 0.684178 0.033990
O38   O     O_2   0.891243 0.504727 0.762534 -0.297122
O39   O     O_2   0.046500 0.374432 0.702673 -0.302614
O40   O     O_3   0.010973 0.533835 0.622700 -0.523013
H20   H     H_    0.147239 0.524178 0.634507 0.335928
S5    S     S_3+6 0.683179 0.126689 0.974953 0.137102
O41   O     O_2   0.784193 0.183002 0.916849 -0.260509
O42   O     O_2   0.584897 0.044042 0.930467 -0.250069
O43   O     O_3   0.523946 0.198934 0.010816 -0.453142
H21   H     H_    0.584271 0.262949 0.016613 0.331945
S6    S     S_3+6 0.337852 0.890119 0.021112 0.110344
O44   O     O_2   0.493384 0.837778 0.986467 -0.298284
O45   O     O_2   0.411681 0.981508 0.061178 -0.298988
O46   O     O_3   0.254586 0.819150 0.090033 -0.416301
H22   H     H_    0.332916 0.833015 0.141134 0.417552
S7    S     S_3+6 0.806354 0.628554 0.025005 0.163706
O47   O     O_2   0.694591 0.679943 0.082816 -0.245789
O48   O     O_2   0.915753 0.548827 0.069545 -0.248175
O49   O     O_3   0.955541 0.706901 0.990906 -0.445993
H23   H     H_    0.885804 0.768834 0.984866 0.345358
S8    S     S_3+6 0.159209 0.393874 0.979620 0.109657
O50   O     O_2   0.001167 0.346088 0.015011 -0.309642
O51   O     O_2   0.090551 0.485964 0.938549 -0.278661
O52   O     O_3   0.237390 0.319383 0.911203 -0.442159
H24   H     H_    0.142210 0.323313 0.863888 0.448945

loop_
_geom_bond_atom_site_label_1
_geom_bond_atom_site_label_2
_ccdc_geom_bond_type
O26   H14   S    
O1    C5    A    
O34   H18   S    
O13   V1    S    
C41   C42   S    
C7    C37   S    
O3    C7    A    
O40   H20   S    
C40   C44   D    
O15   V3    S    
S8    O50   D    
S6    O45   D    
O23   H11   S    
C8    C38   S    
S7    O47   D    
O21   H9    S    
O43   H21   S    
H8    C43   S    
O49   H23   S    
C5    C39   S    
O20   V1    S    
O9    C4    A    
C14   C18   A    
O10   C3    A    
O4    C8    A    
O11   C2    A    
S7    O48   D    
O37   H19   S    
C37   S6    S    
C19   O24   S    
S4    O38   D    
C18   C22   A    
C9    O25   S    
S6    O44   D    
C28   C36   A    
C23   C27   A    
O16   C8    A    
C38   C42   D    
C37   C41   D    
O14   V2    S    
C16   C20   A    
O5    C1    A    
O4    V1    S    
O9    V1    S    
S5    O43   S    
O17   V4    S    
O7    C3    A    
C22   S2    S    
C21   S1    S    
O18   V3    S    
O8    C4    A    
C10   C14   A    
C31   C36   A    
O12   V4    S    
O19   V2    S    
C3    C33   S    
C6    C40   S    
O5    V1    S    
C38   S5    S    
C9    C29   A    
C23   S3    S    
C11   C31   A    
C26   C34   A    
C12   C16   A    
O7    V3    S    
C20   O23   S    
O28   H16   S    
O15   C7    A    
S7    O49   S    
C15   C19   A    
O25   H13   S    
H6    C41   S    
O1    V4    S    
O13   C5    A    
H5    C42   S    
O2    V3    S    
S6    O46   S    
O8    V4    S    
O3    V2    S    
C11   C15   A    
C43   C44   S    
O2    C6    A    
C12   C32   A    
O6    C2    A    
O10   V2    S    
O24   H12   S    
C21   C25   A    
O31   H17   S    
S3    O36   D    
S1    O29   D    
C4    C34   S    
O46   H22   S    
C11   O27   S    
C12   O28   S    
O6    V2    S    
C10   C30   A    
S1    O31   S    
S2    O33   D    
C40   S7    S    
C39   S8    S    
C27   C35   A    
O52   H24   S    
S8    O52   S    
C15   H3    S    
S5    O41   D    
O16   V4    S    
O14   C6    A    
S8    O51   D    
C17   O22   S    
C25   C33   A    
C13   H1    S    
C29   C34   A    
S4    O40   S    
C1    C35   S    
S2    O34   S    
C2    C36   S    
C22   C26   A    
C16   H4    S    
C32   C35   A    
C26   C30   A    
C39   C43   D    
C24   S4    S    
C25   C29   A    
S4    O39   D    
S3    O37   S    
C27   C31   A    
C10   O26   S    
C13   C17   A    
C9    C13   A    
O11   V3    S    
O22   H10   S    
C28   C32   A    
C24   C28   A    
O12   C1    A    
C18   O21   S    
S1    O30   D    
S2    O32   D    
S3    O35   D    
C17   C21   A    
H7    C44   S    
S5    O42   D    
O27   H15   S    
C19   C23   A    
C20   C24   A    
C14   H2    S    
C30   C33   A    
