data_mof_unit_61380.cif
_audit_creation_date              2012-12-10T18:02:16-0500
_audit_creation_method            fapswitch 2.2
_symmetry_space_group_name_H-M    P1
_symmetry_Int_Tables_number       1
_space_group_crystal_system       triclinic
_cell_length_a                    21.582444
_cell_length_b                    21.582498
_cell_length_c                    38.751607
_cell_angle_alpha                 89.99879
_cell_angle_beta                  89.99869
_cell_angle_gamma                 89.999358
_cell_volume                      18050.6168962

loop_
_atom_site_label
_atom_site_type_symbol
_atom_type_description
_atom_site_fract_x
_atom_site_fract_y
_atom_site_fract_z
_atom_type_partial_charge
C1    C     C_R   0.500000 0.879675 0.000000 0.892780
C2    C     C_R   0.686086 0.500000 0.999999 0.004315
C3    C     C_R   0.218517 0.549106 0.015532 -0.181541
C4    C     C_R   0.450891 0.781483 0.984472 -0.181512
C5    C     C_R   0.218519 0.450892 0.984469 -0.181574
C6    C     C_R   0.549124 0.218519 0.984486 -0.181462
C7    C     C_R   0.781483 0.549105 0.984465 -0.181568
C8    C     C_R   0.049104 0.281481 0.515534 -0.181535
C9    C     C_R   0.281483 0.950890 0.515523 -0.181300
C10   C     C_R   0.950899 0.718517 0.515538 -0.181526
C11   C     C_R   0.718516 0.049107 0.515527 -0.181312
C12   C     C_R   0.950899 0.281484 0.484463 -0.181604
C13   C     C_R   0.499999 0.313916 0.000001 0.004448
C14   C     C_R   0.718519 0.950906 0.484453 -0.182285
C15   C     C_R   0.049100 0.718517 0.484460 -0.181600
C16   C     C_R   0.281482 0.049098 0.484457 -0.182277
C17   C     C_R   0.548613 0.717516 0.015959 -0.228260
C18   C     C_R   0.717518 0.451392 0.015963 -0.228207
C19   C     C_R   0.451369 0.282484 0.015943 -0.228363
C20   C     C_R   0.282481 0.548610 0.015961 -0.228213
C21   C     C_R   0.451387 0.717519 0.984042 -0.228192
C22   C     C_R   0.282484 0.451388 0.984040 -0.228220
C23   C     C_R   0.548628 0.282484 0.984058 -0.228170
C24   C     C_R   0.313915 0.499999 0.000001 0.004323
C25   C     C_R   0.717518 0.548608 0.984035 -0.228214
C26   C     C_R   0.048607 0.217517 0.515963 -0.228199
C27   C     C_R   0.217518 0.951387 0.515953 -0.228114
C28   C     C_R   0.951396 0.782482 0.515968 -0.228193
C29   C     C_R   0.782480 0.048609 0.515959 -0.228118
C30   C     C_R   0.951395 0.217519 0.484034 -0.228217
C31   C     C_R   0.782484 0.951400 0.484029 -0.228388
C32   C     C_R   0.048603 0.782482 0.484032 -0.228213
C33   C     C_R   0.217517 0.048604 0.484032 -0.228393
C34   C     C_R   0.545327 0.891743 0.894629 0.095530
C35   C     C_R   0.000001 0.186086 0.499999 0.004318
C36   C     C_R   0.603509 0.890975 0.910826 -0.098288
C37   C     C_R   0.624743 0.837016 0.926944 -0.144373
C38   C     C_R   0.588513 0.783344 0.926500 -0.095569
C39   C     C_R   0.530911 0.783602 0.910028 -0.127396
C40   C     C_R   0.509247 0.837629 0.894184 -0.183538
C41   C     C_R   0.891743 0.454671 0.894630 0.095531
C42   C     C_R   0.890976 0.396485 0.910825 -0.098279
C43   C     C_R   0.837017 0.375248 0.926941 -0.144376
C44   C     C_R   0.783343 0.411476 0.926498 -0.095578
C45   C     C_R   0.783599 0.469081 0.910026 -0.127381
C46   C     C_R   0.186086 0.999998 0.499996 0.004483
C47   C     C_R   0.837627 0.490749 0.894184 -0.183543
C48   C     C_R   0.454681 0.108258 0.894628 0.095534
C49   C     C_R   0.396493 0.109028 0.910821 -0.098287
C50   C     C_R   0.375257 0.162985 0.926938 -0.144375
C51   C     C_R   0.411491 0.216654 0.926499 -0.095568
C52   C     C_R   0.469099 0.216395 0.910032 -0.127399
C53   C     C_R   0.490764 0.162369 0.894188 -0.183533
C54   C     C_R   0.108253 0.545335 0.894627 0.095540
C55   C     C_R   0.109018 0.603523 0.910819 -0.098276
C56   C     C_R   0.162974 0.624761 0.926936 -0.144373
C57   C     C_R   0.000000 0.813914 0.500000 0.004311
C58   C     C_R   0.216647 0.588531 0.926497 -0.095587
C59   C     C_R   0.216393 0.530924 0.910030 -0.127386
C60   C     C_R   0.162368 0.509255 0.894187 -0.183541
C61   C     C_R   0.454475 0.891854 0.105377 0.095649
C62   C     C_R   0.396257 0.891138 0.089229 -0.098165
C63   C     C_R   0.374965 0.837222 0.073099 -0.144352
C64   C     C_R   0.411174 0.783544 0.073480 -0.095704
C65   C     C_R   0.468814 0.783752 0.089904 -0.127404
C66   C     C_R   0.490535 0.837736 0.105760 -0.183606
C67   C     C_R   0.108268 0.454692 0.105371 0.095520
C68   C     C_R   0.813914 0.000001 0.499998 0.004478
C69   C     C_R   0.109044 0.396509 0.089172 -0.098295
C70   C     C_R   0.163009 0.375280 0.073058 -0.144381
C71   C     C_R   0.216680 0.411514 0.073506 -0.095554
C72   C     C_R   0.216414 0.469116 0.089980 -0.127376
C73   C     C_R   0.162381 0.490775 0.105820 -0.183533
C74   C     C_R   0.545598 0.108123 0.105354 0.095766
C75   C     C_R   0.603876 0.108753 0.089274 -0.098057
C76   C     C_R   0.625281 0.162614 0.073133 -0.144329
C77   C     C_R   0.589122 0.216325 0.073434 -0.095798
C78   C     C_R   0.531422 0.216204 0.089790 -0.127312
C79   C     C_R   0.500000 0.813318 0.000001 0.019001
C80   C     C_R   0.509588 0.162273 0.105657 -0.183681
C81   C     C_R   0.891730 0.545302 0.105373 0.095517
C82   C     C_R   0.890952 0.603483 0.089172 -0.098299
C83   C     C_R   0.836987 0.624710 0.073057 -0.144379
C84   C     C_R   0.783318 0.588475 0.073508 -0.095560
C85   C     C_R   0.783585 0.530874 0.089985 -0.127387
C86   C     C_R   0.837618 0.509217 0.105825 -0.183530
C87   C     C_R   0.045357 0.391756 0.394630 0.095547
C88   C     C_R   0.103546 0.391003 0.410821 -0.098262
C89   C     C_R   0.124794 0.337052 0.426941 -0.144365
C90   C     C_R   0.813318 0.500000 1.000000 0.018993
C91   C     C_R   0.088574 0.283373 0.426505 -0.095576
C92   C     C_R   0.030967 0.283616 0.410037 -0.127368
C93   C     C_R   0.009288 0.337635 0.394191 -0.183555
C94   C     C_R   0.392058 0.953929 0.394654 0.095980
C95   C     C_R   0.391616 0.895587 0.410680 -0.097761
C96   C     C_R   0.337857 0.874020 0.426872 -0.144138
C97   C     C_R   0.284062 0.910083 0.426676 -0.095950
C98   C     C_R   0.283994 0.967842 0.410367 -0.127167
C99   C     C_R   0.337824 0.989838 0.394451 -0.183804
C100  C     C_R   0.954648 0.608246 0.394628 0.095544
C101  C     C_R   0.499999 0.186683 0.000000 0.019010
C102  C     C_R   0.896461 0.608999 0.410822 -0.098264
C103  C     C_R   0.875214 0.662949 0.426942 -0.144361
C104  C     C_R   0.911434 0.716628 0.426504 -0.095580
C105  C     C_R   0.969039 0.716386 0.410033 -0.127376
C106  C     C_R   0.990717 0.662367 0.394187 -0.183551
C107  C     C_R   0.607911 0.046074 0.394636 0.095995
C108  C     C_R   0.608384 0.104416 0.410661 -0.097780
C109  C     C_R   0.662155 0.125954 0.426850 -0.144145
C110  C     C_R   0.715930 0.089862 0.426654 -0.095933
C111  C     C_R   0.715967 0.032102 0.410347 -0.127220
C112  C     C_R   0.879675 0.500000 1.000000 0.892800
C113  C     C_R   0.186682 0.499999 0.000000 0.018990
C114  C     C_R   0.662125 0.010135 0.394433 -0.183786
C115  C     C_R   0.954696 0.391733 0.605373 0.095519
C116  C     C_R   0.896517 0.390959 0.589172 -0.098296
C117  C     C_R   0.875290 0.336995 0.573057 -0.144379
C118  C     C_R   0.911524 0.283325 0.573508 -0.095570
C119  C     C_R   0.969123 0.283589 0.589985 -0.127398
C120  C     C_R   0.990779 0.337621 0.605826 -0.183531
C121  C     C_R   0.608285 0.954734 0.605371 0.095503
C122  C     C_R   0.609078 0.896561 0.589165 -0.098336
C123  C     C_R   0.663051 0.875350 0.573053 -0.144370
C124  C     C_R   0.000001 0.313318 0.499999 0.018993
C125  C     C_R   0.716714 0.911592 0.573513 -0.095503
C126  C     C_R   0.716431 0.969185 0.589994 -0.127436
C127  C     C_R   0.662389 0.990826 0.605832 -0.183524
C128  C     C_R   0.045296 0.608271 0.605371 0.095511
C129  C     C_R   0.103473 0.609050 0.589166 -0.098303
C130  C     C_R   0.124696 0.663017 0.573052 -0.144384
C131  C     C_R   0.088462 0.716688 0.573509 -0.095560
C132  C     C_R   0.030866 0.716419 0.589990 -0.127396
C133  C     C_R   0.009213 0.662384 0.605830 -0.183532
C134  C     C_R   0.391715 0.045258 0.605374 0.095500
C135  C     C_R   0.313318 0.999996 0.499991 0.019026
C136  C     C_R   0.390917 0.103431 0.589167 -0.098340
C137  C     C_R   0.336941 0.124637 0.573056 -0.144372
C138  C     C_R   0.283283 0.088391 0.573518 -0.095509
C139  C     C_R   0.283571 0.030798 0.590000 -0.127444
C140  C     C_R   0.337614 0.009161 0.605837 -0.183517
C141  C     C_R   0.999999 0.686682 0.499999 0.018994
C142  C     C_R   0.686682 0.000005 0.499991 0.019022
C143  C     C_R   0.379753 0.500000 0.000000 0.860918
C144  C     C_R   0.500000 0.620247 1.000000 0.860921
C145  C     C_R   0.620247 0.500000 1.000000 0.860918
C146  C     C_R   0.500000 0.379754 0.000000 0.860922
C147  C     C_R   0.879753 0.000000 0.500000 0.860921
C148  C     C_R   0.500000 0.120326 0.000000 0.892796
C149  C     C_R   1.000000 0.120247 0.500000 0.860918
C150  C     C_R   0.120247 1.000000 0.499999 0.860918
C151  C     C_R   0.000000 0.879753 0.500000 0.860917
C152  C     C_R   0.500001 0.999999 0.932687 0.893634
C153  C     C_R   0.999999 0.500000 0.932687 0.893649
C154  C     C_R   0.499999 0.999997 0.067312 0.893684
C155  C     C_R   1.000000 0.499999 0.067312 0.893646
C156  C     C_R   0.000001 0.500000 0.432687 0.893651
C157  C     C_R   0.499997 0.000001 0.432688 0.893693
C158  C     C_R   0.999999 0.500001 0.567312 0.893648
C159  C     C_R   0.120325 0.500000 0.000000 0.892805
C160  C     C_R   0.500000 0.999999 0.567312 0.893614
C161  C     C_R   0.523046 0.948167 0.876849 -0.025457
C162  C     C_R   0.948167 0.476954 0.876850 -0.025458
C163  C     C_R   0.476963 0.051835 0.876849 -0.025457
C164  C     C_R   0.051831 0.523049 0.876848 -0.025460
C165  C     C_R   0.476830 0.948242 0.123154 -0.025523
C166  C     C_R   0.051839 0.476965 0.123150 -0.025455
C167  C     C_R   0.523137 0.051792 0.123144 -0.025576
C168  C     C_R   0.948160 0.523030 0.123151 -0.025453
C169  C     C_R   0.023060 0.448174 0.376849 -0.025463
C170  C     C_R   0.000000 0.379675 0.499999 0.892809
C171  C     C_R   0.448307 0.976604 0.376857 -0.025650
C172  C     C_R   0.976946 0.551828 0.376848 -0.025461
C173  C     C_R   0.551647 0.023424 0.376848 -0.025650
C174  C     C_R   0.976967 0.448162 0.623152 -0.025452
C175  C     C_R   0.551848 0.976986 0.623150 -0.025445
C176  C     C_R   0.023029 0.551840 0.623151 -0.025448
C177  C     C_R   0.448154 0.023010 0.623152 -0.025444
C178  C     C_R   0.522730 0.948679 0.840840 -0.198946
C179  C     C_R   0.948679 0.477272 0.840840 -0.198944
C180  C     C_R   0.477283 0.051326 0.840839 -0.198946
C181  C     C_R   0.379675 0.999999 0.499996 0.892740
C182  C     C_R   0.051321 0.522729 0.840839 -0.198947
C183  C     C_R   0.477121 0.948772 0.159163 -0.198965
C184  C     C_R   0.051328 0.477283 0.159160 -0.198940
C185  C     C_R   0.522786 0.051309 0.159152 -0.198973
C186  C     C_R   0.948671 0.522711 0.159161 -0.198941
C187  C     C_R   0.022743 0.448684 0.340840 -0.198946
C188  C     C_R   0.448792 0.976946 0.340849 -0.199022
C189  C     C_R   0.977265 0.551318 0.340839 -0.198947
C190  C     C_R   0.551126 0.023128 0.340840 -0.199019
C191  C     C_R   0.977287 0.448671 0.659161 -0.198944
C192  C     C_R   1.000000 0.620325 0.500000 0.892802
C193  C     C_R   0.551338 0.977306 0.659160 -0.198941
C194  C     C_R   0.022711 0.551328 0.659160 -0.198943
C195  C     C_R   0.448667 0.022693 0.659161 -0.198941
C196  C     C_R   0.500007 0.000003 0.822726 0.045422
C197  C     C_R   0.000001 0.500000 0.822726 0.045422
C198  C     C_R   0.499937 0.000053 0.177272 0.045371
C199  C     C_R   1.000000 0.499997 0.177273 0.045419
C200  C     C_R   0.000004 0.500001 0.322726 0.045420
C201  C     C_R   0.499949 0.000049 0.322730 0.045476
C202  C     C_R   0.000000 0.499999 0.677274 0.045418
C203  C     C_R   0.620325 0.000001 0.499996 0.892751
C204  C     C_R   0.500003 0.000000 0.677274 0.045413
C205  C     C_R   0.500003 0.000000 0.895049 -0.116802
C206  C     C_R   0.999999 0.500001 0.895049 -0.116810
C207  C     C_R   0.499993 0.000008 0.104950 -0.116817
C208  C     C_R   1.000000 0.499998 0.104951 -0.116805
C209  C     C_R   0.000002 0.500001 0.395049 -0.116816
C210  C     C_R   0.499986 0.000004 0.395050 -0.116867
C211  C     C_R   0.999998 0.500001 0.604951 -0.116807
C212  C     C_R   0.500001 0.999998 0.604951 -0.116790
C213  C     C_R   0.500005 0.000001 0.715095 0.298354
C214  C     C_R   0.500001 0.686085 1.000000 0.004373
C215  C     C_R   0.000001 0.499998 0.715095 0.298358
C216  C     C_R   0.499933 0.000063 0.284906 0.298470
C217  C     C_R   0.000003 0.500001 0.284905 0.298360
C218  C     C_R   0.000001 0.499998 0.215095 0.298359
C219  C     C_R   0.499925 0.000067 0.215096 0.298468
C220  C     C_R   0.000002 0.499999 0.784905 0.298359
C221  C     C_R   0.500008 0.000003 0.784905 0.298354
C222  C     C_R   0.549108 0.781481 0.015531 -0.181758
C223  C     C_R   0.781482 0.450895 0.015534 -0.181540
C224  C     C_R   0.450874 0.218519 0.015515 -0.181891
H1    H     H_    0.586967 0.806006 0.027798 0.145692
H2    H     H_    0.306009 0.913034 0.527791 0.145683
H3    H     H_    0.758480 0.895111 0.561069 0.132258
H4    H     H_    0.758031 0.997179 0.590362 0.141926
H5    H     H_    0.662670 0.035571 0.618485 0.135222
H6    H     H_    0.132377 0.568034 0.589138 0.133378
H7    H     H_    0.169365 0.663327 0.560364 0.122290
H8    H     H_    0.104952 0.758449 0.561063 0.132231
H9    H     H_    0.002880 0.758026 0.590356 0.141939
H10   H     H_    0.964466 0.662675 0.618482 0.135219
H11   H     H_    0.431923 0.132346 0.589135 0.133390
H12   H     H_    0.336617 0.169303 0.560367 0.122305
H13   H     H_    0.913047 0.693991 0.527812 0.145681
H14   H     H_    0.241515 0.104868 0.561075 0.132265
H15   H     H_    0.241974 0.002800 0.590369 0.141924
H16   H     H_    0.337338 0.964417 0.618491 0.135223
H17   H     H_    0.539797 0.908523 0.826975 0.156727
H18   H     H_    0.908523 0.460202 0.826976 0.156729
H19   H     H_    0.460218 0.091483 0.826974 0.156727
H20   H     H_    0.091478 0.539799 0.826974 0.156729
H21   H     H_    0.459965 0.908659 0.173028 0.156787
H22   H     H_    0.091490 0.460225 0.173024 0.156732
H23   H     H_    0.539939 0.091431 0.173009 0.156786
H24   H     H_    0.693988 0.086959 0.527799 0.145682
H25   H     H_    0.908509 0.539769 0.173026 0.156730
H26   H     H_    0.039820 0.408532 0.326976 0.156734
H27   H     H_    0.408742 0.959601 0.326993 0.156765
H28   H     H_    0.960188 0.591471 0.326974 0.156732
H29   H     H_    0.591163 0.040488 0.326977 0.156767
H30   H     H_    0.960230 0.408510 0.673026 0.156728
H31   H     H_    0.591506 0.960264 0.673024 0.156728
H32   H     H_    0.039768 0.591488 0.673024 0.156728
H33   H     H_    0.408500 0.039735 0.673027 0.156728
H34   H     H_    0.913046 0.306011 0.472191 0.145680
H35   H     H_    0.693993 0.913055 0.472181 0.145707
H36   H     H_    0.086952 0.693991 0.472186 0.145675
H37   H     H_    0.306008 0.086954 0.472189 0.145711
H38   H     H_    0.586200 0.692562 0.028244 0.131232
H39   H     H_    0.692565 0.413808 0.028251 0.131204
H40   H     H_    0.413769 0.307437 0.028216 0.131239
H41   H     H_    0.806009 0.413040 0.027805 0.145680
H42   H     H_    0.307433 0.586195 0.028247 0.131205
H43   H     H_    0.413800 0.692567 0.971757 0.131190
H44   H     H_    0.307438 0.413803 0.971754 0.131206
H45   H     H_    0.586228 0.307437 0.971785 0.131157
H46   H     H_    0.692565 0.586191 0.971746 0.131208
H47   H     H_    0.086188 0.192563 0.528253 0.131207
H48   H     H_    0.192566 0.913803 0.528240 0.131142
H49   H     H_    0.913817 0.807434 0.528260 0.131206
H50   H     H_    0.807431 0.086189 0.528249 0.131149
H51   H     H_    0.913814 0.192567 0.471744 0.131223
H52   H     H_    0.413002 0.193994 0.027770 0.145717
H53   H     H_    0.807438 0.913819 0.471741 0.131327
H54   H     H_    0.086184 0.807434 0.471740 0.131222
H55   H     H_    0.192564 0.086189 0.471748 0.131322
H56   H     H_    0.632409 0.931993 0.910845 0.133358
H57   H     H_    0.669416 0.836716 0.939625 0.122286
H58   H     H_    0.605011 0.741590 0.938949 0.132230
H59   H     H_    0.502927 0.741994 0.909672 0.141961
H60   H     H_    0.464495 0.837330 0.881538 0.135219
H61   H     H_    0.931996 0.367587 0.910844 0.133354
H62   H     H_    0.836717 0.330572 0.939622 0.122283
H63   H     H_    0.193989 0.586964 0.027800 0.145686
H64   H     H_    0.741587 0.394975 0.938945 0.132217
H65   H     H_    0.741990 0.497063 0.909670 0.141962
H66   H     H_    0.837327 0.535503 0.881540 0.135218
H67   H     H_    0.367591 0.068011 0.910837 0.133351
H68   H     H_    0.330579 0.163287 0.939615 0.122285
H69   H     H_    0.394991 0.258409 0.938947 0.132237
H70   H     H_    0.497087 0.258001 0.909680 0.141967
H71   H     H_    0.535521 0.162667 0.881546 0.135220
H72   H     H_    0.067998 0.632422 0.910835 0.133345
H73   H     H_    0.163272 0.669439 0.939613 0.122282
H74   H     H_    0.413032 0.806010 0.972205 0.145690
H75   H     H_    0.258400 0.605033 0.938946 0.132219
H76   H     H_    0.258001 0.502940 0.909678 0.141968
H77   H     H_    0.162669 0.464498 0.881546 0.135217
H78   H     H_    0.367381 0.932166 0.089250 0.133227
H79   H     H_    0.330264 0.836960 0.060454 0.122245
H80   H     H_    0.394633 0.741822 0.061021 0.132170
H81   H     H_    0.496781 0.742139 0.090212 0.142081
H82   H     H_    0.535318 0.837402 0.118364 0.135229
H83   H     H_    0.068028 0.367606 0.089150 0.133365
H84   H     H_    0.163316 0.330606 0.060376 0.122291
H85   H     H_    0.193994 0.413035 0.972201 0.145687
H86   H     H_    0.258440 0.395019 0.061060 0.132233
H87   H     H_    0.258021 0.497103 0.090339 0.141954
H88   H     H_    0.162674 0.535528 0.118467 0.135217
H89   H     H_    0.632710 0.067698 0.089357 0.133122
H90   H     H_    0.670030 0.162809 0.060543 0.122196
H91   H     H_    0.605751 0.258004 0.060967 0.132074
H92   H     H_    0.503496 0.257844 0.090038 0.142205
H93   H     H_    0.464759 0.162674 0.118207 0.135220
H94   H     H_    0.931968 0.632388 0.089148 0.133368
H95   H     H_    0.836679 0.669383 0.060373 0.122290
H96   H     H_    0.586995 0.193994 0.972231 0.145696
H97   H     H_    0.741557 0.604967 0.061062 0.132233
H98   H     H_    0.741979 0.502885 0.090346 0.141950
H99   H     H_    0.837326 0.464466 0.118474 0.135216
H100  H     H_    0.132437 0.432027 0.410835 0.133340
H101  H     H_    0.169472 0.336763 0.439618 0.122276
H102  H     H_    0.105083 0.241624 0.438956 0.132221
H103  H     H_    0.002991 0.242002 0.409687 0.141985
H104  H     H_    0.964532 0.337325 0.381550 0.135217
H105  H     H_    0.432749 0.866845 0.410529 0.132867
H106  H     H_    0.337809 0.829223 0.439423 0.122021
H107  H     H_    0.806009 0.586960 0.972194 0.145684
H108  H     H_    0.242463 0.893331 0.439185 0.131850
H109  H     H_    0.242288 0.995691 0.410199 0.142364
H110  H     H_    0.337283 0.034720 0.381948 0.135178
H111  H     H_    0.867570 0.567975 0.410838 0.133343
H112  H     H_    0.830537 0.663238 0.439622 0.122276
H113  H     H_    0.894925 0.758376 0.438955 0.132223
H114  H     H_    0.997015 0.757999 0.409681 0.141982
H115  H     H_    0.035473 0.662678 0.381544 0.135217
H116  H     H_    0.567264 0.133178 0.410513 0.132854
H117  H     H_    0.662226 0.170750 0.439401 0.122028
H118  H     H_    0.086957 0.306007 0.527806 0.145684
H119  H     H_    0.757538 0.106591 0.439162 0.131876
H120  H     H_    0.757657 0.004229 0.410178 0.142353
H121  H     H_    0.662641 0.965251 0.381932 0.135175
H122  H     H_    0.867613 0.431975 0.589147 0.133369
H123  H     H_    0.830619 0.336689 0.560373 0.122288
H124  H     H_    0.895032 0.241566 0.561062 0.132231
H125  H     H_    0.997110 0.241983 0.590347 0.141947
H126  H     H_    0.035529 0.337327 0.618475 0.135217
H127  H     H_    0.568069 0.867649 0.589135 0.133388
H128  H     H_    0.663371 0.830683 0.560365 0.122303
N1    N     N_R   0.461766 0.038348 0.767145 -0.180522
N2    N     N_R   0.538185 0.038398 0.267144 -0.180577
N3    N     N_R   0.038241 0.461653 0.267145 -0.180523
N4    N     N_R   0.461674 0.961734 0.267148 -0.180576
N5    N     N_R   0.038224 0.538361 0.732854 -0.180525
N6    N     N_R   0.461636 0.038218 0.732855 -0.180522
N7    N     N_R   0.961779 0.461635 0.732856 -0.180525
N8    N     N_R   0.538375 0.961786 0.732855 -0.180523
N9    N     N_R   0.038353 0.538233 0.767144 -0.180525
N10   N     N_R   0.538248 0.961658 0.767145 -0.180522
N11   N     N_R   0.961651 0.461764 0.767146 -0.180525
N12   N     N_R   0.538055 0.038525 0.232855 -0.180578
N13   N     N_R   0.961635 0.538218 0.232855 -0.180524
N14   N     N_R   0.461797 0.961610 0.232858 -0.180579
N15   N     N_R   0.038368 0.461780 0.232855 -0.180522
N16   N     N_R   0.961764 0.538348 0.267145 -0.180524
O1    O     O_R   0.448370 0.908480 0.999910 -0.627139
O2    O     O_R   0.408480 0.051630 0.499910 -0.627266
O3    O     O_R   0.051630 0.591520 0.499910 -0.627197
O4    O     O_R   0.591520 0.948370 0.499910 -0.627259
O5    O     O_R   0.051630 0.408480 0.500090 -0.627176
O6    O     O_R   0.591520 0.051630 0.500090 -0.626981
O7    O     O_R   0.948370 0.591520 0.500090 -0.627177
O8    O     O_R   0.408480 0.948370 0.500090 -0.626981
O9    O     O_R   0.448370 0.000090 0.948970 -0.626337
O10   O     O_R   0.000090 0.551630 0.948970 -0.626329
O11   O     O_R   0.551630 0.999910 0.948970 -0.626347
O12   O     O_R   0.908480 0.551630 0.999910 -0.627192
O13   O     O_R   0.999910 0.448370 0.948970 -0.626334
O14   O     O_R   0.551630 0.000090 0.051030 -0.626231
O15   O     O_R   0.999910 0.551630 0.051030 -0.626341
O16   O     O_R   0.448370 0.999910 0.051030 -0.626293
O17   O     O_R   0.000090 0.448370 0.051030 -0.626339
O18   O     O_R   0.948370 0.500090 0.448970 -0.626336
O19   O     O_R   0.500090 0.051630 0.448970 -0.626153
O20   O     O_R   0.051630 0.499910 0.448970 -0.626332
O21   O     O_R   0.499910 0.948370 0.448970 -0.626180
O22   O     O_R   0.051630 0.500090 0.551030 -0.626346
O23   O     O_R   0.551630 0.091520 0.999910 -0.627087
O24   O     O_R   0.499910 0.051630 0.551030 -0.626363
O25   O     O_R   0.948370 0.499910 0.551030 -0.626340
O26   O     O_R   0.500090 0.948370 0.551030 -0.626363
O27   O     O_R   0.408360 0.500090 0.028640 -0.625374
O28   O     O_R   0.500090 0.591640 0.028640 -0.625360
O29   O     O_R   0.591640 0.499910 0.028640 -0.625373
O30   O     O_R   0.499910 0.408360 0.028640 -0.625352
O31   O     O_R   0.591640 0.500090 0.971360 -0.625380
O32   O     O_R   0.499910 0.591640 0.971360 -0.625387
O33   O     O_R   0.408360 0.499910 0.971360 -0.625378
O34   O     O_R   0.091520 0.448370 0.999910 -0.627192
O35   O     O_R   0.500090 0.408360 0.971360 -0.625387
O36   O     O_R   0.908360 0.000090 0.528640 -0.625411
O37   O     O_R   0.000090 0.091640 0.528640 -0.625388
O38   O     O_R   0.091640 0.999910 0.528640 -0.625408
O39   O     O_R   0.999910 0.908360 0.528640 -0.625390
O40   O     O_R   0.091640 0.000090 0.471360 -0.625326
O41   O     O_R   0.999910 0.091640 0.471360 -0.625358
O42   O     O_R   0.908360 0.999910 0.471360 -0.625322
O43   O     O_R   0.000090 0.908360 0.471360 -0.625358
O44   O     O_R   0.551630 0.908480 0.000090 -0.627214
O45   O     O_R   0.091520 0.551630 0.000090 -0.627182
O46   O     O_R   0.448370 0.091520 0.000090 -0.627215
O47   O     O_R   0.908480 0.448370 0.000090 -0.627184
O48   O     O_R   0.948370 0.408480 0.499910 -0.627194
Zn1   Zn    Zn3+2 0.431020 0.000000 0.000000 0.932400
Zn2   Zn    Zn3+2 0.500000 0.500000 0.961710 0.934231
Zn3   Zn    Zn3+2 0.000000 0.000000 0.538290 0.934206
Zn4   Zn    Zn3+2 0.000000 1.000000 0.461710 0.934370
Zn5   Zn    Zn3+2 0.000000 0.568980 0.000000 0.932353
Zn6   Zn    Zn3+2 0.568980 0.000000 0.000000 0.932458
Zn7   Zn    Zn3+2 0.000000 0.431020 0.000000 0.932349
Zn8   Zn    Zn3+2 0.931020 0.500000 0.500000 0.932343
Zn9   Zn    Zn3+2 0.500000 0.068980 0.500000 0.932512
Zn10  Zn    Zn3+2 0.068980 0.500000 0.500000 0.932341
Zn11  Zn    Zn3+2 0.500000 0.931020 0.500000 0.932500
Zn12  Zn    Zn3+2 0.500000 0.500000 0.038290 0.934283

loop_
_geom_bond_atom_site_label_1
_geom_bond_atom_site_label_2
_ccdc_geom_bond_type
C131  H8    S    
C101  C148  S    
N4    N14   A    
C126  C127  A    
C8    C26   A    
C102  H111  S    
C173  C210  A    
C55   C56   A    
C34   C161  S    
C15   C32   A    
C96   H106  S    
C141  C192  S    
O13   Zn7   S    
C115  C174  S    
C14   H35   S    
O33   Zn2   S    
C167  C185  A    
C136  H11   S    
C140  H16   S    
C108  C109  A    
C110  C111  A    
O46   Zn1   S    
C23   H45   S    
C168  C208  A    
C160  O26   A    
C9    H2    S    
C86   H99   S    
O31   Zn2   S    
C81   C86   A    
C180  C196  A    
C174  C191  A    
C185  H23   S    
C5    C113  A    
C30   H51   S    
C41   C162  S    
C161  C205  A    
C111  C114  A    
C199  C218  S    
C4    H74   S    
C32   C57   A    
C160  C212  S    
C74   C167  S    
C45   C47   A    
C77   H91   S    
C78   H92   S    
O17   Zn7   S    
O41   Zn4   S    
C51   C52   A    
C165  C183  A    
C166  C184  A    
C169  C187  A    
C154  O14   A    
C215  N5    A    
C10   C141  A    
C75   C76   A    
C37   C38   A    
C29   C68   A    
C123  H128  S    
C145  O31   A    
O27   Zn12  S    
C192  O3    A    
C18   C223  A    
O40   Zn4   S    
C27   C46   A    
O39   Zn3   S    
C148  O23   A    
C1    C79   S    
C186  C199  A    
O45   Zn5   S    
C91   C92   A    
C79   C222  A    
O30   Zn12  S    
C6    H96   S    
C158  C211  S    
C147  O42   A    
C177  C195  A    
O32   Zn2   S    
C156  C209  S    
C36   H56   S    
C19   C224  A    
C72   C73   A    
O14   Zn6   S    
C157  O21   A    
C139  C140  A    
C179  C197  A    
C100  C106  A    
C187  C200  A    
C130  C131  A    
O21   Zn11  S    
C90   C223  A    
C164  C206  A    
C144  C214  S    
C66   H82   S    
C28   H49   S    
C121  C175  S    
C155  O15   A    
C58   H75   S    
O16   Zn1   S    
C133  H10   S    
C134  C177  S    
C69   C70   A    
C59   H76   S    
C26   C35   A    
C88   C89   A    
C98   C99   A    
C45   H65   S    
O7    Zn8   S    
C175  C193  A    
C14   C142  A    
C98   H109  S    
C100  C172  S    
C89   H101  S    
C127  H5    S    
C14   C31   A    
C128  C129  A    
C97   C98   A    
C148  O46   A    
C85   C86   A    
C103  H112  S    
O38   Zn3   S    
C189  H28   S    
C106  H115  S    
C193  H31   S    
C152  O9    A    
C38   C39   A    
C78   C80   A    
C99   H110  S    
C115  C116  A    
C87   C169  S    
C146  O30   A    
N2    N12   A    
C13   C23   A    
C17   H38   S    
C160  O24   A    
C73   H88   S    
C186  H25   S    
C102  C103  A    
C19   H40   S    
C216  N2    A    
C213  N6    A    
C190  H29   S    
C107  C108  A    
O37   Zn3   S    
C89   C91   A    
C197  C220  S    
C80   H93   S    
C154  C207  S    
C178  H17   S    
C181  O8    A    
O28   Zn12  S    
C217  N16   A    
C195  H33   S    
C182  C197  A    
C109  H117  S    
N5    N9    A    
C48   C53   A    
C155  O17   A    
C191  H30   S    
C168  C186  A    
C174  C211  A    
C172  C209  A    
N13   N16   A    
C20   H42   S    
C39   C40   A    
C120  H126  S    
C222  H1    S    
C7    C90   A    
C178  C196  A    
C129  H6    S    
O29   Zn12  S    
O4    Zn11  S    
C201  C216  S    
C112  O47   A    
C83   C84   A    
O9    Zn1   S    
C41   C47   A    
C113  C159  S    
C165  C207  A    
C75   H89   S    
C218  N15   A    
C16   H37   S    
C9    C135  A    
C101  C224  A    
C5    H85   S    
C135  C181  S    
C17   C214  A    
C37   H57   S    
C52   C53   A    
C189  C200  A    
C129  C130  A    
C180  H19   S    
C149  O41   A    
C54   C55   A    
C40   H60   S    
O36   Zn3   S    
C152  O11   A    
C136  C137  A    
C221  N10   A    
C35   C149  S    
C84   H97   S    
C54   C164  S    
C18   H39   S    
C117  C118  A    
C216  N4    A    
C213  N8    A    
C1    O1    A    
C57   C151  S    
C144  O32   A    
O23   Zn6   S    
C194  H32   S    
C61   C165  S    
C122  H127  S    
O48   Zn8   S    
C61   C62   A    
O1    Zn1   S    
C63   C64   A    
C221  N1    A    
C59   C60   A    
C76   H90   S    
C181  O2    A    
C10   H13   S    
C49   C50   A    
C7    H107  S    
C159  O34   A    
O25   Zn8   S    
C15   H36   S    
C72   H87   S    
C158  O22   A    
O34   Zn7   S    
C33   C46   A    
C149  O37   A    
O2    Zn9   S    
C41   C42   A    
C198  C219  S    
C170  O5    A    
C77   C78   A    
C2    C145  S    
C3    H63   S    
O20   Zn10  S    
C171  C188  A    
C11   H24   S    
C177  C212  A    
O42   Zn4   S    
C121  C127  A    
C150  O40   A    
C123  C125  A    
C2    C18   A    
C194  C202  A    
C173  C190  A    
O24   Zn9   S    
C143  O33   A    
C104  C105  A    
C218  N13   A    
C15   C141  A    
O5    Zn10  S    
C70   C71   A    
C67   C73   A    
C202  C215  S    
C132  H9    S    
C196  C221  S    
C43   H62   S    
O10   Zn5   S    
C74   C80   A    
C162  C206  A    
C200  C217  S    
C166  C208  A    
O3    Zn10  S    
C219  N14   A    
C110  H119  S    
C8    H118  S    
C31   C68   A    
C224  H52   S    
C128  C176  S    
C183  C198  A    
C13   C19   A    
C116  H122  S    
C62   H78   S    
C84   C85   A    
C155  C208  S    
C48   C163  S    
C171  C210  A    
C151  O39   A    
C8    C124  A    
C195  C204  A    
C58   C59   A    
C82   H94   S    
C188  H27   S    
C107  C114  A    
C62   C63   A    
C94   C171  S    
C95   H105  S    
C92   H103  S    
C147  O36   A    
O44   Zn6   S    
O15   Zn5   S    
N3    N15   A    
C50   C51   A    
C3    C20   A    
C190  C201  A    
C137  H12   S    
C71   H86   S    
C121  C122  A    
C157  O19   A    
C203  O6    A    
C104  H113  S    
C48   C49   A    
C112  O12   A    
C156  O18   A    
C125  C126  A    
O43   Zn4   S    
C22   C24   A    
C42   C43   A    
C50   H68   S    
C131  C132  A    
C93   H104  S    
C32   H54   S    
C44   C45   A    
C9    C27   A    
C10   C28   A    
O19   Zn9   S    
C153  O13   A    
C12   C30   A    
O26   Zn11  S    
O35   Zn2   S    
C182  H20   S    
C119  C120  A    
C150  O38   A    
C151  O43   A    
C172  C189  A    
C105  C106  A    
C7    C25   A    
C176  C211  A    
C64   C65   A    
C109  C110  A    
C92   C93   A    
C81   C168  S    
C2    C25   A    
C94   C95   A    
C85   H98   S    
C42   H61   S    
C164  C182  A    
C138  C139  A    
C38   H58   S    
C114  H121  S    
O12   Zn5   S    
C71   C72   A    
C87   C88   A    
C82   C83   A    
O22   Zn10  S    
C103  C104  A    
N7    N11   A    
C24   C143  S    
C176  C194  A    
C161  C178  A    
C125  H3    S    
C47   H66   S    
C219  N12   A    
C1    O44   A    
C63   H79   S    
C64   H80   S    
C220  N9    A    
C95   C96   A    
C90   C112  S    
C43   C44   A    
N8    N10   A    
C81   C82   A    
C158  O25   A    
C54   C60   A    
C28   C57   A    
C111  H120  S    
C60   H77   S    
C144  O28   A    
C193  C204  A    
C30   C35   A    
C34   C40   A    
C130  H7    S    
C108  H116  S    
C117  H123  S    
C143  O27   A    
C134  C140  A    
C87   C93   A    
C188  C201  A    
C116  C117  A    
C146  O35   A    
C183  H21   S    
C6    C101  A    
C118  C119  A    
C203  O4    A    
O11   Zn6   S    
C61   C66   A    
C5    C22   A    
C20   C24   A    
C56   C58   A    
C132  C133  A    
C156  O20   A    
O47   Zn7   S    
C17   C222  A    
C191  C202  A    
C185  C198  A    
C88   H100  S    
C34   C36   A    
C25   H46   S    
C27   H48   S    
C157  C210  S    
C159  O45   A    
C192  O7    A    
C12   H34   S    
C13   C146  S    
C217  N3    A    
C44   H64   S    
C223  H41   S    
C74   C75   A    
C139  H15   S    
C152  C205  S    
C76   C77   A    
C4    C79   A    
C3    C113  A    
C39   H59   S    
C134  C136  A    
C107  C173  S    
O6    Zn9   S    
C204  C213  S    
C163  C205  A    
C170  O48   A    
C26   H47   S    
C67   C69   A    
C167  C207  A    
C22   H44   S    
C16   C33   A    
C153  O10   A    
C12   C124  A    
C119  H125  S    
C184  C199  A    
C169  C209  A    
C96   C97   A    
C100  C102  A    
C175  C212  A    
C69   H83   S    
C70   H84   S    
C162  C179  A    
C68   C147  S    
C65   H81   S    
C55   H72   S    
C67   C166  S    
C145  O29   A    
C46   C150  S    
C115  C120  A    
C49   H67   S    
C33   H55   S    
C29   H50   S    
C184  H22   S    
C126  H4    S    
C105  H114  S    
N1    N6    A    
O8    Zn11  S    
C56   H73   S    
C137  C138  A    
C220  N11   A    
C142  C203  S    
C187  H26   S    
C154  O16   A    
C128  C133  A    
C4    C21   A    
C16   C135  A    
C94   C99   A    
C215  N7    A    
C6    C23   A    
C83   H95   S    
C138  H14   S    
C118  H124  S    
C31   H53   S    
C11   C142  A    
C51   H69   S    
C179  H18   S    
C21   H43   S    
C97   H108  S    
C153  C206  S    
O18   Zn8   S    
C124  C170  S    
C11   C29   A    
C36   C37   A    
C65   C66   A    
C163  C180  A    
C21   C214  A    
C52   H70   S    
C122  C123  A    
C91   H102  S    
C53   H71   S    
