data_mof_unit_29385.cif
_audit_creation_date              2012-12-10T17:03:26-0500
_audit_creation_method            fapswitch 2.2
_symmetry_space_group_name_H-M    P1
_symmetry_Int_Tables_number       1
_space_group_crystal_system       triclinic
_cell_length_a                    15.032755
_cell_length_b                    11.021241
_cell_length_c                    10.14959
_cell_angle_alpha                 113.162547
_cell_angle_beta                  99.477051
_cell_angle_gamma                 93.945004
_cell_volume                      1508.30114069

loop_
_atom_site_label
_atom_site_type_symbol
_atom_type_description
_atom_site_fract_x
_atom_site_fract_y
_atom_site_fract_z
_atom_type_partial_charge
C1    C     C_R   0.494327 0.252800 0.437330 0.835271
C2    C     C_R   0.505805 0.747208 0.562690 0.836173
C3    C     C_R   0.011693 0.379786 0.232417 0.141567
C4    C     C_R   0.988364 0.620873 0.767548 0.142007
C5    C     C_2   0.488184 0.107759 0.395908 -0.015546
C6    C     C_2   0.512419 0.892290 0.604275 -0.016436
C7    C     C_2   0.522489 0.062982 0.498182 0.153847
C8    C     C_2   0.478085 0.937399 0.502292 0.155247
C9    C     C_2   0.507878 0.512442 0.081712 0.318696
C10   C     C_2   0.491001 0.488904 0.918368 0.324192
C11   C     C_R   0.329398 0.503178 0.500165 0.815527
C12   C     C_R   0.670611 0.496853 0.499841 0.814417
C13   C     C_R   0.831169 0.567170 0.628239 -0.207433
C14   C     C_R   0.168856 0.433144 0.371748 -0.209407
C15   C     C_R   0.767312 0.492336 0.499310 -0.130002
C16   C     C_R   0.232719 0.507837 0.500703 -0.129528
C17   C     C_R   0.795795 0.413326 0.371450 0.159144
C18   C     C_R   0.204267 0.586919 0.628557 0.160584
C19   C     C_R   0.888504 0.431215 0.365839 -0.015598
C20   C     C_R   0.111547 0.569160 0.634157 -0.015367
C21   C     C_R   0.953265 0.498572 0.499727 -0.013218
C22   C     C_R   0.046780 0.501841 0.500263 -0.013472
C23   C     C_R   0.924293 0.563680 0.632953 0.041031
C24   C     C_R   0.075747 0.436778 0.367027 0.042327
C25   C     C_R   0.918398 0.385278 0.231703 0.166874
C26   C     C_R   0.081647 0.615237 0.768286 0.167228
Cu1   Cu    Cu3+1 0.515770 0.521810 0.644910 0.951369
Cu2   Cu    Cu3+1 0.484230 0.478190 0.355090 0.950197
H1    H     H_    0.806647 0.624766 0.725082 0.187455
H2    H     H_    0.193359 0.375501 0.274903 0.184954
N1    N     N_2   0.460520 0.445420 0.137370 -0.146087
N2    N     N_2   0.539480 0.554580 0.862630 -0.144714
O1    O     O_R   0.508410 0.332340 0.577400 -0.592168
O2    O     O_R   0.491590 0.667660 0.422600 -0.592005
O3    O     O_R   0.481780 0.295500 0.332650 -0.560978
O4    O     O_R   0.518220 0.704500 0.667350 -0.567664
O5    O     O_R   0.383570 0.518390 0.622380 -0.564125
O6    O     O_R   0.616430 0.481610 0.377620 -0.564694
O7    O     O_R   0.356940 0.481550 0.377630 -0.585150
O8    O     O_R   0.643060 0.518450 0.622370 -0.577512
I1    I     I_    0.707316 0.232306 0.222376 -0.337935
I2    I     I_    0.292886 0.767798 0.777663 -0.339318
I3    I     I_    0.830095 0.368296 0.033560 -0.268591
I4    I     I_    0.169872 0.632168 0.966489 -0.275821
I5    I     I_    0.054916 0.290446 0.027835 -0.264306
I6    I     I_    0.945233 0.710979 0.972115 -0.259275
C27   C     C_3   0.385249 0.867081 0.404556 -0.758091
H3    H     H_    0.392224 0.796406 0.294624 0.250833
H4    H     H_    0.348083 0.809174 0.452255 0.233323
H5    H     H_    0.341069 0.941121 0.395257 0.234953
C28   C     C_3   0.615286 0.133497 0.595880 -0.757137
H6    H     H_    0.608297 0.204003 0.705864 0.251380
H7    H     H_    0.659625 0.059563 0.604937 0.234832
H8    H     H_    0.652286 0.191682 0.548298 0.233480
C29   C     C_3   0.550607 0.984706 0.763297 -0.820936
H9    H     H_    0.522536 0.945622 0.835864 0.258690
H10   H     H_    0.625979 0.992168 0.788819 0.248549
H11   H     H_    0.529484 0.084700 0.791271 0.242009
C30   C     C_3   0.450854 0.014950 0.236765 -0.821441
H12   H     H_    0.479356 0.054043 0.164548 0.260202
H13   H     H_    0.472217 0.915121 0.209557 0.239607
H14   H     H_    0.375483 0.006972 0.210183 0.249668
C31   C     C_3   0.417181 0.376101 0.813055 -0.748618
H15   H     H_    0.437263 0.279306 0.805800 0.189062
H16   H     H_    0.350019 0.394970 0.840017 0.208207
H17   H     H_    0.401141 0.361566 0.700629 0.271575
C32   C     C_3   0.588707 0.614287 0.183872 -0.748580
H18   H     H_    0.652730 0.579443 0.153116 0.220996
H19   H     H_    0.579635 0.714850 0.190953 0.182495
H20   H     H_    0.600220 0.635835 0.298274 0.271540
C33   C     C_3   0.604572 0.675794 0.941876 -0.484957
H21   H     H_    0.630389 0.706940 0.862637 0.233855
H22   H     H_    0.571140 0.759805 0.005892 0.175690
H23   H     H_    0.667783 0.659365 0.000896 0.187412
C34   C     C_3   0.378429 0.348681 0.064712 -0.485513
H24   H     H_    0.357437 0.311167 0.142628 0.233000
H25   H     H_    0.320272 0.396109 0.034990 0.197989
H26   H     H_    0.390653 0.256476 0.978024 0.174167

loop_
_geom_bond_atom_site_label_1
_geom_bond_atom_site_label_2
_ccdc_geom_bond_type
C29   H9    S    
C31   H16   S    
C10   C31   S    
C6    C29   S    
C25   I3    S    
C26   I4    S    
C7    C8    S    
C27   H4    S    
C4    I6    S    
Cu1   O1    S    
C1    C5    S    
C13   H1    S    
C19   C21   A    
C18   I2    S    
C13   C23   A    
C14   C24   A    
C11   O5    A    
Cu2   O3    S    
C14   C16   A    
N2    C33   S    
C9    C10   S    
C2    O2    A    
C31   H17   S    
Cu2   O2    S    
C30   H12   S    
C21   C22   A    
C3    C24   A    
C2    C6    S    
C14   H2    S    
C27   H5    S    
C30   H13   S    
C5    C30   S    
C1    O1    A    
C32   H18   S    
C3    C25   A    
C33   H22   S    
C4    C23   A    
C6    C8    D    
Cu2   O7    S    
C3    I5    S    
C28   H6    S    
C28   H7    S    
C12   O8    A    
C34   H24   S    
C9    C32   S    
C11   C16   S    
N1    C34   S    
C27   H3    S    
C12   C15   S    
Cu2   O6    S    
Cu1   O8    S    
C11   O7    A    
C34   H25   S    
C20   C22   A    
C21   C23   A    
C13   C15   A    
C22   C24   A    
C1    O3    A    
C5    C7    D    
C2    O4    A    
C15   C17   A    
C30   H14   S    
Cu1   N2    S    
Cu2   N1    S    
C33   H23   S    
C4    C26   A    
Cu1   O4    S    
C32   H20   S    
C28   H8    S    
C29   H10   S    
C8    C27   S    
C7    C28   S    
C33   H21   S    
C20   C26   A    
Cu1   O5    S    
C17   C19   A    
C18   C20   A    
C12   O6    A    
C19   C25   A    
C34   H26   S    
C17   I1    S    
C9    N1    D    
C31   H15   S    
C10   N2    D    
C16   C18   A    
C29   H11   S    
Cu1   Cu2   S    
C32   H19   S    
