data_mof_unit_11082.cif
_audit_creation_date              2012-12-11T15:09:42-0500
_audit_creation_method            fapswitch 2.2
_symmetry_space_group_name_H-M    P1
_symmetry_Int_Tables_number       1
_space_group_crystal_system       triclinic
_cell_length_a                    21.018564
_cell_length_b                    7.1292
_cell_length_c                    14.022221
_cell_angle_alpha                 89.999886
_cell_angle_beta                  98.534428
_cell_angle_gamma                 90.000309
_cell_volume                      2077.9008665

loop_
_atom_site_label
_atom_site_type_symbol
_atom_type_description
_atom_site_fract_x
_atom_site_fract_y
_atom_site_fract_z
_atom_type_partial_charge
O1    O     O_R   0.447130 0.507140 0.597350 -0.522315
O2    O     O_R   0.552870 0.007140 0.402650 -0.522322
O3    O     O_R   0.578910 0.181280 0.586990 -0.528855
O4    O     O_R   0.421090 0.681280 0.413010 -0.528860
C1    C     C_R   0.604469 0.344456 0.607431 0.743964
C2    C     C_R   0.395531 0.844455 0.392569 0.743974
O5    O     O_R   0.449230 0.177860 0.608640 -0.546947
O6    O     O_R   0.550770 0.677860 0.391360 -0.546947
O7    O     O_R   0.422260 0.000770 0.424450 -0.536839
O8    O     O_R   0.577740 0.500770 0.575550 -0.536840
C3    C     C_R   0.432371 0.345770 0.633786 0.743304
C4    C     C_R   0.567629 0.845771 0.366214 0.743315
O9    O     O_3   0.491310 0.336980 0.439550 -0.375495
O10   O     O_3   0.508690 0.836980 0.560450 -0.375488
V1    V     V_3+5 0.501610 0.064760 0.511210 1.549780
V2    V     V_3+5 0.498390 0.564760 0.488790 1.549773
C5    C     C_R   0.615646 0.781772 0.122959 -0.093059
C6    C     C_R   0.384353 0.281665 0.877032 -0.093069
H1    H     H_    0.528495 0.754165 0.183183 0.135673
H2    H     H_    0.471502 0.254070 0.816802 0.135677
H3    H     H_    0.590985 0.744428 0.052372 0.178531
H4    H     H_    0.409013 0.244271 0.947611 0.178528
C7    C     C_R   0.606923 0.849187 0.288814 -0.066227
C8    C     C_R   0.393079 0.349178 0.711189 -0.066226
C9    C     C_R   0.916006 0.840347 0.299491 -0.241682
C10   C     C_R   0.083997 0.340439 0.700508 -0.241646
C11   C     C_R   0.879397 0.807788 0.372627 0.024054
C12   C     C_R   0.120605 0.307922 0.627368 0.024036
C13   C     C_R   0.812419 0.804570 0.350224 -0.047785
C14   C     C_R   0.187582 0.304665 0.649771 -0.047781
C15   C     C_R   0.780830 0.843753 0.256248 0.056689
C16   C     C_R   0.219172 0.343774 0.743756 0.056708
C17   C     C_R   0.818076 0.857743 0.179524 -0.053954
C18   C     C_R   0.181926 0.357719 0.820482 -0.054005
C19   C     C_R   0.712569 0.851260 0.236170 -0.006257
C20   C     C_R   0.287434 0.351250 0.763835 -0.006248
C21   C     C_R   0.682247 0.817014 0.140370 0.025419
C22   C     C_R   0.317754 0.316929 0.859628 0.025363
C23   C     C_R   0.718427 0.824026 0.063763 0.249103
C24   C     C_R   0.281574 0.323889 0.936237 0.249254
C25   C     C_R   0.785068 0.859589 0.082641 -0.128263
C26   C     C_R   0.214934 0.359480 0.917365 -0.128285
C27   C     C_R   0.672915 0.890739 0.307779 0.185200
C28   C     C_R   0.327089 0.390766 0.692233 0.185208
C29   C     C_R   0.579202 0.789214 0.197521 -0.216600
C30   C     C_R   0.420797 0.289143 0.802471 -0.216578
C31   C     C_R   0.886801 0.860178 0.203710 -0.057521
C32   C     C_R   0.113202 0.360189 0.796294 -0.057480
H5    H     H_    0.968094 0.841396 0.316484 0.110772
H6    H     H_    0.031909 0.341521 0.683513 0.110784
H7    H     H_    0.785179 0.761515 0.405966 0.188538
H8    H     H_    0.214821 0.261639 0.594022 0.188535
C33   C     C_1   0.166601 0.857191 0.168267 -0.105466
C34   C     C_1   0.833399 0.357191 0.831732 -0.105526
C35   C     C_1   0.219034 0.854876 0.219300 0.099092
C36   C     C_1   0.780966 0.354876 0.780699 0.099044
C37   C     C_1   0.280784 0.853362 0.279308 0.095083
C38   C     C_1   0.719217 0.353363 0.720692 0.095082
C39   C     C_1   0.333142 0.851012 0.330561 -0.108831
C40   C     C_1   0.666858 0.351013 0.669438 -0.108822
O11   O     O_R   0.922300 0.202240 0.924350 -0.546602
O12   O     O_R   0.077700 0.702240 0.075650 -0.546641
O13   O     O_R   0.050780 0.535130 0.891350 -0.554069
O14   O     O_R   0.949220 0.035130 0.108650 -0.554079
C41   C     C_R   0.069423 0.368450 0.868149 0.680693
C42   C     C_R   0.930578 0.868449 0.131853 0.680860
O15   O     O_R   0.921100 0.531560 0.912990 -0.506286
O16   O     O_R   0.078900 0.031560 0.087010 -0.506322
O17   O     O_R   0.947120 0.708470 0.097370 -0.531994
O18   O     O_R   0.052880 0.208470 0.902630 -0.532022
C43   C     C_R   0.895906 0.363594 0.893401 0.711648
C44   C     C_R   0.104094 0.863594 0.106598 0.711621
O19   O     O_3   0.008710 0.375800 0.060400 -0.371687
O20   O     O_3   0.991290 0.875800 0.939600 -0.371633
V3    V     V_3+5 0.998380 0.648080 0.988790 1.521764
V4    V     V_3+5 0.001620 0.148080 0.011210 1.521721
Br1   Br    Br    0.675692 0.807387 0.931234 -0.539186
Br2   Br    Br    0.324312 0.307152 0.068761 -0.539078
Br3   Br    Br    0.703151 0.036500 0.422472 -0.552267
Br4   Br    Br    0.296862 0.536614 0.577567 -0.552278
C45   C     C_2   0.912064 0.772944 0.471992 0.396702
H9    H     H_    0.964244 0.773049 0.487271 0.039923
O21   O     O_2   0.881349 0.744139 0.537950 -0.510747
C46   C     C_2   0.087937 0.273166 0.527995 0.396687
H10   H     H_    0.035758 0.273293 0.512715 0.039932
O22   O     O_2   0.118652 0.244412 0.462031 -0.510745
C47   C     C_2   0.817521 0.910245 0.000055 0.477017
H11   H     H_    0.838225 0.048380 0.997915 0.031574
O23   O     O_2   0.820932 0.799569 0.934639 -0.495657
C48   C     C_2   0.182478 0.410056 0.999963 0.476900
H12   H     H_    0.161699 0.548135 0.002069 0.031572
O24   O     O_2   0.179159 0.299363 0.065439 -0.495581

loop_
_geom_bond_atom_site_label_1
_geom_bond_atom_site_label_2
_ccdc_geom_bond_type
C14   C16   A    
C47   H11   S    
O13   C41   A    
C7    C29   A    
C12   C46   S    
O1    C3    A    
O2    C4    A    
C2    O7    A    
C45   H9    S    
C23   C25   A    
O5    C3    A    
C4    C7    S    
O20   V4    S    
C16   C20   A    
C19   C21   A    
C5    C29   A    
C10   H6    S    
C37   C39   T    
C42   O17   A    
C11   C13   A    
C38   C40   T    
C41   O18   A    
C3    C8    S    
C7    C27   A    
C34   C43   S    
C18   C26   A    
C15   C17   A    
C32   C41   S    
C19   C27   A    
C9    C31   A    
C31   C42   S    
O15   C43   A    
C10   C32   A    
O11   C43   A    
C24   C26   A    
O6    V2    S    
O19   V3    S    
C6    C30   A    
C45   O21   D    
C33   C35   T    
O11   V4    S    
C25   C47   S    
C34   C36   T    
O20   V3    S    
C28   Br4   S    
C46   H10   S    
O4    C2    A    
O5    V1    S    
C5    H3    S    
C26   C48   S    
O14   C42   A    
O4    V2    S    
C48   O24   D    
C11   C45   S    
O16   C44   A    
O14   V4    S    
O12   C44   A    
O1    V2    S    
C5    C21   A    
O2    V1    S    
C35   C37   S    
O18   V4    S    
C9    C11   A    
C17   C31   A    
O19   V4    S    
C15   C19   A    
O12   V3    S    
C20   C28   A    
C18   C32   A    
C23   Br1   S    
O3    V1    S    
C13   H7    S    
C14   H8    S    
C1    C40   S    
C6    H4    S    
C2    C39   S    
C46   O22   D    
O3    C1    A    
H1    C29   S    
O16   V4    S    
C10   C12   A    
C17   C25   A    
C12   C14   A    
C6    C22   A    
C8    C30   A    
C1    O8    A    
C21   C23   A    
O8    V2    S    
C22   C24   A    
C48   H12   S    
O13   V3    S    
C8    C28   A    
C20   C22   A    
C36   C38   S    
O17   V3    S    
C24   Br2   S    
O7    V1    S    
C9    H5    S    
O15   V3    S    
C13   C15   A    
O9    V2    S    
C47   O23   D    
O10   V1    S    
C33   C44   S    
C27   Br3   S    
H2    C30   S    
O6    C4    A    
C16   C18   A    
