data_mof_unit_47871.cif
_audit_creation_date              2012-12-11T15:48:55-0500
_audit_creation_method            fapswitch 2.2
_symmetry_space_group_name_H-M    P1
_symmetry_Int_Tables_number       1
_space_group_crystal_system       triclinic
_cell_length_a                    10.962926
_cell_length_b                    10.957179
_cell_length_c                    18.763692
_cell_angle_alpha                 90.47932
_cell_angle_beta                  90.111051
_cell_angle_gamma                 60.209362
_cell_volume                      1956.0047641

loop_
_atom_site_label
_atom_site_type_symbol
_atom_type_description
_atom_site_fract_x
_atom_site_fract_y
_atom_site_fract_z
_atom_type_partial_charge
C1    C     C_R   0.239554 0.645640 0.610403 0.541177
C2    C     C_R   0.579083 0.139895 0.709560 -0.181147
C3    C     C_R   0.575335 0.146775 0.782783 -0.170670
C4    C     C_R   0.653737 0.622389 0.600850 0.540635
C5    C     C_3   0.935209 0.091827 0.785725 -0.271426
C6    C     C_3   0.930286 0.099321 0.705040 -0.281101
C7    C     C_R   0.674860 0.163215 0.671852 0.015341
C8    C     C_R   0.181797 0.666554 0.835320 0.012436
C9    C     C_R   0.154419 0.575840 0.794235 0.018591
C10   C     C_R   0.162729 0.573845 0.720352 -0.004936
C11   C     C_R   0.214915 0.762494 0.726162 -0.171697
C12   C     C_3   0.671737 0.550278 0.799964 -0.253530
C13   C     C_R   0.214967 0.758560 0.800137 -0.179667
C14   C     C_3   0.227644 0.419438 0.797467 -0.282965
C15   C     C_3   0.234510 0.417786 0.716833 -0.271273
C16   C     C_R   0.630299 0.225414 0.601723 0.538539
C17   C     C_R   0.195359 0.665454 0.684923 0.012518
C18   C     C_R   0.649455 0.657324 0.164427 0.018475
C19   C     C_R   0.742670 0.533662 0.200756 0.031807
C20   C     C_R   0.740280 0.528901 0.273745 0.039704
C21   C     C_R   0.531372 0.754711 0.277787 -0.164381
C22   C     C_R   0.533728 0.761294 0.202803 -0.168274
C23   C     C_3   0.698373 0.673683 0.812349 0.051589
C24   C     C_3   0.900498 0.446944 0.200636 -0.269873
C25   C     C_3   0.895927 0.446950 0.280950 -0.280871
C26   C     C_R   0.642804 0.642216 0.314164 0.018215
C27   C     C_R   0.631461 0.193523 0.167671 0.021474
C28   C     C_R   0.219852 0.650015 0.402150 0.554234
C29   C     C_R   0.513745 0.211532 0.205735 0.025178
C30   C     C_R   0.510444 0.223615 0.278669 0.032129
C31   C     C_R   0.726599 0.228968 0.276779 -0.153581
C32   C     C_R   0.727055 0.222675 0.202379 -0.156538
C33   C     C_3   0.444400 0.123444 0.208241 -0.270713
C34   C     C_3   0.669708 0.648141 0.676272 0.057950
C35   C     C_3   0.440030 0.138496 0.288449 -0.280450
C36   C     C_R   0.623958 0.216813 0.315708 0.020816
C37   C     C_R   0.064493 0.719183 0.194100 0.021145
C38   C     C_R   0.033018 0.833736 0.238554 0.020398
C39   C     C_R   0.067350 0.814638 0.309908 0.020743
C40   C     C_R   0.639292 0.619965 0.390487 0.546256
C41   C     C_R   0.156687 0.564738 0.295250 -0.169566
C42   C     C_R   0.124397 0.584209 0.223167 -0.170952
C43   C     C_3   0.080991 0.939308 0.231181 -0.265206
C44   C     C_3   0.110495 0.924732 0.309844 -0.269409
C45   C     C_3   0.814479 0.634479 0.690071 -0.248380
C46   C     C_R   0.137648 0.678754 0.338019 0.020087
C47   C     C_R   0.702095 0.099978 0.895312 0.542808
C48   C     C_R   0.723020 0.687763 0.888381 0.544594
C49   C     C_R   0.119528 0.705232 0.906188 0.547500
C50   C     C_R   0.672070 0.112304 0.102119 0.543111
C51   C     C_R   0.694549 0.688052 0.096641 0.538645
C52   C     C_R   0.611238 0.239229 0.391956 0.548053
C53   C     C_R   0.032542 0.743953 0.119243 0.564330
C54   C     C_3   0.570888 0.809626 0.782837 -0.232946
C55   C     C_3   0.554975 0.795280 0.702403 -0.239327
C56   C     C_3   0.657132 0.533931 0.719638 -0.212825
C57   C     C_3   0.832033 0.646892 0.770434 -0.216888
C58   C     C_R   0.682540 0.151954 0.822217 0.016876
C59   C     C_R   0.779595 0.173927 0.784647 -0.007366
C60   C     C_R   0.773780 0.182720 0.710437 0.012540
Cr1   Cr    Cr6+3 0.392960 0.397920 0.502240 1.004221
Cr2   Cr    Cr6+3 0.398340 0.708480 0.501250 1.000419
Cr3   Cr    Cr6+3 0.708670 0.393570 0.496460 1.005065
Cr4   Cr    Cr6+3 0.937650 0.938540 0.007610 1.002404
Cr5   Cr    Cr6+3 0.625330 0.937370 0.994520 0.997417
Cr6   Cr    Cr6+3 0.937940 0.625230 0.001190 1.002050
H1    H     H_    0.587847 0.899701 0.792270 0.144839
H2    H     H_    0.235136 0.839393 0.701508 0.133297
H3    H     H_    0.230658 0.835134 0.829577 0.129576
H4    H     H_    0.159279 0.379889 0.818641 0.132232
H5    H     H_    0.331257 0.376465 0.824021 0.143770
H6    H     H_    0.342281 0.373261 0.695582 0.179841
H7    H     H_    0.168605 0.379201 0.690979 0.123390
H8    H     H_    0.446793 0.839747 0.307135 0.119394
H9    H     H_    0.452086 0.852154 0.175857 0.118877
H10   H     H_    0.951133 0.504569 0.180270 0.172181
H11   H     H_    0.939998 0.341024 0.176465 0.120745
H12   H     H_    0.742578 0.428910 0.702813 0.148976
H13   H     H_    0.936491 0.340734 0.303621 0.130166
H14   H     H_    0.448932 0.810848 0.691823 0.137042
H15   H     H_    0.938186 0.509944 0.306484 0.146167
H16   H     H_    0.809015 0.236974 0.303835 0.129770
H17   H     H_    0.810364 0.224405 0.172652 0.119527
H18   H     H_    0.516468 0.014333 0.190299 0.166515
H19   H     H_    0.338607 0.176060 0.183210 0.130844
H20   H     H_    0.331657 0.201646 0.310005 0.133360
H21   H     H_    0.507720 0.037909 0.316431 0.139210
H22   H     H_    0.211239 0.458314 0.315160 0.139731
H23   H     H_    0.923208 0.546991 0.788569 0.143190
H24   H     H_    0.156324 0.492384 0.189634 0.131194
H25   H     H_    0.997129 0.044675 0.216502 0.131293
H26   H     H_    0.563965 0.878404 0.673238 0.112936
H27   H     H_    0.178244 0.899626 0.198532 0.154366
H28   H     H_    0.823450 0.718244 0.661414 0.115820
H29   H     H_    0.574100 0.570028 0.828004 0.120039
H30   H     H_    0.554939 0.538693 0.708672 0.127990
H31   H     H_    0.900406 0.531304 0.670327 0.132515
H32   H     H_    0.472520 0.831779 0.810901 0.116210
H33   H     H_    0.223115 0.884637 0.321086 0.160547
H34   H     H_    0.498055 0.128017 0.682582 0.128417
H35   H     H_    0.036919 0.019571 0.341214 0.129553
H36   H     H_    0.854954 0.733717 0.780881 0.126128
H37   H     H_    0.760234 0.451292 0.821395 0.131130
H38   H     H_    0.492793 0.135442 0.807928 0.137506
H39   H     H_    0.972376 0.985009 0.806589 0.174439
H40   H     H_    0.982053 0.151287 0.810760 0.127633
H41   H     H_    0.975354 0.162512 0.683270 0.132323
H42   H     H_    0.967015 0.995994 0.678240 0.145938
O1    O     O_R   0.507380 0.255700 0.581440 -0.535111
O2    O     O_R   0.837170 0.593410 0.915250 -0.527064
O3    O     O_R   0.065200 0.635530 0.931570 -0.494331
O4    O     O_R   0.280320 0.527350 0.578930 -0.503500
O5    O     O_R   0.068260 0.828890 0.091840 -0.516894
O6    O     O_R   0.798870 0.057410 0.079340 -0.519775
O7    O     O_R   0.584930 0.080350 0.076780 -0.521695
O8    O     O_R   0.626960 0.809650 0.067060 -0.506917
O9    O     O_R   0.816040 0.596610 0.076510 -0.532385
O10   O     O_R   0.045610 0.638500 0.081060 -0.514096
O11   O     O_3   0.833640 0.833710 0.001100 -0.264132
O12   O     O_R   0.524480 0.695810 0.424040 -0.507890
O13   O     O_R   0.260510 0.739590 0.584590 -0.533602
O14   O     O_R   0.532300 0.695080 0.573820 -0.509824
O15   O     O_R   0.744840 0.503500 0.576370 -0.529254
O16   O     O_R   0.699120 0.276560 0.571960 -0.499848
O17   O     O_R   0.498940 0.256500 0.419860 -0.519518
O18   O     O_R   0.272500 0.528080 0.429150 -0.509134
O19   O     O_R   0.252060 0.740380 0.423010 -0.525046
O20   O     O_R   0.736390 0.504290 0.414790 -0.519743
O21   O     O_R   0.691300 0.277290 0.422170 -0.511459
O22   O     O_3   0.499990 0.499990 0.499980 -0.249207
O23   O     O_R   0.089400 0.825690 0.930570 -0.527417
O24   O     O_R   0.818460 0.054440 0.929850 -0.500694
O25   O     O_R   0.606060 0.077150 0.915510 -0.534531
O26   O     O_R   0.646550 0.806680 0.917570 -0.509065

loop_
_geom_bond_atom_site_label_1
_geom_bond_atom_site_label_2
_ccdc_geom_bond_type
C3    H38   S    
C48   O2    A    
C21   C26   A    
C34   C56   S    
C8    C13   A    
C27   C29   A    
C14   H4    S    
C14   H5    S    
Cr2   O22   S    
C2    C7    A    
C43   C44   S    
Cr1   O1    S    
Cr3   O16   S    
C5    H39   S    
C15   H6    S    
C49   O23   A    
C12   C23   S    
C45   C57   S    
C29   C30   A    
C31   H16   S    
C57   H23   S    
C30   C35   S    
C52   O21   A    
C52   O17   A    
C48   O26   A    
C18   C19   A    
C10   C15   S    
C31   C36   A    
C1    O4    A    
C5    C6    S    
C44   H33   S    
C20   C25   S    
C10   C17   A    
C40   O20   A    
C29   C33   S    
C56   H12   S    
C23   C57   S    
C50   O7    A    
C41   C42   A    
Cr3   O22   S    
C37   C42   A    
C41   H22   S    
C33   H19   S    
C51   O9    A    
C35   H21   S    
Cr4   O24   S    
C28   O18   A    
C8    C9    A    
Cr6   O9    S    
C18   C51   S    
C41   C46   A    
C12   H29   S    
Cr1   O18   S    
C23   C48   S    
Cr6   O3    S    
C9    C10   A    
Cr2   O12   S    
Cr5   O26   S    
C36   C52   S    
C27   C50   S    
C49   O3    A    
C37   C53   S    
C2    H34   S    
C34   C55   S    
C18   C22   A    
C21   C22   A    
C47   O25   A    
C25   H15   S    
Cr5   O7    S    
C22   H9    S    
C45   H28   S    
C53   O5    A    
C16   O1    A    
C5    H40   S    
C38   C39   A    
C4    C34   S    
Cr4   O6    S    
C5    C59   S    
C6    C60   S    
C24   C25   S    
C12   H37   S    
C53   O10   A    
C24   H10   S    
C54   H1    S    
C58   C59   A    
C21   H8    S    
C43   H25   S    
C4    O15   A    
C42   H24   S    
C9    C14   S    
C37   C38   A    
C57   H36   S    
C31   C32   A    
Cr4   O23   S    
C6    H41   S    
C28   C46   S    
Cr5   O11   S    
C4    O14   A    
C34   C45   S    
Cr6   O2    S    
Cr4   O11   S    
C12   C56   S    
Cr1   O22   S    
C39   C46   A    
C7    C16   S    
C15   H7    S    
C55   H26   S    
Cr6   O11   S    
Cr5   O8    S    
C7    C60   A    
Cr2   O14   S    
C11   H2    S    
C23   C54   S    
C56   H30   S    
C32   H17   S    
C54   C55   S    
C11   C17   A    
Cr4   O5    S    
C40   O12   A    
C27   C32   A    
C25   H13   S    
Cr3   O20   S    
C20   C26   A    
Cr3   O15   S    
C44   H35   S    
C28   O19   A    
C39   C44   S    
C1    C17   S    
C51   O8    A    
C30   C36   A    
C47   O24   A    
C43   H27   S    
C19   C20   A    
C2    C3    A    
C16   O16   A    
C38   C43   S    
C45   H31   S    
C47   C58   S    
C55   H14   S    
C11   C13   A    
C26   C40   S    
Cr2   O19   S    
C13   H3    S    
C8    C49   S    
C33   C35   S    
C19   C24   S    
Cr3   O21   S    
C33   H18   S    
C1    O13   A    
C3    C58   A    
C24   H11   S    
C59   C60   A    
Cr6   O10   S    
C6    H42   S    
C14   C15   S    
C54   H32   S    
Cr1   O17   S    
C50   O6    A    
Cr1   O4    S    
C35   H20   S    
Cr2   O13   S    
Cr5   O25   S    
