data_mof_unit_53622.cif
_audit_creation_date              2012-10-26T20:25:37-0400
_audit_creation_method            fapswitch 2.2
_symmetry_space_group_name_H-M    P1
_symmetry_Int_Tables_number       1
_space_group_crystal_system       triclinic
_cell_length_a                    23.524721
_cell_length_b                    10.846566
_cell_length_c                    9.601315
_cell_angle_alpha                 90.404982
_cell_angle_beta                  90.543954
_cell_angle_gamma                 91.731053
_cell_volume                      2448.60025143

loop_
_atom_site_label
_atom_site_type_symbol
_atom_type_description
_atom_site_fract_x
_atom_site_fract_y
_atom_site_fract_z
_atom_type_partial_charge
C1    C     C_R   0.499029 0.259923 0.499555 0.609531
C2    C     C_R   0.702246 0.612931 0.442441 0.003754
C3    C     C_R   0.233662 0.412835 0.462067 0.036531
C4    C     C_R   0.760605 0.629338 0.477878 0.030042
C5    C     C_R   0.209675 0.519973 0.517743 0.193653
C6    C     C_R   0.791139 0.526059 0.521241 0.149491
C7    C     C_3   0.532281 0.043078 0.598746 -0.021048
C8    C     C_3   0.456757 0.954265 0.410918 -0.019336
C9    C     C_3   0.546303 0.957775 0.475428 -0.023422
C10   C     C_3   0.443525 0.040866 0.534655 -0.008268
C11   C     C_3   0.493697 0.875664 0.507261 -0.073275
C12   C     C_R   0.497330 0.739387 0.501451 0.588781
C13   C     C_3   0.496645 0.122782 0.499644 -0.064045
C14   C     C_3   0.479679 0.960862 0.631199 -0.007183
C15   C     C_3   0.510096 0.036111 0.375901 -0.014341
C16   C     C_R   0.391433 0.501446 0.499441 0.564614
C17   C     C_R   0.608776 0.502354 0.499046 0.544896
C18   C     C_3   0.495467 0.610434 0.050129 0.066739
C19   C     C_3   0.504954 0.390667 0.951452 0.066172
C20   C     C_3   0.453735 0.543724 0.949968 0.076552
C21   C     C_3   0.546651 0.457864 0.050619 0.061985
C22   C     C_3   0.541726 0.567257 0.950773 0.061283
C23   C     C_R   0.244352 0.618671 0.562978 -0.045490
C24   C     C_3   0.458695 0.434130 0.049023 0.047555
C25   C     C_R   0.881652 0.557782 0.407196 0.401523
C26   C     C_R   0.121557 0.494660 0.643157 0.446746
C27   C     C_R   0.880443 0.501963 0.646105 0.420729
C28   C     C_R   0.120941 0.576961 0.413641 0.476743
C29   C     C_R   0.940443 0.492501 0.647798 0.003117
C30   C     C_R   0.061241 0.587527 0.415618 0.013347
C31   C     C_R   0.971024 0.536819 0.530818 -0.058456
C32   C     C_R   0.031172 0.539035 0.531652 -0.054938
C33   C     C_R   0.941136 0.577414 0.411796 -0.005221
C34   C     C_R   0.762389 0.413118 0.541204 -0.004526
C35   C     C_R   0.061287 0.491985 0.647705 0.013430
C36   C     C_R   0.970358 0.441272 0.761796 0.033805
C37   C     C_R   0.030979 0.643111 0.304797 0.043589
C38   C     C_R   0.030467 0.441659 0.762078 0.039141
C39   C     C_R   0.970986 0.636692 0.302036 0.034687
C40   C     C_2   0.939592 0.373010 0.873514 0.660448
C41   C     C_2   0.061231 0.720661 0.200319 0.658510
C42   C     C_2   0.396902 0.584815 0.899719 0.569309
C43   C     C_2   0.602046 0.412442 0.106355 0.585848
C44   C     C_2   0.492264 0.739495 0.102344 0.380662
C45   C     C_R   0.303545 0.613848 0.557103 -0.050141
C46   C     C_2   0.508799 0.259631 0.910223 0.344378
C47   C     C_2   0.591673 0.638497 0.891795 0.377603
C48   C     C_2   0.409195 0.361616 0.105088 0.377042
C49   C     C_2   0.059911 0.377347 0.876671 0.667583
C50   C     C_2   0.939948 0.707228 0.194429 0.659742
C51   C     C_2   0.338166 0.722136 0.608431 0.329239
C52   C     C_2   0.675962 0.277443 0.523141 0.287134
C53   C     C_2   0.317883 0.306602 0.362741 0.551778
C54   C     C_2   0.679137 0.686767 0.324808 0.667928
C55   C     C_2   0.196997 0.301060 0.431608 0.344097
C56   C     C_R   0.703162 0.402199 0.527199 -0.045462
C57   C     C_2   0.790079 0.753273 0.473853 0.344462
C58   C     C_2   0.606301 0.916156 0.469035 0.674311
C59   C     C_2   0.385711 0.084818 0.574017 0.704942
C60   C     C_2   0.576117 0.082882 0.706761 0.613366
C61   C     C_2   0.409623 0.906974 0.315741 0.627187
C62   C     C_2   0.462677 0.920030 0.773576 0.627058
C63   C     C_2   0.526569 0.059736 0.227963 0.679151
C64   C     C_R   0.328734 0.508221 0.499235 -0.036803
C65   C     C_R   0.671911 0.507352 0.493779 -0.066839
C66   C     C_R   0.293469 0.409644 0.444576 -0.029679
Cu1   Cu    Cu3+1 0.500010 0.499990 0.643150 1.097189
Cu2   Cu    Cu3+1 0.499990 0.500010 0.356850 1.100872
H1    H     H_    0.224345 0.699702 0.604228 0.194174
H2    H     H_    0.372993 0.410172 0.143880 0.131519
H3    H     H_    0.100471 0.225716 0.938239 0.368468
H4    H     H_    0.920976 0.729999 0.991079 0.363659
H5    H     H_    0.383754 0.726953 0.594874 0.135624
H6    H     H_    0.632733 0.264447 0.484333 0.149221
H7    H     H_    0.306985 0.180965 0.207461 0.404237
H8    H     H_    0.695748 0.779972 0.147600 0.391251
H9    H     H_    0.214577 0.210063 0.440228 0.159892
H10   H     H_    0.835239 0.763155 0.496071 0.146441
H11   H     H_    0.668246 0.828935 0.572499 0.364373
H12   H     H_    0.787025 0.332559 0.563099 0.208372
H13   H     H_    0.340157 0.203619 0.686837 0.355300
H14   H     H_    0.625544 0.219663 0.790406 0.352646
H15   H     H_    0.359737 0.762687 0.251377 0.349832
H16   H     H_    0.406707 0.930138 0.931077 0.387578
H17   H     H_    0.503799 0.034806 0.027805 0.367546
H18   H     H_    0.922733 0.357273 0.078367 0.366961
H19   H     H_    0.110567 0.872124 0.164334 0.366241
H20   H     H_    0.317467 0.534416 0.836682 0.356567
H21   H     H_    0.642142 0.290519 0.225747 0.357735
H22   H     H_    0.452397 0.785950 0.097937 0.141856
H23   H     H_    0.545975 0.210092 0.941139 0.124553
H24   H     H_    0.624406 0.590077 0.837112 0.135371
N1    N     N_R   0.852499 0.529925 0.525717 -0.422316
N2    N     N_R   0.149124 0.531492 0.525717 -0.381890
N3    N     N_3   0.500040 0.499970 0.858290 -0.305651
N4    N     N_3   0.499960 0.500030 0.141710 -0.313676
O1    O     O_R   0.500030 0.316850 0.620870 -0.427812
O2    O     O_2   0.152919 0.460440 0.753825 -0.429860
O3    O     O_2   0.850104 0.485615 0.763370 -0.415815
O4    O     O_2   0.150980 0.607548 0.299275 -0.403569
O5    O     O_2   0.909522 0.282564 0.843518 -0.436803
O6    O     O_R   0.945700 0.411120 0.012334 -0.595311
O7    O     O_2   0.060349 0.690743 0.077323 -0.397780
O8    O     O_R   0.091407 0.827165 0.244220 -0.645073
O9    O     O_2   0.385940 0.693959 0.902290 -0.520339
O10   O     O_R   0.355292 0.496650 0.859381 -0.661917
O11   O     O_2   0.646902 0.463805 0.074056 -0.501614
O12   O     O_R   0.499970 0.683150 0.379130 -0.447844
O13   O     O_R   0.602248 0.312532 0.196178 -0.647224
O14   O     O_2   0.534816 0.793855 0.146978 -0.398417
O15   O     O_2   0.468871 0.205655 0.852829 -0.395977
O16   O     O_2   0.597025 0.749750 0.908170 -0.358229
O17   O     O_2   0.408690 0.249206 0.104649 -0.383032
O18   O     O_2   0.065586 0.426882 0.990913 -0.383954
O19   O     O_R   0.081169 0.260237 0.852737 -0.635400
O20   O     O_2   0.910259 0.792373 0.229923 -0.453265
O21   O     O_R   0.944332 0.675722 0.053652 -0.586043
O22   O     O_2   0.315992 0.807893 0.667937 -0.408600
O23   O     O_R   0.500000 0.316860 0.379090 -0.461985
O24   O     O_2   0.701876 0.186888 0.559128 -0.418271
O25   O     O_2   0.365859 0.272574 0.387004 -0.474995
O26   O     O_R   0.286558 0.251311 0.253165 -0.665254
O27   O     O_2   0.628288 0.702136 0.311254 -0.433154
O28   O     O_R   0.716175 0.733642 0.223564 -0.572835
O29   O     O_2   0.147257 0.308444 0.396220 -0.438214
O30   O     O_2   0.764117 0.847084 0.452269 -0.418860
O31   O     O_2   0.638805 0.956093 0.380624 -0.378135
O32   O     O_R   0.625656 0.838462 0.573669 -0.636765
O33   O     O_2   0.342875 0.035846 0.522960 -0.438671
O34   O     O_R   0.500000 0.683140 0.620910 -0.478427
O35   O     O_R   0.381088 0.181852 0.669176 -0.572002
O36   O     O_2   0.595561 0.006676 0.785743 -0.377780
O37   O     O_R   0.594974 0.205617 0.716274 -0.722322
O38   O     O_2   0.384514 0.978921 0.241528 -0.405944
O39   O     O_R   0.392574 0.782545 0.317737 -0.738610
O40   O     O_2   0.494057 0.854262 0.839200 -0.456813
O41   O     O_R   0.411922 0.958628 0.831659 -0.578554
O42   O     O_2   0.576297 0.079271 0.198561 -0.415132
O43   O     O_R   0.485932 0.044356 0.122386 -0.621553
O44   O     O_R   0.417890 0.499960 0.620920 -0.468547
O45   O     O_R   0.582110 0.500040 0.379080 -0.443867
O46   O     O_R   0.417870 0.499970 0.379140 -0.506266
O47   O     O_R   0.582130 0.500030 0.620860 -0.521403
O48   O     O_2   0.852877 0.565146 0.285379 -0.407451

loop_
_geom_bond_atom_site_label_1
_geom_bond_atom_site_label_2
_ccdc_geom_bond_type
C26   N2    A    
C54   O27   D    
C34   C56   A    
C23   C45   A    
C27   C29   A    
H7    O26   S    
C18   N4    S    
C47   H24   S    
C23   H1    S    
C16   O46   A    
H11   O32   S    
C2    C65   A    
Cu1   O47   S    
C60   O36   D    
C5    N2    S    
C19   C46   S    
C44   H22   S    
C38   C49   S    
C25   N1    A    
C29   C36   A    
C59   O35   S    
Cu2   N4    S    
C12   O34   A    
C28   N2    A    
C19   C21   S    
C52   H6    S    
C53   O26   S    
C24   N4    S    
Cu2   O23   S    
C1    O23   A    
C55   H9    S    
C11   C14   S    
H13   O35   S    
C45   C51   S    
C47   O16   D    
C14   C62   S    
H21   O13   S    
C51   O22   D    
C17   O45   A    
C9    C58   S    
C22   N3    S    
C62   O40   D    
C34   H12   S    
C40   O5    D    
C21   C43   S    
C3    C55   S    
C33   C39   A    
C7    C14   S    
C20   C24   S    
C4    C57   S    
C31   C33   A    
Cu2   O46   S    
H17   O43   S    
H15   O39   S    
C8    C61   S    
C28   O4    S    
C49   O18   D    
C58   O31   D    
C21   C22   S    
Cu1   N3    S    
C16   O44   A    
C61   O38   D    
C37   C39   A    
Cu1   Cu2   S    
H8    O28   S    
C32   C35   A    
C55   O29   D    
C36   C40   S    
C35   C38   A    
C4    C6    A    
C2    C54   S    
C1    O1    A    
C57   O30   D    
C12   O12   A    
C3    C66   A    
C50   O21   S    
C43   O13   S    
C46   H23   S    
C6    C34   A    
C30   C37   A    
C24   C48   S    
H4    O21   S    
C2    C4    A    
C53   C66   S    
C18   C44   S    
H20   O10   S    
C31   C32   A    
C5    C23   A    
C6    N1    S    
C27   O3    S    
C50   O20   D    
H3    O19   S    
Cu2   O45   S    
C43   O11   D    
Cu1   O44   S    
C42   O10   S    
C64   C66   A    
C26   O2    S    
C52   O24   D    
C49   O19   S    
C20   N3    S    
H16   O41   S    
C8    C15   S    
C9    C11   S    
C10   C14   S    
C63   O42   D    
C27   N1    A    
Cu1   O34   S    
C1    C13   S    
C36   C38   A    
H18   O6    S    
C7    C60   S    
C19   N3    S    
C61   O39   S    
C7    C9    S    
C54   O28   S    
C59   O33   D    
C18   C22   S    
C63   O43   S    
C57   H10   S    
C51   H5    S    
C48   H2    S    
C3    C5    A    
C10   C13   S    
C20   C42   S    
C11   C12   S    
C21   N4    S    
Cu2   O12   S    
C45   C64   A    
C17   C65   S    
C41   O8    S    
C17   O47   A    
H14   O37   S    
C13   C15   S    
C19   C24   S    
C9    C15   S    
C29   C31   A    
C53   O25   D    
C58   O32   S    
C30   C32   A    
C52   C56   S    
C8    C11   S    
C28   C30   A    
C22   C47   S    
C18   C20   S    
C62   O41   S    
C37   C41   S    
C42   O9    D    
Cu1   O1    S    
C40   O6    S    
H19   O8    S    
C25   O48   S    
C41   O7    D    
C26   C35   A    
C7    C13   S    
C39   C50   S    
C8    C10   S    
C15   C63   S    
C16   C64   S    
C46   O15   D    
C10   C59   S    
C60   O37   S    
C56   C65   A    
C25   C33   A    
C48   O17   D    
C44   O14   D    
