data_mof_unit_64541.cif
_audit_creation_date              2012-12-10T18:10:49-0500
_audit_creation_method            fapswitch 2.2
_symmetry_space_group_name_H-M    P1
_symmetry_Int_Tables_number       1
_space_group_crystal_system       triclinic
_cell_length_a                    21.685362
_cell_length_b                    21.685435
_cell_length_c                    35.5157
_cell_angle_alpha                 90.000025
_cell_angle_beta                  90.366129
_cell_angle_gamma                 90.0
_cell_volume                      16701.1480708

loop_
_atom_site_label
_atom_site_type_symbol
_atom_type_description
_atom_site_fract_x
_atom_site_fract_y
_atom_site_fract_z
_atom_type_partial_charge
C1    C     C_R   0.500000 0.880076 0.000000 0.978679
C2    C     C_R   0.119921 0.500009 0.999986 0.978018
C3    C     C_R   0.500000 0.119917 0.000000 0.977317
C4    C     C_R   0.880079 0.500009 0.000014 0.978018
C5    C     C_R   0.000000 0.380076 0.500000 0.978679
C6    C     C_R   0.619921 0.000009 0.499986 0.978018
C7    C     C_R   1.000000 0.619917 0.500000 0.977317
C8    C     C_R   0.380079 0.000009 0.500014 0.978018
C9    C     C_1   0.498616 0.004171 0.733245 0.161221
C10   C     C_1   0.005571 0.500032 0.733239 0.161436
C11   C     C_1   0.501384 0.004171 0.266755 0.161220
C12   C     C_1   0.994429 0.500031 0.266761 0.161437
C13   C     C_1   0.998616 0.504171 0.233245 0.161221
C14   C     C_1   0.505571 0.000032 0.233239 0.161436
C15   C     C_1   0.001384 0.504171 0.766755 0.161220
C16   C     C_1   0.494429 0.000031 0.766761 0.161437
C17   C     C_R   0.538093 0.718754 0.026044 -0.092272
C18   C     C_R   0.281513 0.538237 0.025718 -0.092283
C19   C     C_R   0.462336 0.281209 0.025978 -0.091533
C20   C     C_R   0.719060 0.462458 0.026291 -0.091535
C21   C     C_R   0.537664 0.281209 0.974022 -0.091534
C22   C     C_R   0.280940 0.462457 0.973709 -0.091535
C23   C     C_R   0.461907 0.718754 0.973956 -0.092271
C24   C     C_R   0.718487 0.538237 0.974282 -0.092283
C25   C     C_R   0.038093 0.218754 0.526044 -0.092271
C26   C     C_R   0.781513 0.038237 0.525718 -0.092283
C27   C     C_R   0.962336 0.781209 0.525978 -0.091533
C28   C     C_R   0.219060 0.962458 0.526291 -0.091535
C29   C     C_R   0.037664 0.781209 0.474022 -0.091533
C30   C     C_R   0.780940 0.962457 0.473709 -0.091535
C31   C     C_R   0.961907 0.218754 0.473956 -0.092271
C32   C     C_R   0.218487 0.038237 0.474282 -0.092283
C33   C     C_R   0.379589 0.500071 0.999897 1.059040
C34   C     C_R   0.500000 0.379586 0.000000 1.058516
C35   C     C_R   0.620410 0.500071 0.000103 1.059038
C36   C     C_R   0.500000 0.620406 0.000000 1.059588
C37   C     C_R   0.879589 0.000071 0.499897 1.059039
C38   C     C_R   1.000000 0.879586 0.500000 1.058515
C39   C     C_R   0.120411 0.000071 0.500103 1.059038
C40   C     C_R   0.000000 0.120406 0.500000 1.059588
C41   C     C_R   0.535531 0.782844 0.027087 0.172698
C42   C     C_R   0.217460 0.535456 0.026902 0.172120
C43   C     C_R   0.465086 0.217134 0.027106 0.170997
C44   C     C_R   0.783170 0.464985 0.027279 0.171629
C45   C     C_R   0.534914 0.217134 0.972894 0.170997
C46   C     C_R   0.216830 0.464985 0.972721 0.171627
C47   C     C_R   0.464469 0.782844 0.972913 0.172697
C48   C     C_R   0.782540 0.535456 0.973098 0.172119
C49   C     C_R   0.035531 0.282844 0.527087 0.172697
C50   C     C_R   0.717460 0.035456 0.526902 0.172120
C51   C     C_R   0.965086 0.717134 0.527106 0.170997
C52   C     C_R   0.283170 0.964985 0.527279 0.171629
C53   C     C_R   0.034914 0.717134 0.472894 0.170997
C54   C     C_R   0.716830 0.964985 0.472721 0.171628
C55   C     C_R   0.964469 0.282844 0.472913 0.172698
C56   C     C_R   0.282540 0.035456 0.473098 0.172119
C57   C     C_R   0.499746 0.000125 0.926670 0.978507
C58   C     C_R   0.000176 0.500075 0.926672 0.978525
C59   C     C_R   0.500254 0.000125 0.073330 0.978508
C60   C     C_R   0.999824 0.500075 0.073328 0.978527
C61   C     C_R   0.999746 0.500125 0.426670 0.978506
C62   C     C_R   0.500175 0.000075 0.426672 0.978525
C63   C     C_R   0.000254 0.500125 0.573330 0.978508
C64   C     C_R   0.499824 0.000075 0.573328 0.978527
C65   C     C_R   0.500000 0.686865 0.000000 -0.129748
C66   C     C_R   0.313123 0.500323 0.999714 -0.130281
C67   C     C_R   0.500000 0.313113 1.000000 -0.130783
C68   C     C_R   0.686877 0.500323 0.000285 -0.130281
C69   C     C_R   0.000000 0.186865 0.500000 -0.129748
C70   C     C_R   0.813123 0.000323 0.499715 -0.130280
C71   C     C_R   1.000000 0.813113 0.500000 -0.130783
C72   C     C_R   0.186877 0.000323 0.500285 -0.130281
C73   C     C_R   0.500000 0.814156 0.000000 -0.117092
C74   C     C_R   0.185836 0.500086 0.999893 -0.115732
C75   C     C_R   0.500000 0.185827 0.000000 -0.114408
C76   C     C_R   0.814164 0.500086 0.000107 -0.115733
C77   C     C_R   0.000000 0.314156 0.500000 -0.117092
C78   C     C_R   0.685836 0.000086 0.499893 -0.115732
C79   C     C_R   0.000000 0.685827 0.500000 -0.114408
C80   C     C_R   0.314164 0.000086 0.500107 -0.115732
C81   C     C_R   0.548014 0.972226 0.674081 -0.076340
C82   C     C_R   0.043661 0.539907 0.673064 -0.094233
C83   C     C_R   0.459013 0.042432 0.672740 -0.094123
C84   C     C_R   0.973331 0.451005 0.673716 -0.076534
C85   C     C_R   0.540988 0.042431 0.327260 -0.094124
C86   C     C_R   0.026669 0.451005 0.326284 -0.076534
C87   C     C_R   0.451986 0.972226 0.325919 -0.076338
C88   C     C_R   0.956339 0.539907 0.326936 -0.094233
C89   C     C_R   0.048014 0.472226 0.174081 -0.076340
C90   C     C_R   0.543661 0.039907 0.173064 -0.094233
C91   C     C_R   0.959013 0.542432 0.172740 -0.094123
C92   C     C_R   0.473332 0.951005 0.173716 -0.076533
C93   C     C_R   0.040988 0.542431 0.827260 -0.094124
C94   C     C_R   0.526669 0.951005 0.826284 -0.076534
C95   C     C_R   0.951986 0.472226 0.825919 -0.076339
C96   C     C_R   0.456339 0.039907 0.826936 -0.094232
C97   C     C_R   0.546153 0.968940 0.634548 0.144763
C98   C     C_R   0.038047 0.543157 0.633766 0.154653
C99   C     C_R   0.456144 0.037180 0.633425 0.154960
C100  C     C_R   0.969686 0.453237 0.634197 0.144887
C101  C     C_R   0.543856 0.037180 0.366574 0.154960
C102  C     C_R   0.030314 0.453237 0.365803 0.144887
C103  C     C_R   0.453847 0.968940 0.365452 0.144762
C104  C     C_R   0.961952 0.543157 0.366234 0.154652
C105  C     C_R   0.046153 0.468940 0.134548 0.144763
C106  C     C_R   0.538047 0.043157 0.133766 0.154652
C107  C     C_R   0.956144 0.537180 0.133426 0.154960
C108  C     C_R   0.469686 0.953237 0.134196 0.144887
C109  C     C_R   0.043856 0.537180 0.866574 0.154961
C110  C     C_R   0.530314 0.953237 0.865803 0.144887
C111  C     C_R   0.953847 0.468940 0.865452 0.144763
C112  C     C_R   0.461952 0.043157 0.866234 0.154652
C113  C     C_R   0.499959 0.000916 0.614430 -0.115213
C114  C     C_R   0.001512 0.499599 0.614433 -0.115230
C115  C     C_R   0.500041 0.000916 0.385570 -0.115213
C116  C     C_R   0.998488 0.499599 0.385567 -0.115231
C117  C     C_R   0.999959 0.500916 0.114430 -0.115213
C118  C     C_R   0.501512 0.999599 0.114433 -0.115230
C119  C     C_R   0.000041 0.500916 0.885570 -0.115213
C120  C     C_R   0.498488 0.999599 0.885567 -0.115231
C121  C     C_R   0.503371 0.008021 0.693018 -0.003698
C122  C     C_R   0.009327 0.495444 0.692998 -0.003097
C123  C     C_R   0.496629 0.008021 0.306982 -0.003699
C124  C     C_R   0.990673 0.495443 0.307002 -0.003097
C125  C     C_R   0.003371 0.508021 0.193018 -0.003698
C126  C     C_R   0.509327 0.995444 0.192998 -0.003097
C127  C     C_R   0.996629 0.508021 0.806982 -0.003698
C128  C     C_R   0.490673 0.995443 0.807002 -0.003097
O1    O     O_R   0.448380 0.908480 0.999900 -0.581449
O2    O     O_R   0.091520 0.448380 0.999900 -0.581839
O3    O     O_R   0.551620 0.091520 0.999900 -0.581222
O4    O     O_R   0.908480 0.551620 0.999900 -0.580825
O5    O     O_R   0.448380 0.091520 0.000100 -0.581222
O6    O     O_R   0.091520 0.551620 0.000100 -0.580826
O7    O     O_R   0.551620 0.908480 0.000100 -0.581450
O8    O     O_R   0.908480 0.448380 0.000100 -0.581839
O9    O     O_R   0.948380 0.408480 0.499900 -0.581449
O10   O     O_R   0.591520 0.948380 0.499900 -0.581839
O11   O     O_R   0.051620 0.591520 0.499900 -0.581222
O12   O     O_R   0.408480 0.051620 0.499900 -0.580825
O13   O     O_R   0.948380 0.591520 0.500100 -0.581222
O14   O     O_R   0.591520 0.051620 0.500100 -0.580826
O15   O     O_R   0.051620 0.408480 0.500100 -0.581450
O16   O     O_R   0.408480 0.948380 0.500100 -0.581839
O17   O     O_R   0.448380 0.000100 0.944450 -0.579811
O18   O     O_R   0.999900 0.448380 0.944450 -0.581387
O19   O     O_R   0.551620 0.999900 0.944450 -0.581187
O20   O     O_R   0.000100 0.551620 0.944450 -0.579657
O21   O     O_R   0.448380 0.999900 0.055550 -0.581188
O22   O     O_R   0.999900 0.551620 0.055550 -0.579657
O23   O     O_R   0.551620 0.000100 0.055550 -0.579811
O24   O     O_R   0.000100 0.448380 0.055550 -0.581387
O25   O     O_R   0.948380 0.500100 0.444450 -0.579811
O26   O     O_R   0.499900 0.948380 0.444450 -0.581387
O27   O     O_R   0.051620 0.499900 0.444450 -0.581187
O28   O     O_R   0.500100 0.051620 0.444450 -0.579657
O29   O     O_R   0.948380 0.499900 0.555550 -0.581188
O30   O     O_R   0.499900 0.051620 0.555550 -0.579657
O31   O     O_R   0.051620 0.500100 0.555550 -0.579811
O32   O     O_R   0.500100 0.948380 0.555550 -0.581387
O33   O     O_R   0.408370 0.500100 0.031180 -0.610813
O34   O     O_R   0.499900 0.408370 0.031180 -0.610849
O35   O     O_R   0.591630 0.499900 0.031180 -0.610568
O36   O     O_R   0.500100 0.591630 0.031180 -0.610535
O37   O     O_R   0.408370 0.499900 0.968820 -0.610567
O38   O     O_R   0.499900 0.591630 0.968820 -0.610533
O39   O     O_R   0.591630 0.500100 0.968820 -0.610813
O40   O     O_R   0.500100 0.408370 0.968820 -0.610848
O41   O     O_R   0.908370 0.000100 0.531180 -0.610813
O42   O     O_R   0.999900 0.908370 0.531180 -0.610849
O43   O     O_R   0.091630 0.999900 0.531180 -0.610568
O44   O     O_R   0.000100 0.091630 0.531180 -0.610534
O45   O     O_R   0.908370 0.999900 0.468820 -0.610568
O46   O     O_R   0.999900 0.091630 0.468820 -0.610534
O47   O     O_R   0.091630 0.000100 0.468820 -0.610813
O48   O     O_R   0.000100 0.908370 0.468820 -0.610848
Zn1   Zn    Zn3+2 0.431030 0.000000 0.000000 1.158874
Zn2   Zn    Zn3+2 0.000000 0.431030 0.000000 1.155961
Zn3   Zn    Zn3+2 0.568970 0.000000 0.000000 1.158874
Zn4   Zn    Zn3+2 0.000000 0.568970 0.000000 1.161698
Zn5   Zn    Zn3+2 0.931030 0.500000 0.500000 1.158875
Zn6   Zn    Zn3+2 0.500000 0.931030 0.500000 1.155961
Zn7   Zn    Zn3+2 0.068970 0.500000 0.500000 1.158875
Zn8   Zn    Zn3+2 0.500000 0.068970 0.500000 1.161698
Zn9   Zn    Zn3+2 0.500000 0.500000 0.041690 1.085995
Zn10  Zn    Zn3+2 0.500000 0.500000 0.958310 1.085995
Zn11  Zn    Zn3+2 0.000000 0.000000 0.541690 1.085995
Zn12  Zn    Zn3+2 0.000000 0.000000 0.458310 1.085995
C129  C     C_2   0.582114 0.686418 0.051629 0.525968
H1    H     H_    0.587663 0.701311 0.080599 0.111527
O49   O     O_2   0.614256 0.644249 0.040206 -0.533272
C130  C     C_2   0.314107 0.582273 0.051129 0.526259
H2    H     H_    0.299599 0.587761 0.080097 0.111404
O50   O     O_2   0.356082 0.614485 0.039554 -0.533080
C131  C     C_2   0.418516 0.313500 0.051366 0.525476
H3    H     H_    0.413398 0.298753 0.080352 0.109689
O51   O     O_2   0.386043 0.355456 0.039745 -0.532634
C132  C     C_2   0.687025 0.418636 0.051839 0.525119
H4    H     H_    0.702158 0.413428 0.080825 0.109732
O52   O     O_2   0.644868 0.386251 0.040362 -0.532870
C133  C     C_2   0.581483 0.313500 0.948634 0.525477
H5    H     H_    0.586601 0.298753 0.919648 0.109689
O53   O     O_2   0.613958 0.355456 0.960254 -0.532634
C134  C     C_2   0.312975 0.418635 0.948161 0.525118
H6    H     H_    0.297841 0.413427 0.919176 0.109732
O54   O     O_2   0.355132 0.386250 0.959638 -0.532871
C135  C     C_2   0.417885 0.686418 0.948372 0.525969
H7    H     H_    0.412336 0.701311 0.919401 0.111527
O55   O     O_2   0.385744 0.644249 0.959794 -0.533273
C136  C     C_2   0.685892 0.582273 0.948871 0.526259
H8    H     H_    0.700401 0.587761 0.919903 0.111404
O56   O     O_2   0.643918 0.614485 0.960445 -0.533080
C137  C     C_2   0.082114 0.186418 0.551629 0.525968
H9    H     H_    0.087664 0.201311 0.580599 0.111527
O57   O     O_2   0.114256 0.144249 0.540206 -0.533272
C138  C     C_2   0.814107 0.082273 0.551129 0.526259
H10   H     H_    0.799599 0.087761 0.580097 0.111404
O58   O     O_2   0.856082 0.114485 0.539554 -0.533080
C139  C     C_2   0.918516 0.813500 0.551366 0.525476
H11   H     H_    0.913398 0.798753 0.580352 0.109689
O59   O     O_2   0.886042 0.855456 0.539745 -0.532634
C140  C     C_2   0.187025 0.918636 0.551840 0.525119
H12   H     H_    0.202158 0.913428 0.580824 0.109732
O60   O     O_2   0.144869 0.886250 0.540362 -0.532870
C141  C     C_2   0.081483 0.813500 0.448634 0.525477
H13   H     H_    0.086601 0.798753 0.419648 0.109689
O61   O     O_2   0.113958 0.855456 0.460254 -0.532634
C142  C     C_2   0.812975 0.918635 0.448161 0.525118
H14   H     H_    0.797841 0.913427 0.419176 0.109732
O62   O     O_2   0.855132 0.886251 0.459638 -0.532871
C143  C     C_2   0.917886 0.186418 0.448371 0.525969
H15   H     H_    0.912337 0.201310 0.419401 0.111527
O63   O     O_2   0.885743 0.144249 0.459794 -0.533272
C144  C     C_2   0.185892 0.082273 0.448871 0.526259
H16   H     H_    0.200401 0.087761 0.419903 0.111404
O64   O     O_2   0.143918 0.114485 0.460445 -0.533080
C145  C     C_2   0.597126 0.938391 0.695065 0.544527
H17   H     H_    0.615641 0.895650 0.684048 0.120200
O65   O     O_2   0.618752 0.958723 0.724361 -0.545079
C146  C     C_2   0.086342 0.582652 0.692905 0.549183
H18   H     H_    0.090300 0.630360 0.684100 0.119986
O66   O     O_2   0.119457 0.564086 0.718408 -0.526300
C147  C     C_2   0.415995 0.084851 0.692235 0.549022
H19   H     H_    0.368322 0.088666 0.683131 0.120123
O67   O     O_2   0.434294 0.117917 0.717775 -0.526829
C148  C     C_2   0.939634 0.401746 0.694331 0.545089
H20   H     H_    0.896798 0.383332 0.683146 0.120327
O68   O     O_2   0.960179 0.379895 0.723505 -0.544319
C149  C     C_2   0.584006 0.084850 0.307765 0.549023
H21   H     H_    0.631679 0.088664 0.316869 0.120123
O69   O     O_2   0.565707 0.117917 0.282226 -0.526828
C150  C     C_2   0.060367 0.401746 0.305669 0.545090
H22   H     H_    0.103202 0.383332 0.316854 0.120327
O70   O     O_2   0.039821 0.379895 0.276495 -0.544320
C151  C     C_2   0.402874 0.938391 0.304935 0.544527
H23   H     H_    0.384358 0.895650 0.315952 0.120201
O71   O     O_2   0.381249 0.958723 0.275639 -0.545080
C152  C     C_2   0.913657 0.582652 0.307094 0.549183
H24   H     H_    0.909699 0.630359 0.315900 0.119987
O72   O     O_2   0.880543 0.564085 0.281592 -0.526301
C153  C     C_2   0.097126 0.438391 0.195065 0.544527
H25   H     H_    0.115641 0.395650 0.184048 0.120200
O73   O     O_2   0.118751 0.458723 0.224361 -0.545079
C154  C     C_2   0.586342 0.082653 0.192906 0.549184
H26   H     H_    0.590299 0.130360 0.184100 0.119986
O74   O     O_2   0.619457 0.064086 0.218408 -0.526300
C155  C     C_2   0.915995 0.584850 0.192235 0.549021
H27   H     H_    0.868322 0.588666 0.183131 0.120124
O75   O     O_2   0.934294 0.617917 0.217775 -0.526829
C156  C     C_2   0.439634 0.901746 0.194331 0.545089
H28   H     H_    0.396798 0.883332 0.183146 0.120327
O76   O     O_2   0.460180 0.879896 0.223505 -0.544319
C157  C     C_2   0.084006 0.584850 0.807765 0.549022
H29   H     H_    0.131679 0.588664 0.816869 0.120123
O77   O     O_2   0.065707 0.617917 0.782226 -0.526827
C158  C     C_2   0.560367 0.901746 0.805669 0.545090
H30   H     H_    0.603202 0.883332 0.816854 0.120327
O78   O     O_2   0.539821 0.879895 0.776495 -0.544320
C159  C     C_2   0.902874 0.438391 0.804935 0.544528
H31   H     H_    0.884358 0.395650 0.815952 0.120200
O79   O     O_2   0.881249 0.458723 0.775639 -0.545080
C160  C     C_2   0.413657 0.082652 0.807094 0.549183
H32   H     H_    0.409699 0.130359 0.815900 0.119987
O80   O     O_2   0.380543 0.064085 0.781592 -0.526301
Br1   Br    Br    0.609990 0.924885 0.607699 -0.436521
Br2   Br    Br    0.080158 0.607874 0.606400 -0.433793
Br3   Br    Br    0.391624 0.079476 0.605573 -0.433972
Br4   Br    Br    0.925290 0.389697 0.606871 -0.436800
Br5   Br    Br    0.608377 0.079476 0.394427 -0.433972
Br6   Br    Br    0.074710 0.389697 0.393129 -0.436800
Br7   Br    Br    0.390010 0.924886 0.392300 -0.436522
Br8   Br    Br    0.919842 0.607874 0.393599 -0.433794
Br9   Br    Br    0.109990 0.424886 0.107700 -0.436521
Br10  Br    Br    0.580158 0.107874 0.106400 -0.433793
Br11  Br    Br    0.891624 0.579476 0.105573 -0.433972
Br12  Br    Br    0.425290 0.889696 0.106871 -0.436800
Br13  Br    Br    0.108377 0.579476 0.894427 -0.433972
Br14  Br    Br    0.574710 0.889697 0.893129 -0.436799
Br15  Br    Br    0.890010 0.424886 0.892300 -0.436522
Br16  Br    Br    0.419842 0.107874 0.893599 -0.433794
Br17  Br    Br    0.580996 0.827713 0.065596 -0.421749
Br18  Br    Br    0.173062 0.580360 0.065512 -0.422117
Br19  Br    Br    0.420791 0.172264 0.065764 -0.435219
Br20  Br    Br    0.828506 0.420090 0.065822 -0.435016
Br21  Br    Br    0.579209 0.172264 0.934236 -0.435219
Br22  Br    Br    0.171494 0.420090 0.934178 -0.435017
Br23  Br    Br    0.419004 0.827713 0.934404 -0.421749
Br24  Br    Br    0.826938 0.580360 0.934488 -0.422117
Br25  Br    Br    0.080996 0.327713 0.565596 -0.421749
Br26  Br    Br    0.673062 0.080360 0.565512 -0.422117
Br27  Br    Br    0.920791 0.672264 0.565764 -0.435219
Br28  Br    Br    0.328506 0.920090 0.565822 -0.435016
Br29  Br    Br    0.079209 0.672264 0.434236 -0.435219
Br30  Br    Br    0.671494 0.920089 0.434178 -0.435017
Br31  Br    Br    0.919004 0.327713 0.434404 -0.421749
Br32  Br    Br    0.326938 0.080360 0.434488 -0.422117

loop_
_geom_bond_atom_site_label_1
_geom_bond_atom_site_label_2
_ccdc_geom_bond_type
C104  Br8   S    
O14   Zn8   S    
C151  O71   D    
O45   Zn12  S    
C57   O17   A    
C45   Br21  S    
C32   C144  S    
C18   C130  S    
C160  H32   S    
C2    O6    A    
C3    O3    A    
O22   Zn4   S    
C1    O1    A    
C26   C50   A    
C98   C114  A    
C39   O43   A    
C20   C44   A    
O47   Zn12  S    
C104  C116  A    
C31   C143  S    
O42   Zn11  S    
C9    C121  S    
C13   C125  S    
C15   C127  S    
C106  C118  A    
C32   C56   A    
C134  H6    S    
C82   C98   A    
C144  O64   D    
C91   C155  S    
C61   O27   A    
C142  O62   D    
C142  H14   S    
O48   Zn12  S    
O16   Zn6   S    
C137  O57   D    
C43   C75   A    
C84   C100  A    
C21   C133  S    
C23   C47   A    
O41   Zn11  S    
C112  C120  A    
C89   C125  A    
C35   O35   A    
C97   Br1   S    
C33   O33   A    
C103  Br7   S    
C90   C126  A    
C60   C117  S    
O12   Zn8   S    
C20   C132  S    
C87   C103  A    
C94   C128  A    
C57   O19   A    
O23   Zn3   S    
C101  C115  A    
C156  O76   D    
C25   C69   A    
C5    C77   S    
C27   C71   A    
C7    C79   S    
O3    Zn3   S    
C91   C125  A    
C23   C135  S    
O38   Zn10  S    
C20   C68   A    
C10   C122  S    
C5    O9    A    
C14   C126  S    
C8    O12   A    
C25   C137  S    
C40   O46   A    
C158  H30   S    
C110  Br14  S    
C58   C119  S    
C85   C123  A    
O13   Zn5   S    
C159  O79   D    
O10   Zn6   S    
C5    O15   A    
C131  H3    S    
O19   Zn3   S    
C28   C140  S    
C132  O52   D    
C82   C122  A    
C56   Br32  S    
C150  H22   S    
C29   C71   A    
C85   C149  S    
C48   C76   A    
C63   O31   A    
C88   C124  A    
C4    O4    A    
C30   C54   A    
C149  H21   S    
C138  O58   D    
C18   C42   A    
C54   Br30  S    
C153  H25   S    
O27   Zn7   S    
C6    C78   S    
O9    Zn5   S    
O18   Zn2   S    
C84   C148  S    
C44   C76   A    
C92   C108  A    
C154  H26   S    
C90   C154  S    
C145  H17   S    
C133  O53   D    
C36   O38   A    
C88   C104  A    
C27   C51   A    
C33   C66   S    
C141  H13   S    
C21   C45   A    
C141  O61   D    
O40   Zn10  S    
C24   C48   A    
C100  C114  A    
C39   O47   A    
C52   Br28  S    
C130  O50   D    
C93   C157  S    
C92   C156  S    
C60   O22   A    
C140  O60   D    
O4    Zn4   S    
C57   C120  S    
C59   C118  S    
C136  O56   D    
C86   C124  A    
C63   O29   A    
C86   C102  A    
C7    O13   A    
C148  H20   S    
C33   O37   A    
C134  O54   D    
C34   O34   A    
O34   Zn9   S    
C47   Br23  S    
C155  H27   S    
C18   C66   A    
C100  Br4   S    
C160  O80   D    
O37   Zn10  S    
C56   C80   A    
C22   C134  S    
C23   C65   A    
C152  H24   S    
C62   C115  S    
C87   C123  A    
C87   C151  S    
C146  H18   S    
C157  O77   D    
C81   C145  S    
C64   O30   A    
C51   C79   A    
C41   C73   A    
C31   C69   A    
C12   C13   T    
C89   C105  A    
C135  O55   D    
O6    Zn4   S    
C1    O7    A    
C93   C109  A    
C131  O51   D    
C27   C139  S    
C101  Br5   S    
O28   Zn8   S    
C85   C101  A    
C32   C72   A    
C137  H9    S    
C112  Br16  S    
C105  Br9   S    
C94   C158  S    
C107  Br11  S    
O44   Zn11  S    
C147  H19   S    
C83   C147  S    
C96   C128  A    
C26   C138  S    
C60   O24   A    
O33   Zn9   S    
O2    Zn2   S    
C159  H31   S    
C19   C67   A    
C6    O14   A    
C46   Br22  S    
C88   C152  S    
C4    O8    A    
C59   O21   A    
O20   Zn4   S    
C83   C99   A    
C37   C70   S    
C105  C117  A    
C28   C72   A    
O29   Zn5   S    
C34   O40   A    
C50   C78   A    
C30   C70   A    
C19   C43   A    
C38   O42   A    
C51   Br27  S    
C86   C150  S    
C42   C74   A    
C135  H7    S    
C47   C73   A    
O36   Zn9   S    
C139  H11   S    
C24   C136  S    
C36   C65   S    
O39   Zn10  S    
O1    Zn1   S    
C94   C110  A    
C44   Br20  S    
O15   Zn7   S    
C103  C115  A    
C55   Br31  S    
C64   O32   A    
C61   C116  S    
C143  O63   D    
C90   C106  A    
C22   C46   A    
O25   Zn5   S    
C111  Br15  S    
C26   C70   A    
C144  H16   S    
C40   O44   A    
C109  C119  A    
C150  O70   D    
C11   C123  S    
C92   C126  A    
C34   C67   S    
C99   C113  A    
C99   Br3   S    
C45   C75   A    
C1    C73   S    
C37   O41   A    
C155  O75   D    
O5    Zn1   S    
C43   Br19  S    
C2    O2    A    
C62   O28   A    
C129  H1    S    
C25   C49   A    
C24   C68   A    
C95   C127  A    
C154  O74   D    
C109  Br13  S    
C81   C121  A    
C36   O36   A    
C156  H28   S    
C31   C55   A    
C52   C80   A    
O30   Zn8   S    
C107  C117  A    
C54   C78   A    
C19   C131  S    
C133  H5    S    
C29   C141  S    
C108  Br12  S    
C96   C112  A    
C29   C53   A    
C111  C119  A    
C53   C79   A    
C9    C16   T    
C10   C15   T    
C55   C77   A    
C11   C14   T    
C58   O20   A    
C84   C122  A    
O8    Zn2   S    
C129  O49   D    
C22   C66   A    
O46   Zn12  S    
C63   C114  S    
C38   O48   A    
C49   C77   A    
C147  O67   D    
C82   C146  S    
C35   O39   A    
C39   C72   S    
C132  H4    S    
C2    C74   S    
C102  Br6   S    
C21   C67   A    
C49   Br25  S    
C106  Br10  S    
O32   Zn6   S    
C148  O68   D    
C149  O69   D    
C95   C159  S    
C40   C69   S    
C108  C118  A    
C48   Br24  S    
C138  H10   S    
C110  C120  A    
C153  O73   D    
C41   Br17  S    
C17   C129  S    
C96   C160  S    
C62   O26   A    
C3    O5    A    
C6    O10   A    
C152  O72   D    
C93   C127  A    
C139  O59   D    
C12   C124  S    
C146  O66   D    
O21   Zn1   S    
C8    O16   A    
C83   C121  A    
C16   C128  S    
C50   Br26  S    
C158  O78   D    
C145  O65   D    
C97   C113  A    
C151  H23   S    
C46   C74   A    
O11   Zn7   S    
C3    C75   S    
C42   Br18  S    
C38   C71   S    
C64   C113  S    
C61   O25   A    
C58   O18   A    
C59   O23   A    
C17   C65   A    
O43   Zn11  S    
O35   Zn9   S    
C130  H2    S    
O7    Zn3   S    
C95   C111  A    
C7    O11   A    
C28   C52   A    
C81   C97   A    
C35   C68   S    
O26   Zn6   S    
C30   C142  S    
O24   Zn2   S    
C140  H12   S    
C17   C41   A    
C4    C76   S    
C102  C116  A    
C37   O45   A    
C89   C153  S    
C136  H8    S    
O17   Zn1   S    
C143  H15   S    
C8    C80   S    
C53   Br29  S    
O31   Zn7   S    
C98   Br2   S    
C91   C107  A    
C157  H29   S    
