data_mof_unit_61184.cif
_audit_creation_date              2012-12-10T17:00:50-0500
_audit_creation_method            fapswitch 2.2
_symmetry_space_group_name_H-M    P1
_symmetry_Int_Tables_number       1
_space_group_crystal_system       triclinic
_cell_length_a                    13.126128
_cell_length_b                    13.123488
_cell_length_c                    19.493569
_cell_angle_alpha                 100.220021
_cell_angle_beta                  80.266909
_cell_angle_gamma                 91.033968
_cell_volume                      3256.87982417

loop_
_atom_site_label
_atom_site_type_symbol
_atom_type_description
_atom_site_fract_x
_atom_site_fract_y
_atom_site_fract_z
_atom_type_partial_charge
C1    C     C_R   0.223056 0.536028 0.526949 0.518473
C2    C     C_2   0.448161 0.514097 0.987971 0.013326
C3    C     C_2   0.530173 0.483096 0.013084 0.009575
C4    C     C_R   0.776105 0.463418 0.472933 0.515014
C5    C     C_R   0.516096 0.483235 0.233226 0.036190
C6    C     C_2   0.887459 0.450047 0.461368 0.125671
C7    C     C_2   0.940900 0.494495 0.510983 -0.136274
C8    C     C_2   0.110223 0.546749 0.540320 -0.109209
C9    C     C_2   0.053927 0.487426 0.498092 -0.136993
C10   C     C_2   0.544089 0.887951 0.529431 -0.066081
C11   C     C_2   0.510130 0.939858 0.484592 0.083252
C12   C     C_R   0.453051 0.512734 0.912027 0.019099
C13   C     C_2   0.459360 0.110237 0.465979 -0.094716
C14   C     C_2   0.513595 0.053202 0.497895 -0.142319
C15   C     C_R   0.467280 0.223255 0.478757 0.507722
C16   C     C_R   0.533683 0.776367 0.521138 0.528266
C17   C     C_R   0.510630 0.486857 0.309398 0.511528
C18   C     C_R   0.488241 0.512568 0.690550 0.511866
C19   C     C_R   0.475904 0.512449 0.766648 0.037426
C20   C     C_R   0.490455 0.420337 0.791487 0.108638
C21   C     C_R   0.477821 0.420570 0.863751 -0.093873
C22   C     C_R   0.435252 0.603853 0.887639 -0.117926
C23   C     C_R   0.446337 0.603684 0.815229 -0.151943
C24   C     C_R   0.595662 0.540442 0.125193 -0.107143
C25   C     C_R   0.590942 0.541444 0.197069 -0.118475
C26   C     C_R   0.447031 0.422706 0.196058 -0.121123
C27   C     C_R   0.452025 0.421655 0.123957 -0.106649
C28   C     C_R   0.525405 0.481814 0.088604 0.046573
Cl1   Cl    Cl    0.651278 0.452056 0.957966 -0.090329
Cl2   Cl    Cl    0.334072 0.564673 0.045014 -0.088069
F1    F     F_    0.515034 0.329698 0.746181 -0.164900
F2    F     F_    0.936025 0.400801 0.397059 -0.179651
F3    F     F_    0.468790 0.888592 0.428768 -0.168168
H1    H     H_    0.398537 0.374437 0.095732 0.122616
H2    H     H_    0.415239 0.675421 0.924513 0.131666
H3    H     H_    0.653048 0.586757 0.098343 0.125823
H4    H     H_    0.433726 0.675153 0.797180 0.138453
H5    H     H_    0.488947 0.349073 0.882230 0.127539
H6    H     H_    0.091886 0.433065 0.452612 0.184565
H7    H     H_    0.900842 0.538752 0.560447 0.109929
H8    H     H_    0.072982 0.602343 0.585318 0.113340
H9    H     H_    0.560729 0.090686 0.535738 0.148608
H10   H     H_    0.410229 0.073543 0.429321 0.135865
H11   H     H_    0.570684 0.928878 0.576578 0.067261
H12   H     H_    0.645467 0.588498 0.224366 0.145077
H13   H     H_    0.389197 0.376578 0.222631 0.139709
O1    O     O_3   0.500000 0.500000 0.500000 -0.448210
O2    O     O_R   0.441420 0.437150 0.344000 -0.544030
O3    O     O_R   0.438960 0.578560 0.667440 -0.553108
O4    O     O_R   0.575450 0.541060 0.341470 -0.541586
O5    O     O_R   0.544160 0.443230 0.647100 -0.517132
O6    O     O_R   0.530110 0.266880 0.518530 -0.533712
O7    O     O_R   0.465470 0.738830 0.563940 -0.537996
O8    O     O_R   0.266890 0.467300 0.476120 -0.538784
O9    O     O_R   0.737530 0.526990 0.441410 -0.536530
O10   O     O_R   0.276880 0.592620 0.567490 -0.532364
O11   O     O_R   0.718700 0.413090 0.514970 -0.542187
O12   O     O_R   0.414920 0.276880 0.447500 -0.537543
O13   O     O_R   0.589510 0.717410 0.470040 -0.523150
Zn1   Zn    Zn3+2 0.571990 0.407410 0.544380 0.957346
Zn2   Zn    Zn3+2 0.407420 0.421690 0.442900 0.950521
Zn3   Zn    Zn3+2 0.598910 0.570150 0.439280 0.959586
Zn4   Zn    Zn3+2 0.421690 0.600750 0.573440 0.949650

loop_
_geom_bond_atom_site_label_1
_geom_bond_atom_site_label_2
_ccdc_geom_bond_type
C17   O4    A    
C4    O11   A    
C6    F2    S    
C7    H7    S    
O1    Zn2   S    
C6    C7    D    
O3    Zn4   S    
O8    Zn2   S    
C25   H12   S    
C1    C8    S    
C19   C23   A    
C19   C20   A    
C17   O2    A    
C13   H10   S    
C2    Cl2   S    
C2    C12   S    
O12   Zn2   S    
C2    C3    D    
C26   C27   A    
O10   Zn4   S    
C8    H8    S    
C4    O9    A    
C10   C16   S    
C15   O6    A    
C24   C25   A    
C22   H2    S    
O7    Zn4   S    
C3    Cl1   S    
O2    Zn2   S    
C24   H3    S    
O1    Zn3   S    
C1    O8    A    
C5    C25   A    
C3    C28   S    
C11   C14   S    
C1    O10   A    
C18   O5    A    
C13   C15   S    
C27   H1    S    
O1    Zn4   S    
O4    Zn3   S    
C15   O12   A    
C5    C17   S    
C10   C11   D    
C26   H13   S    
C10   H11   S    
C5    C26   A    
O9    Zn3   S    
C12   C22   A    
C9    H6    S    
C20   C21   A    
C4    C6    S    
C18   C19   S    
C11   F3    S    
C27   C28   A    
C7    C9    S    
C16   O7    A    
O11   Zn1   S    
C23   H4    S    
O5    Zn1   S    
O6    Zn1   S    
O1    Zn1   S    
C13   C14   D    
C14   H9    S    
C12   C21   A    
C16   O13   A    
C22   C23   A    
C21   H5    S    
C24   C28   A    
C18   O3    A    
C8    C9    D    
O13   Zn3   S    
C20   F1    S    
