data_mof_unit_48338.cif
_audit_creation_date              2013-03-05T15:53:28-0500
_audit_creation_method            fapswitch 2.2
_symmetry_space_group_name_H-M    P1
_symmetry_Int_Tables_number       1
_space_group_crystal_system       triclinic
_cell_length_a                    24.777139
_cell_length_b                    17.386437
_cell_length_c                    15.607627
_cell_angle_alpha                 89.864731
_cell_angle_beta                  129.340422
_cell_angle_gamma                 89.746339
_cell_volume                      5199.78045481

loop_
_atom_site_label
_atom_site_type_symbol
_atom_site_description
_atom_site_fract_x
_atom_site_fract_y
_atom_site_fract_z
_atom_type_partial_charge
C1    C     C_R   0.835437 0.886386 0.204439 -0.083332
C2    C     C_R   0.154749 0.864851 0.769827 -0.098032
C3    C     C_R   0.333886 0.392280 0.199014 -0.090998
C4    C     C_R   0.654699 0.364589 0.768174 -0.092876
H1    H     H_    0.783713 0.884064 0.179694 0.125839
H2    H     H_    0.204349 0.853292 0.789573 0.149090
H3    H     H_    0.281360 0.393960 0.171123 0.115488
H4    H     H_    0.703015 0.352338 0.783799 0.151303
N1    N     N_R   0.888400 0.921830 0.294620 -0.048192
N2    N     N_R   0.111600 0.921830 0.705380 -0.048380
N3    N     N_R   0.388400 0.421830 0.294620 -0.046058
N4    N     N_R   0.611600 0.421830 0.705380 -0.046632
C5    C     C_R   0.104103 0.879691 0.405336 -0.236581
C6    C     C_R   0.892048 0.886993 0.594504 -0.105745
C7    C     C_R   0.609434 0.393238 0.404326 -0.075308
C8    C     C_R   0.408336 0.360739 0.592822 -0.162141
H5    H     H_    0.081784 0.877941 0.319963 0.147171
H6    H     H_    0.912400 0.889723 0.679196 0.140847
H7    H     H_    0.587425 0.399450 0.319102 0.143720
H8    H     H_    0.426104 0.353414 0.675477 0.156529
N5    N     N_R   0.079940 0.922160 0.443410 -0.051617
N6    N     N_R   0.920060 0.922160 0.556590 -0.059142
N7    N     N_R   0.579940 0.422160 0.443410 -0.062709
N8    N     N_R   0.420060 0.422160 0.556590 -0.058269
C9    C     C_R   0.180656 0.879848 0.590796 -0.141887
C10   C     C_R   0.816705 0.886020 0.409316 -0.138633
C11   C     C_R   0.685725 0.392086 0.588468 -0.149210
C12   C     C_R   0.338764 0.357632 0.407889 -0.159512
H9    H     H_    0.229256 0.877024 0.674723 0.130701
H10   H     H_    0.768678 0.884928 0.324660 0.116196
H11   H     H_    0.734536 0.393698 0.672212 0.134405
H12   H     H_    0.296999 0.343479 0.322347 0.132651
N9    N     N_R   0.125650 0.922400 0.556620 -0.038768
N10   N     N_R   0.874350 0.922400 0.443380 -0.043839
N11   N     N_R   0.625650 0.422400 0.556620 -0.045492
N12   N     N_R   0.374350 0.422400 0.443380 -0.047018
C13   C     C_R   0.064408 0.864797 0.771749 -0.115824
C14   C     C_R   0.925431 0.887274 0.202255 -0.181576
C15   C     C_R   0.567179 0.366890 0.776470 -0.088949
C16   C     C_R   0.424397 0.391771 0.199055 -0.177670
H13   H     H_    0.030854 0.851164 0.791440 0.144966
H14   H     H_    0.954539 0.886420 0.172192 0.148371
H15   H     H_    0.537944 0.356547 0.804823 0.162973
H16   H     H_    0.453919 0.392690 0.169716 0.115502
N13   N     N_R   0.054230 0.922730 0.705400 -0.049025
N14   N     N_R   0.945770 0.922730 0.294600 -0.051753
N15   N     N_R   0.554230 0.422730 0.705400 -0.054053
N16   N     N_R   0.445770 0.422730 0.294600 -0.044209
C17   C     C_R   0.856780 0.864687 0.144488 0.112685
C18   C     C_R   0.125801 0.826617 0.809844 0.099926
C19   C     C_R   0.354649 0.372894 0.137604 0.139551
C20   C     C_R   0.627153 0.327395 0.811033 0.090291
C21   C     C_R   0.166709 0.851556 0.496147 0.105400
C22   C     C_R   0.827452 0.862912 0.503925 0.155072
C23   C     C_R   0.676091 0.373006 0.493131 0.118206
C24   C     C_R   0.358803 0.318367 0.500824 0.188794
C25   C     C_R   0.835973 0.140848 0.405103 -0.159753
C26   C     C_R   0.185517 0.109594 0.591774 -0.201408
C27   C     C_R   0.337044 0.640934 0.403940 -0.154688
C28   C     C_R   0.660247 0.642871 0.591446 -0.161890
H17   H     H_    0.798583 0.155832 0.319617 0.189842
H18   H     H_    0.232722 0.111996 0.676824 0.184266
H19   H     H_    0.297607 0.654210 0.318209 0.186495
H20   H     H_    0.697657 0.659932 0.675477 0.169287
N17   N     N_R   0.873790 0.077030 0.443380 -0.081896
N18   N     N_R   0.126210 0.077030 0.556620 -0.073453
N19   N     N_R   0.373790 0.577030 0.443380 -0.079402
N20   N     N_R   0.626210 0.577030 0.556620 -0.068187
C29   C     C_R   0.927732 0.118960 0.208294 -0.065789
C30   C     C_R   0.067683 0.130300 0.778061 -0.073645
C31   C     C_R   0.425169 0.616268 0.204314 -0.051161
C32   C     C_R   0.571454 0.621196 0.789164 -0.077306
H21   H     H_    0.957948 0.124227 0.181111 0.156297
H22   H     H_    0.040611 0.136656 0.810451 0.203391
H23   H     H_    0.451803 0.617994 0.170906 0.145151
H24   H     H_    0.542926 0.625750 0.819218 0.188609
N21   N     N_R   0.945200 0.076700 0.294600 -0.052616
N22   N     N_R   0.054800 0.076700 0.705400 -0.060443
N23   N     N_R   0.445200 0.576700 0.294600 -0.057327
N24   N     N_R   0.554800 0.576700 0.705400 -0.058623
C33   C     C_R   0.154170 0.134226 0.769193 -0.113150
C34   C     C_R   0.836279 0.115566 0.204394 -0.121245
C35   C     C_R   0.661308 0.620297 0.789783 -0.138746
C36   C     C_R   0.335365 0.614182 0.203591 -0.125985
H25   H     H_    0.202758 0.146018 0.785851 0.115791
H26   H     H_    0.782874 0.115210 0.172839 0.142250
H27   H     H_    0.714464 0.623213 0.820550 0.160536
H28   H     H_    0.282099 0.613084 0.172667 0.134577
N25   N     N_R   0.111030 0.077600 0.705380 -0.035066
N26   N     N_R   0.888970 0.077600 0.294620 -0.042000
N27   N     N_R   0.611030 0.577600 0.705380 -0.036972
N28   N     N_R   0.388970 0.577600 0.294620 -0.041326
C37   C     C_R   0.903391 0.138988 0.588187 0.531937
C38   C     C_R   0.111630 0.108980 0.407960 0.577605
C39   C     C_R   0.404202 0.640019 0.587373 0.520394
C40   C     C_R   0.592840 0.639847 0.408206 0.549985
N29   N     N_R   0.919490 0.077280 0.556590 -0.123403
N30   N     N_R   0.080510 0.077280 0.443410 -0.107747
N31   N     N_R   0.419490 0.577280 0.556590 -0.124449
N32   N     N_R   0.580510 0.577280 0.443410 -0.124224
Ni1   Ni    Ni4+2 0.882160 0.999430 0.370180 0.214649
Ni2   Ni    Ni4+2 0.117840 0.999430 0.629820 0.237997
Ni3   Ni    Ni4+2 0.382160 0.499430 0.370180 0.215788
Ni4   Ni    Ni4+2 0.617840 0.499430 0.629820 0.254497
Ni5   Ni    Ni4+2 0.012460 0.999430 0.370180 0.207922
Ni6   Ni    Ni4+2 0.987540 0.999430 0.629820 0.211723
Ni7   Ni    Ni4+2 0.512460 0.499430 0.370180 0.201151
Ni8   Ni    Ni4+2 0.487540 0.499430 0.629820 0.208241
C41   C     C_R   0.853552 0.182133 0.494092 -0.055392
C42   C     C_R   0.176335 0.131289 0.498784 -0.015728
C43   C     C_R   0.354046 0.681642 0.491916 -0.053554
C44   C     C_R   0.641334 0.683640 0.500780 -0.022641
C45   C     C_R   0.859827 0.144069 0.150788 -0.008604
C46   C     C_R   0.126615 0.170811 0.812745 -0.057013
C47   C     C_R   0.357528 0.641535 0.147890 -0.017807
C48   C     C_R   0.635393 0.653990 0.837022 -0.038670
C49   C     C_R   0.800160 0.791634 0.605893 -0.047454
C50   C     C_R   0.190721 0.764235 0.403003 -0.206634
C51   C     C_R   0.340076 0.212475 0.582235 -0.023320
C52   C     C_R   0.707283 0.317062 0.384264 -0.027871
C53   C     C_R   0.777258 0.831844 0.510982 0.030781
C54   C     C_R   0.214328 0.814186 0.489699 0.040705
C55   C     C_R   0.314133 0.266937 0.498744 0.046398
C56   C     C_R   0.727546 0.347230 0.483831 0.017480
C57   C     C_R   0.705361 0.840945 0.423646 -0.420823
C58   C     C_R   0.285856 0.831428 0.567414 -0.292955
C59   C     C_R   0.242466 0.283600 0.424185 -0.410423
C60   C     C_R   0.799051 0.346583 0.576331 -0.399895
H29   H     H_    0.687878 0.878841 0.355635 0.145217
H30   H     H_    0.304954 0.872889 0.632421 0.208551
H31   H     H_    0.222954 0.332754 0.369501 0.153389
H32   H     H_    0.818455 0.376549 0.651564 0.177460
C61   C     C_R   0.195809 0.239601 0.423520 0.615201
C62   C     C_R   0.845532 0.301511 0.574875 0.607692
C63   C     C_R   0.656756 0.798456 0.422938 0.622470
C64   C     C_R   0.333500 0.795212 0.561404 0.583100
C65   C     C_R   0.222495 0.175761 0.495813 -0.057642
C66   C     C_R   0.817816 0.251590 0.484494 -0.053627
C67   C     C_R   0.683084 0.745441 0.509923 -0.043951
C68   C     C_R   0.308626 0.738599 0.479853 -0.050170
C69   C     C_R   0.294252 0.163664 0.573807 -0.232763
C70   C     C_R   0.750815 0.267847 0.386058 -0.189224
C71   C     C_R   0.754275 0.745925 0.601986 -0.191750
C72   C     C_R   0.236791 0.729647 0.397143 -0.178006
C73   C     C_3   0.809941 0.684962 0.674826 0.564088
C74   C     C_3   0.181603 0.684953 0.294036 0.669971
C75   C     C_3   0.345204 0.096635 0.623506 0.596228
C76   C     C_3   0.691071 0.226994 0.281971 0.596146
C77   C     C_3   0.863574 0.741393 0.688618 0.492805
C78   C     C_3   0.126969 0.726387 0.298188 0.541452
C79   C     C_3   0.398573 0.153845 0.637118 0.518512
C80   C     C_3   0.641498 0.286243 0.276474 0.480431
H33   H     H_    0.729537 0.115546 0.984159 0.155036
H34   H     H_    0.211845 0.271716 0.828768 0.146680
H35   H     H_    0.226923 0.612532 0.981765 0.139399
H36   H     H_    0.710162 0.759156 0.837615 0.178908
H37   H     H_    0.198736 0.717497 0.806743 0.156290
H38   H     H_    0.718262 0.865048 0.000339 0.148304
H39   H     H_    0.702046 0.219899 0.809889 0.157726
H40   H     H_    0.215593 0.375694 0.991992 0.151898
C81   C     C_2   0.158124 0.759641 0.882893 -0.181216
C82   C     C_2   0.812405 0.829859 0.035334 -0.128121
C83   C     C_2   0.659105 0.260179 0.883339 -0.105788
C84   C     C_2   0.309423 0.342994 0.024829 -0.205988
C85   C     C_2   0.196582 0.711609 0.873835 -0.054348
C86   C     C_2   0.743378 0.830375 0.976674 -0.048159
C87   C     C_2   0.699224 0.213668 0.876211 -0.086448
C88   C     C_2   0.240256 0.343197 0.965774 -0.031961
C89   C     C_2   0.817429 0.184764 0.044667 0.353354
C90   C     C_2   0.155869 0.238906 0.883940 0.373501
C91   C     C_2   0.314342 0.681590 0.041196 0.360237
C92   C     C_2   0.666692 0.719945 0.911195 0.366046
C93   C     C_2   0.749993 0.164095 0.968971 -0.291753
C94   C     C_2   0.199664 0.283916 0.883063 -0.326794
C95   C     C_2   0.247038 0.661054 0.965976 -0.314819
C96   C     C_2   0.703699 0.768744 0.899424 -0.319400
H41   H     H_    0.155445 0.753151 0.949400 0.207599
H42   H     H_    0.836731 0.794813 0.010369 0.211083
H43   H     H_    0.654963 0.252634 0.948001 0.231431
H44   H     H_    0.333323 0.311152 0.996611 0.147492
O1    O     O_3   0.126806 0.263567 0.365001 -0.654268
C97   C     C_3   0.092480 0.277656 0.251273 0.269884
H45   H     H_    0.043502 0.244124 0.202336 0.183249
H46   H     H_    0.122379 0.258416 0.223758 0.098202
C98   C     C_3   0.072125 0.362715 0.222993 -0.386698
H47   H     H_    0.039370 0.379502 0.245816 0.250221
H48   H     H_    0.119386 0.399000 0.270595 0.196763
C99   C     C_3   0.031480 0.378249 0.099649 -0.793357
H49   H     H_    0.063932 0.363460 0.075609 0.271112
H50   H     H_    0.017150 0.440178 0.081606 0.278478
H51   H     H_    0.982909 0.343780 0.049488 0.288359
O2    O     O_3   0.915141 0.298594 0.667858 -0.615348
C100  C     C_3   0.951826 0.357728 0.662214 0.228525
H52   H     H_    0.996060 0.374448 0.748572 0.169387
H53   H     H_    0.920076 0.410988 0.619956 0.051481
C101  C     C_3   0.981183 0.328545 0.606381 -0.313216
H54   H     H_    0.010223 0.273872 0.646354 0.222954
H55   H     H_    0.937625 0.317190 0.517457 0.206058
C102  C     C_3   0.030168 0.387068 0.615189 -0.974628
H56   H     H_    0.001779 0.441803 0.573579 0.266327
H57   H     H_    0.050630 0.364086 0.574319 0.283765
H58   H     H_    0.074965 0.398436 0.703508 0.267614
O3    O     O_3   0.584757 0.808769 0.343531 -0.640423
C103  C     C_3   0.561535 0.819452 0.234699 0.317051
H59   H     H_    0.515527 0.782246 0.179402 0.192309
H60   H     H_    0.599686 0.800529 0.223335 0.074788
C104  C     C_3   0.537813 0.902876 0.196707 -0.431225
H61   H     H_    0.496179 0.917549 0.201732 0.254451
H62   H     H_    0.581910 0.942665 0.251532 0.199565
C105  C     C_3   0.509593 0.914836 0.077773 -0.763795
H63   H     H_    0.550790 0.901793 0.071217 0.261505
H64   H     H_    0.492672 0.975636 0.052513 0.277364
H65   H     H_    0.464051 0.877024 0.020551 0.286326
O4    O     O_3   0.403991 0.809573 0.642701 -0.607220
C106  C     C_3   0.431299 0.844318 0.595355 0.201465
H66   H     H_    0.427229 0.907759 0.597956 0.119946
H67   H     H_    0.403645 0.827676 0.507477 0.084767
C107  C     C_3   0.508236 0.821900 0.663836 -0.242082
H68   H     H_    0.539007 0.850335 0.745978 0.217685
H69   H     H_    0.513948 0.758762 0.677215 0.223656
C108  C     C_3   0.537074 0.844425 0.605304 -1.015597
H70   H     H_    0.512122 0.809642 0.529170 0.286267
H71   H     H_    0.594253 0.833655 0.661096 0.282344
H72   H     H_    0.526762 0.906197 0.582080 0.267441
N33   N     N_R   0.823037 0.672674 0.779869 0.232196
O5    O     O_R   0.845709 0.606198 0.829761 -0.351205
O6    O     O_R   0.813606 0.727907 0.825512 -0.419773
N34   N     N_R   0.175077 0.708849 0.197308 0.234947
O7    O     O_R   0.129164 0.675783 0.102376 -0.338504
O8    O     O_R   0.213378 0.763475 0.203891 -0.418038
N35   N     N_R   0.363794 0.071769 0.729471 0.241944
O9    O     O_R   0.377234 0.999624 0.758642 -0.363478
O10   O     O_R   0.368045 0.121120 0.796184 -0.397124
N36   N     N_R   0.692982 0.237213 0.190442 0.231309
O11   O     O_R   0.653534 0.194791 0.102527 -0.350480
O12   O     O_R   0.734046 0.287248 0.195917 -0.404225
O13   O     O_3   0.800573 0.612579 0.623026 -0.658927
C109  C     C_3   0.775683 0.615508 0.512194 0.133204
H73   H     H_    0.802213 0.658657 0.498690 0.159002
H74   H     H_    0.719993 0.630338 0.454306 0.104372
C110  C     C_3   0.784575 0.535727 0.481222 -0.318470
H75   H     H_    0.834932 0.509631 0.552129 0.205908
H76   H     H_    0.742491 0.498032 0.462679 0.212633
C111  C     C_3   0.782310 0.538399 0.381304 -0.883969
H77   H     H_    0.733531 0.566590 0.309870 0.265367
H78   H     H_    0.784472 0.478905 0.357795 0.293016
H79   H     H_    0.827730 0.570771 0.401916 0.255383
O14   O     O_3   0.189389 0.602911 0.306279 -0.666743
C112  C     C_3   0.189378 0.569135 0.389034 0.251558
H80   H     H_    0.137054 0.543906 0.347802 0.175009
H81   H     H_    0.200973 0.610106 0.452935 0.085469
C113  C     C_3   0.242854 0.503806 0.446384 -0.352761
H82   H     H_    0.236628 0.466386 0.383213 0.221160
H83   H     H_    0.295903 0.528138 0.498214 0.202719
C114  C     C_3   0.234873 0.455890 0.519882 -1.009543
H84   H     H_    0.234762 0.493267 0.577224 0.261009
H85   H     H_    0.278979 0.414408 0.569622 0.287172
H86   H     H_    0.185229 0.423465 0.468463 0.286164
O15   O     O_3   0.330432 0.031417 0.556031 -0.668601
C115  C     C_3   0.286815 0.045234 0.440474 0.155507
H87   H     H_    0.299243 0.099738 0.419276 0.145147
H88   H     H_    0.231808 0.047242 0.406282 0.116509
C116  C     C_3   0.296127 0.978425 0.387023 -0.293669
H89   H     H_    0.351251 0.975638 0.421111 0.181947
H90   H     H_    0.283596 0.923414 0.407089 0.219173
C117  C     C_3   0.249834 0.986689 0.261551 -0.869238
H91   H     H_    0.194801 0.976298 0.223818 0.269091
H92   H     H_    0.265310 0.942954 0.228838 0.289900
H93   H     H_    0.255088 0.044780 0.237800 0.256385
O16   O     O_3   0.684351 0.146958 0.295316 -0.669197
C118  C     C_3   0.678681 0.127461 0.377425 0.220803
H94   H     H_    0.623020 0.118992 0.336315 0.155206
H95   H     H_    0.700352 0.171029 0.443451 0.098927
C119  C     C_3   0.714911 0.050401 0.430030 -0.323710
H96   H     H_    0.700211 0.009444 0.364090 0.219530
H97   H     H_    0.772102 0.057871 0.484452 0.192198
C120  C     C_3   0.694591 0.017174 0.496894 -1.011429
H98   H     H_    0.695377 0.062112 0.548038 0.261579
H99   H     H_    0.731792 0.970858 0.552859 0.291132
H100  H     H_    0.641186 0.993009 0.440313 0.279261
N37   N     N_R   0.910488 0.778028 0.798506 0.239552
O17   O     O_R   0.963571 0.740075 0.882878 -0.313117
O18   O     O_R   0.896693 0.846138 0.815167 -0.397998
N38   N     N_R   0.081451 0.779725 0.204307 0.219281
O19   O     O_R   0.017551 0.760388 0.122551 -0.297097
O20   O     O_R   0.106789 0.841513 0.194704 -0.432317
N39   N     N_R   0.457590 0.173634 0.753206 0.228110
O21   O     O_R   0.501506 0.120587 0.822142 -0.371462
O22   O     O_R   0.460371 0.240484 0.792999 -0.395682
N40   N     N_R   0.610781 0.344085 0.186569 0.215856
O23   O     O_R   0.570287 0.323140 0.083215 -0.364953
O24   O     O_R   0.630800 0.415346 0.209577 -0.463123
O25   O     O_3   0.899991 0.718218 0.650091 -0.706374
C121  C     C_3   0.938069 0.648563 0.700236 0.233900
H101  H     H_    0.916625 0.605294 0.634195 0.121534
H102  H     H_    0.935358 0.624181 0.763523 0.164113
C122  C     C_3   0.014251 0.659240 0.752738 -0.265849
H103  H     H_    0.017780 0.684822 0.691087 0.205696
H104  H     H_    0.038626 0.698737 0.823926 0.242111
C123  C     C_3   0.053058 0.582105 0.793107 -0.991216
H105  H     H_    0.053909 0.557985 0.859933 0.292559
H106  H     H_    0.107432 0.589886 0.825886 0.275349
H107  H     H_    0.027563 0.540517 0.723787 0.254010
O26   O     O_3   0.088441 0.673300 0.309815 -0.686772
C124  C     C_3   0.056544 0.707499 0.349595 0.179978
H108  H     H_    0.025104 0.758703 0.299263 0.141396
H109  H     H_    0.096836 0.722260 0.438289 0.106857
C125  C     C_3   0.007162 0.649663 0.341122 -0.252056
H110  H     H_    0.966715 0.632723 0.253158 0.238009
H111  H     H_    0.037057 0.597317 0.390345 0.195204
C126  C     C_3   0.971420 0.683674 0.384086 -0.960764
H112  H     H_    0.010865 0.700160 0.472446 0.258318
H113  H     H_    0.936110 0.640315 0.377260 0.275907
H114  H     H_    0.940015 0.735204 0.334484 0.281310
O27   O     O_3   0.418040 0.141990 0.569769 -0.701192
C127  C     C_3   0.468032 0.082584 0.608943 0.239829
H115  H     H_    0.451529 0.047956 0.536409 0.108658
H116  H     H_    0.471731 0.041939 0.667704 0.139796
C128  C     C_3   0.539133 0.117572 0.659334 -0.270662
H117  H     H_    0.533383 0.158606 0.599214 0.207436
H118  H     H_    0.558695 0.149956 0.734980 0.239192
C129  C     C_3   0.592628 0.055924 0.688945 -1.004736
H119  H     H_    0.597367 0.012194 0.745455 0.283965
H120  H     H_    0.644367 0.082683 0.730943 0.274584
H121  H     H_    0.577084 0.027731 0.612581 0.267770
O28   O     O_3   0.593729 0.257178 0.290261 -0.724397
C130  C     C_3   0.532053 0.228843 0.190066 0.221057
H122  H     H_    0.544666 0.186516 0.151467 0.174310
H123  H     H_    0.500403 0.276938 0.131336 0.151820
C131  C     C_3   0.486823 0.190383 0.213097 -0.377324
H124  H     H_    0.517804 0.148070 0.281898 0.209694
H125  H     H_    0.467262 0.234736 0.238723 0.223400
C132  C     C_3   0.424864 0.149111 0.110687 -0.876103
H126  H     H_    0.393351 0.189526 0.039387 0.266713
H127  H     H_    0.391163 0.125326 0.128124 0.267436
H128  H     H_    0.443472 0.100968 0.088466 0.278367
N41   N     N_R   0.847230 0.250157 0.030818 0.248258
O29   O     O_R   0.903178 0.282249 0.117348 -0.406647
O30   O     O_R   0.821872 0.275450 0.933242 -0.457389
N42   N     N_R   0.140365 0.253867 0.957041 0.228236
O31   O     O_R   0.075983 0.261002 0.917568 -0.417085
O32   O     O_R   0.190255 0.254815 0.063797 -0.436621
N43   N     N_R   0.342527 0.748187 0.026948 0.242245
O33   O     O_R   0.390220 0.788783 0.112655 -0.409136
O34   O     O_R   0.323427 0.766814 0.930444 -0.464080
N44   N     N_R   0.658028 0.731198 0.993281 0.237396
O35   O     O_R   0.596445 0.727240 0.965945 -0.428407
O36   O     O_R   0.712171 0.740615 0.096849 -0.422702
O37   O     O_3   0.922578 0.149798 0.691699 -0.623294
C133  C     C_3   0.896104 0.090594 0.717778 0.247218
H129  H     H_    0.938447 0.070210 0.803060 0.119126
H130  H     H_    0.878311 0.038529 0.664758 0.028785
C134  C     C_3   0.835660 0.121918 0.710927 -0.398441
H131  H     H_    0.795118 0.145493 0.626721 0.200570
H132  H     H_    0.812835 0.074263 0.726034 0.188997
C135  C     C_3   0.857547 0.185843 0.793763 -0.681305
H133  H     H_    0.890076 0.162258 0.879081 0.241638
H134  H     H_    0.809943 0.212290 0.773965 0.245238
H135  H     H_    0.886856 0.231328 0.789125 0.305832
O38   O     O_3   0.086433 0.111893 0.299812 -0.677979
C136  C     C_3   0.077327 0.036986 0.258743 0.135803
H136  H     H_    0.030566 0.009837 0.240501 0.110271
H137  H     H_    0.123882 0.000286 0.318700 0.080800
C137  C     C_3   0.068854 0.040986 0.153054 -0.266974
H138  H     H_    0.113129 0.073506 0.169693 0.204245
H139  H     H_    0.069542 0.981905 0.127078 0.225314
C138  C     C_3   0.000954 0.079983 0.058063 -0.841159
H140  H     H_    0.955401 0.047592 0.036936 0.245257
H141  H     H_    0.998689 0.081524 0.985042 0.249024
H142  H     H_    0.998825 0.140094 0.079257 0.264101
O39   O     O_3   0.425305 0.654605 0.691652 -0.629739
C139  C     C_3   0.406877 0.593644 0.728803 0.226611
H143  H     H_    0.449931 0.584500 0.818636 0.125497
H144  H     H_    0.399795 0.537155 0.689296 0.039446
C140  C     C_3   0.340595 0.614799 0.711607 -0.418134
H145  H     H_    0.298727 0.629043 0.623305 0.199146
H146  H     H_    0.324076 0.564738 0.734142 0.176466
C141  C     C_3   0.350718 0.683517 0.780919 -0.671383
H147  H     H_    0.385051 0.667349 0.869790 0.247584
H148  H     H_    0.299227 0.701795 0.754916 0.236809
H149  H     H_    0.373897 0.732775 0.769402 0.297380
O40   O     O_3   0.573623 0.650515 0.304205 -0.668872
C142  C     C_3   0.583666 0.582203 0.266484 0.146262
H150  H     H_    0.541404 0.540187 0.236194 0.105131
H151  H     H_    0.633298 0.552630 0.333049 0.072737
C143  C     C_3   0.586446 0.602849 0.173896 -0.224494
H152  H     H_    0.622190 0.652203 0.200203 0.205986
H153  H     H_    0.607581 0.553659 0.158145 0.225903
C144  C     C_3   0.514696 0.623155 0.065765 -0.858462
H154  H     H_    0.479203 0.573168 0.035619 0.236291
H155  H     H_    0.519836 0.638756 0.002305 0.281181
H156  H     H_    0.491648 0.672905 0.076906 0.266359

loop_
_geom_bond_atom_site_label_1
_geom_bond_atom_site_label_2
_geom_bond_distance
_ccdc_geom_bond_type
C129  H120  1.109423 S    
C114  H85   1.109872 S    
C61   C65   1.408543 A    
C64   C68   1.409079 A    
C91   N43   1.442456 S    
N41   O29   1.301419 A    
C40   O40   1.383407 S    
N5    Ni5   1.859214 S    
C132  H126  1.109769 S    
C63   C67   1.408632 A    
C99   H51   1.111055 S    
N38   O19   1.301273 A    
C9    C21   1.378892 A    
N4    Ni4   1.860240 S    
C11   C23   1.390614 A    
C129  H121  1.109767 S    
N5    N9    1.366631 A    
C118  H94   1.102583 S    
N14   Ni5   1.858994 S    
H33   C93   1.086608 S    
C139  H143  1.109152 S    
C16   N16   1.341271 A    
C119  H96   1.108789 S    
C97   H45   1.108672 S    
C74   C78   1.567962 S    
C75   N35   1.470846 S    
C25   C41   1.369117 A    
C30   H22   1.071116 S    
C104  C105  1.526173 S    
C27   C43   1.355597 A    
N39   O22   1.300488 A    
O28   C130  1.415593 S    
C4    N4    1.323024 A    
C125  C126  1.527644 S    
C57   C63   1.409689 A    
C58   C64   1.390273 A    
N1    N14   1.421820 A    
N3    N16   1.421820 A    
N36   O12   1.302780 A    
N4    N15   1.421679 A    
N34   O7    1.301057 A    
C134  H132  1.110963 S    
N22   N25   1.393571 A    
C9    H9    1.080556 S    
C136  C137  1.526511 S    
C109  H74   1.096299 S    
C52   C80   1.519704 S    
C131  H124  1.108933 S    
C11   H11   1.080799 S    
N9    Ni2   1.849753 S    
C24   C55   1.410300 S    
C59   C61   1.383601 A    
C84   C88   1.335588 D    
N42   O31   1.300574 A    
N11   Ni4   1.849754 S    
C63   O3    1.394107 S    
C11   N11   1.339494 A    
C73   N33   1.470392 S    
C135  H135  1.108805 S    
C127  H115  1.108953 S    
C97   C98   1.531110 S    
C143  H153  1.107410 S    
C106  H66   1.110338 S    
C70   C76   1.516820 S    
C8    H8    1.073746 S    
N7    Ni7   1.859214 S    
C5    N5    1.306126 A    
C19   C84   1.460429 S    
C115  H88   1.104938 S    
C144  H154  1.110937 S    
C51   C69   1.358785 A    
C143  C144  1.523486 S    
C13   N13   1.346192 A    
C142  H150  1.111029 S    
C123  H105  1.110915 S    
C15   N15   1.347917 A    
C90   C94   1.347746 D    
C132  H128  1.110943 S    
C116  H90   1.110739 S    
C26   C42   1.370573 A    
N20   N32   1.366572 A    
C80   N40   1.480588 S    
C36   H28   1.080653 S    
C39   O39   1.382317 S    
C101  H54   1.110210 S    
C79   N39   1.479109 S    
C140  H145  1.104686 S    
C139  C140  1.529618 S    
C25   H17   1.065534 S    
C51   C55   1.390928 A    
C35   N27   1.330609 A    
C27   H19   1.066469 S    
C111  H79   1.110934 S    
N22   Ni6   1.873106 S    
C28   H20   1.063124 S    
C13   C18   1.396607 A    
N24   N27   1.393571 A    
H39   C87   1.086017 S    
C138  H142  1.108037 S    
C39   N31   1.339306 A    
H40   C88   1.084042 S    
C133  H129  1.105424 S    
C59   H31   1.078087 S    
C3    N3    1.330176 A    
C69   C75   1.514848 S    
C20   C83   1.455645 S    
C57   H29   1.076905 S    
C100  H52   1.110927 S    
C38   N30   1.321992 A    
C49   C77   1.519630 S    
C141  H147  1.107545 S    
C81   C85   1.337783 D    
C113  H82   1.109175 S    
C128  H118  1.107203 S    
O37   C133  1.413508 S    
C29   N21   1.339780 A    
N17   Ni1   1.863808 S    
C31   N23   1.345730 A    
C12   C24   1.376851 A    
N19   Ni3   1.863808 S    
C111  H77   1.108046 S    
C88   C94   1.452476 S    
N31   Ni8   1.873622 S    
C29   C45   1.379853 A    
C112  H80   1.111704 S    
N8    N12   1.366573 A    
C127  C128  1.532064 S    
C21   C54   1.403007 S    
C98   H48   1.107664 S    
N16   Ni7   1.858996 S    
C137  H138  1.111549 S    
C99   H50   1.110462 S    
C110  H75   1.108741 S    
C50   C54   1.390650 A    
C2    C18   1.384442 A    
C27   N19   1.311314 A    
C55   C59   1.401881 A    
C124  H109  1.109323 S    
C33   C46   1.385404 A    
C102  H58   1.111112 S    
C123  H107  1.110701 S    
O15   C115  1.415254 S    
C80   O28   1.424867 S    
O13   C109  1.421958 S    
C79   O27   1.422323 S    
C122  H104  1.107835 S    
C101  C102  1.525579 S    
C10   C22   1.382192 A    
O38   C136  1.407518 S    
C125  H111  1.111944 S    
N6    N10   1.366573 A    
H34   C94   1.085699 S    
C106  C107  1.528537 S    
H37   C85   1.086379 S    
C130  H123  1.110689 S    
C41   C66   1.444392 S    
C7    C23   1.364838 A    
C75   C79   1.561898 S    
C8    C24   1.374563 A    
C53   C57   1.405110 A    
O25   C121  1.420751 S    
C60   C62   1.402221 A    
N44   O36   1.301243 A    
C100  C101  1.532424 S    
N2    N13   1.421679 A    
C135  H134  1.109296 S    
C17   C82   1.453898 S    
C28   N20   1.321890 A    
C117  H92   1.110584 S    
C113  C114  1.527599 S    
C61   O1    1.393912 S    
C22   C53   1.424770 S    
C10   H10   1.081222 S    
C105  H64   1.110502 S    
N43   O34   1.300027 A    
C83   H43   1.084934 S    
C37   N29   1.342197 A    
C107  C108  1.525413 S    
C144  H155  1.108945 S    
C140  C141  1.524924 S    
C112  C113  1.524836 S    
C77   N37   1.477333 S    
C76   C80   1.559471 S    
C34   C45   1.380397 A    
C115  H87   1.110208 S    
C117  H93   1.111319 S    
N19   N31   1.366628 A    
N37   O18   1.302812 A    
C105  H65   1.111180 S    
N24   Ni8   1.873105 S    
C137  C138  1.520177 S    
C87   C93   1.448021 S    
C110  C111  1.525111 S    
C6    N6    1.314711 A    
N20   Ni4   1.861227 S    
C142  C143  1.531603 S    
C38   O38   1.380113 S    
C32   N24   1.342229 A    
C74   N34   1.471351 S    
C40   N32   1.338479 A    
N2    Ni2   1.860240 S    
N33   O6    1.302532 A    
C111  H78   1.110722 S    
C119  H97   1.105640 S    
C75   O15   1.431563 S    
C81   H41   1.086973 S    
C97   H46   1.116691 S    
C82   H42   1.087205 S    
C102  H56   1.110930 S    
C103  H59   1.106614 S    
N15   Ni8   1.844450 S    
C120  H100  1.110159 S    
C104  H62   1.108463 S    
C89   C93   1.349557 D    
C36   N28   1.335255 A    
C33   H25   1.079147 S    
C92   C96   1.346892 D    
C9    N9    1.325467 A    
C26   H18   1.078906 S    
C118  C119  1.524698 S    
C35   H27   1.080102 S    
O40   C142  1.416177 S    
C119  C120  1.530406 S    
N43   O33   1.300648 A    
N34   O8    1.303055 A    
C134  H131  1.106507 S    
C116  H89   1.108543 S    
C14   C17   1.386945 A    
O1    C97   1.419907 S    
C125  H110  1.111785 S    
C7    H7    1.075873 S    
C136  H137  1.111545 S    
C109  C110  1.530290 S    
C131  H125  1.110619 S    
N12   Ni3   1.847088 S    
C1    H1    1.079903 S    
N42   O32   1.301353 A    
C108  H72   1.108354 S    
C3    H3    1.079557 S    
C121  H101  1.106150 S    
C58   H30   1.082009 S    
O39   C139  1.416037 S    
C74   O14   1.434546 S    
C77   O25   1.422645 S    
C48   C92   1.460302 S    
C127  H116  1.112958 S    
N40   O23   1.302082 A    
C50   C78   1.530493 S    
N18   Ni2   1.861229 S    
C37   O37   1.378355 S    
C82   C86   1.333408 D    
C131  C132  1.526635 S    
C78   O26   1.422228 S    
C29   H21   1.073313 S    
N8    Ni8   1.873755 S    
C84   H44   1.086283 S    
C4    H4    1.079512 S    
C56   C60   1.407159 A    
C33   N25   1.329652 A    
C129  H119  1.111084 S    
C114  H86   1.109767 S    
O27   C127  1.414362 S    
C115  C116  1.531242 S    
N41   O30   1.299518 A    
C123  H106  1.105969 S    
C43   C68   1.415338 S    
C5    C21   1.362679 A    
C132  H127  1.110388 S    
N21   N26   1.393438 A    
N10   Ni1   1.847088 S    
C104  H61   1.111614 S    
C1    N1    1.323779 A    
C121  C122  1.520410 S    
C47   C91   1.460061 S    
C66   C70   1.398692 A    
C3    C19   1.386375 A    
C45   C89   1.459238 S    
C133  C134  1.529837 S    
C34   H26   1.080456 S    
C38   C42   1.362682 A    
N39   O21   1.301670 A    
C103  C104  1.532120 S    
C12   H12   1.079848 S    
N23   Ni7   1.858468 S    
N35   O10   1.302859 A    
C78   N38   1.472437 S    
C133  H130  1.114955 S    
N29   Ni6   1.873623 S    
C72   C74   1.512856 S    
N7    N11   1.366631 A    
N36   O11   1.301114 A    
C141  H148  1.110272 S    
C16   C19   1.385347 A    
C134  C135  1.524485 S    
C90   N42   1.439846 S    
O14   C112  1.417734 S    
H38   C86   1.084528 S    
C113  H83   1.104296 S    
H35   C95   1.085949 S    
C65   C69   1.392338 A    
C109  H73   1.103900 S    
H36   C96   1.086484 S    
C42   C65   1.408199 S    
C68   C72   1.396039 A    
C25   N17   1.320597 A    
C5    H5    1.071599 S    
C32   C48   1.379317 A    
C34   N26   1.334264 A    
C107  H69   1.108487 S    
C89   N41   1.446778 S    
C141  H149  1.109117 S    
N21   Ni5   1.858468 S    
C143  H152  1.112024 S    
C130  H122  1.113969 S    
N18   N30   1.366572 A    
C98   H47   1.111600 S    
N38   O20   1.301990 A    
C137  H139  1.109228 S    
C76   N36   1.469416 S    
C128  H117  1.111845 S    
C92   N44   1.440572 S    
C12   N12   1.320930 A    
C124  H108  1.109599 S    
C23   C56   1.441243 S    
C102  H57   1.110408 S    
O16   C118  1.415461 S    
C73   C77   1.557143 S    
C116  C117  1.523363 S    
C121  H102  1.114563 S    
C126  H112  1.111181 S    
N25   Ni2   1.877293 S    
C30   N22   1.343534 A    
C122  H103  1.111914 S    
C6    H6    1.076676 S    
C138  H140  1.111037 S    
N27   Ni4   1.877292 S    
C32   H24   1.070510 S    
C107  H68   1.111932 S    
C30   C46   1.389231 A    
C40   C44   1.386832 A    
N30   Ni5   1.888251 S    
C4    C20   1.382815 A    
C49   C71   1.359451 A    
C14   H14   1.081434 S    
C50   C72   1.341453 A    
C106  H67   1.116481 S    
C71   C73   1.520387 S    
C62   O2    1.381591 S    
C49   C53   1.389598 A    
N28   Ni3   1.874338 S    
C26   N18   1.329484 A    
C139  H144  1.114816 S    
C100  H53   1.115434 S    
C73   O13   1.435535 S    
C46   C90   1.467806 S    
C7    N7    1.312385 A    
C15   C20   1.394121 A    
C128  C129  1.525684 S    
C8    N8    1.323910 A    
C18   C81   1.457757 S    
C13   H13   1.080358 S    
C44   C67   1.438190 S    
C2    H2    1.078436 S    
C67   C71   1.401027 A    
C60   H32   1.081993 S    
C10   N10   1.330252 A    
C64   O4    1.385091 S    
C140  H146  1.110422 S    
C51   C79   1.510721 S    
C112  H81   1.107497 S    
C14   N14   1.340659 A    
C76   O16   1.432547 S    
C52   C70   1.360062 A    
C138  H141  1.105235 S    
O4    C106  1.415702 S    
C98   C99   1.526538 S    
C15   H15   1.077038 S    
N37   O17   1.300649 A    
N6    Ni6   1.873754 S    
C91   C95   1.346014 D    
C126  H113  1.110456 S    
C99   H49   1.111103 S    
C110  H76   1.106736 S    
C54   C58   1.408193 A    
C83   C87   1.337128 D    
C142  H151  1.108178 S    
N26   Ni1   1.874338 S    
C28   C44   1.369692 A    
C144  H156  1.107590 S    
C108  H70   1.111411 S    
C16   H16   1.081545 S    
C124  C125  1.527121 S    
N33   O5    1.301215 A    
C31   C47   1.377588 A    
N23   N28   1.393438 A    
O26   C124  1.408321 S    
C6    C22   1.369494 A    
C103  H60   1.115037 S    
C36   C47   1.374449 A    
C120  H99   1.109211 S    
C122  C123  1.528585 S    
C114  H84   1.108682 S    
C2    N2    1.326141 A    
N13   Ni6   1.844449 S    
C118  H95   1.108974 S    
N32   Ni7   1.888251 S    
C35   C48   1.377672 A    
C62   C66   1.413399 A    
C130  C131  1.532459 S    
C85   C95   1.452067 S    
C136  H136  1.110613 S    
C86   C96   1.442580 S    
O2    C100  1.414337 S    
N17   N29   1.366628 A    
C108  H71   1.110512 S    
C39   C43   1.388261 A    
C31   H23   1.069879 S    
N44   O35   1.300247 A    
C135  H133  1.106672 S    
N40   O24   1.300669 A    
C101  H55   1.110897 S    
C117  H91   1.106034 S    
N1    Ni1   1.863281 S    
C105  H63   1.110990 S    
C126  H114  1.110991 S    
C37   C41   1.389855 A    
N35   O9    1.301127 A    
N3    Ni3   1.863281 S    
O3    C103  1.417497 S    
C120  H98   1.109679 S    
C1    C17   1.387364 A    
C52   C56   1.399681 A    
