data_mof_unit_59726.cif
_audit_creation_date              2012-12-11T14:43:33-0500
_audit_creation_method            fapswitch 2.2
_symmetry_space_group_name_H-M    P1
_symmetry_Int_Tables_number       1
_space_group_crystal_system       triclinic
_cell_length_a                    20.790686
_cell_length_b                    7.087717
_cell_length_c                    16.508015
_cell_angle_alpha                 89.138121
_cell_angle_beta                  92.404387
_cell_angle_gamma                 90.703574
_cell_volume                      2430.01451972

loop_
_atom_site_label
_atom_site_type_symbol
_atom_type_description
_atom_site_fract_x
_atom_site_fract_y
_atom_site_fract_z
_atom_type_partial_charge
O1    O     O_R   0.564840 0.505290 0.579830 -0.540589
O2    O     O_R   0.435160 0.005290 0.420170 -0.539007
O3    O     O_R   0.556720 0.179930 0.409350 -0.530678
O4    O     O_R   0.443280 0.679930 0.590650 -0.535469
C1    C     C_R   0.570528 0.346650 0.381460 0.717827
C2    C     C_R   0.429476 0.842831 0.618772 0.717692
O5    O     O_R   0.572280 0.175810 0.578530 -0.541171
O6    O     O_R   0.427720 0.675810 0.421470 -0.542442
O7    O     O_R   0.450830 0.001920 0.590540 -0.531506
O8    O     O_R   0.549170 0.501920 0.409460 -0.540698
C3    C     C_R   0.590782 0.343819 0.604195 0.722629
C4    C     C_R   0.409174 0.844165 0.395715 0.720050
O9    O     O_3   0.460130 0.338030 0.503750 -0.368759
O10   O     O_3   0.539870 0.838030 0.496250 -0.373103
V1    V     V_3+5 0.507400 0.064560 0.499310 1.445949
V2    V     V_3+5 0.492600 0.564560 0.500690 1.438410
C5    C     C_R   0.141306 0.921093 0.169553 -0.076797
C6    C     C_R   0.858630 0.421612 0.830101 -0.090086
C7    C     C_R   0.353508 0.846049 0.334771 -0.106041
C8    C     C_R   0.646595 0.344350 0.664780 -0.099733
C9    C     C_R   0.293989 0.672996 0.228284 0.150549
C10   C     C_R   0.706485 0.165412 0.770176 0.153928
C11   C     C_R   0.345806 0.689683 0.284017 -0.224521
C12   C     C_R   0.654249 0.184243 0.715224 -0.220399
C13   C     C_R   0.306922 0.991683 0.328350 0.087106
C14   C     C_R   0.693688 0.491449 0.670500 0.087483
C15   C     C_R   0.247899 0.959692 0.281904 0.124920
C16   C     C_R   0.752702 0.459163 0.716643 0.128103
C17   C     C_R   0.244147 0.806039 0.226787 0.048055
C18   C     C_R   0.756426 0.301585 0.771535 0.048513
C19   C     C_R   0.190836 0.789295 0.171102 -0.174819
C20   C     C_R   0.809803 0.284255 0.826990 -0.178587
C21   C     C_R   0.141852 0.059315 0.228928 -0.100142
C22   C     C_R   0.858219 0.563439 0.770527 -0.108487
C23   C     C_R   0.192036 0.073385 0.287832 0.161400
C24   C     C_R   0.808665 0.576387 0.710622 0.159560
H1    H     H_    0.188458 0.679180 0.126451 0.174141
H2    H     H_    0.812754 0.168502 0.869942 0.189101
H3    H     H_    0.101053 0.152504 0.231568 0.154895
H4    H     H_    0.898892 0.659280 0.768295 0.161946
H5    H     H_    0.381835 0.580423 0.285868 0.155664
H6    H     H_    0.617961 0.073217 0.713607 0.154691
C25   C     C_R   0.385311 0.829944 0.838604 -0.143514
C26   C     C_R   0.616061 0.336759 0.162818 -0.146858
H7    H     H_    0.410157 0.813119 0.897126 0.138327
H8    H     H_    0.591429 0.323280 0.104107 0.138922
C27   C     C_R   0.392063 0.845396 0.692677 -0.042711
C28   C     C_R   0.608213 0.358116 0.307968 -0.046634
C29   C     C_R   0.084216 0.952889 0.734820 0.107666
C30   C     C_R   0.917963 0.438039 0.265882 0.107849
C31   C     C_R   0.121230 0.984896 0.666269 0.147537
C32   C     C_R   0.883945 0.410836 0.337304 0.143197
C33   C     C_R   0.188870 0.992879 0.675125 0.135923
C34   C     C_R   0.818979 0.350604 0.332292 0.136960
C35   C     C_R   0.220179 0.929695 0.748371 0.007950
C36   C     C_R   0.784106 0.357386 0.256389 0.004297
C37   C     C_R   0.183523 0.924194 0.819483 -0.051076
C38   C     C_R   0.820399 0.355146 0.184951 -0.049051
C39   C     C_R   0.287652 0.889406 0.754704 0.080389
C40   C     C_R   0.714964 0.356063 0.248669 0.077208
C41   C     C_R   0.318321 0.862148 0.832435 0.066633
C42   C     C_R   0.683990 0.342570 0.170407 0.066734
C43   C     C_R   0.282342 0.878020 0.902724 0.120711
C44   C     C_R   0.721235 0.325869 0.101395 0.117953
C45   C     C_R   0.217753 0.933468 0.895116 0.101843
C46   C     C_R   0.787951 0.304691 0.111522 0.101032
C47   C     C_R   0.324951 0.864998 0.685733 -0.187150
C48   C     C_R   0.675399 0.379787 0.315569 -0.202442
C49   C     C_R   0.422567 0.826815 0.770062 0.133325
C50   C     C_R   0.578131 0.338537 0.230624 0.132172
C51   C     C_R   0.114542 0.926526 0.812187 -0.137244
C52   C     C_R   0.887861 0.399180 0.189699 -0.133579
H9    H     H_    0.302309 0.858278 0.625752 0.145749
H10   H     H_    0.695801 0.417175 0.374311 0.145816
O11   O     O_R   0.950790 0.256670 0.090520 -0.525192
O12   O     O_R   0.049210 0.756670 0.909480 -0.535367
O13   O     O_R   0.927720 0.590370 0.921470 -0.536773
O14   O     O_R   0.072280 0.090370 0.078530 -0.528625
C53   C     C_R   0.910533 0.422398 0.894703 0.723686
C54   C     C_R   0.089130 0.922120 0.105624 0.735389
O15   O     O_R   0.943270 0.586180 0.090640 -0.525324
O16   O     O_R   0.056730 0.086180 0.909360 -0.520036
O17   O     O_R   0.064850 0.759970 0.079840 -0.532481
O18   O     O_R   0.935150 0.259970 0.920160 -0.523444
C55   C     C_R   0.927668 0.415026 0.116727 0.766054
C56   C     C_R   0.072858 0.920153 0.883693 0.768095
O19   O     O_3   0.039850 0.428050 0.996240 -0.363549
O20   O     O_3   0.960150 0.928050 0.003760 -0.354627
V3    V     V_3+5 0.992610 0.701540 0.000700 1.556058
V4    V     V_3+5 0.007390 0.201540 0.999300 1.570709
I1    I     I_    0.981592 0.980297 0.723153 -0.454486
I2    I     I_    0.017890 0.520169 0.273882 -0.451437
I3    I     I_    0.236954 0.192140 0.597719 -0.485864
I4    I     I_    0.787434 0.169081 0.429322 -0.460350
C57   C     C_3   0.088091 0.018527 0.584235 -0.658716
H11   H     H_    0.063597 0.156935 0.582931 0.235399
H12   H     H_    0.121998 0.015467 0.534233 0.218868
H13   H     H_    0.052166 0.904488 0.571483 0.222474
C58   C     C_3   0.917826 0.443074 0.418755 -0.651684
H14   H     H_    0.940583 0.585554 0.419741 0.224598
H15   H     H_    0.884428 0.439630 0.469329 0.223784
H16   H     H_    0.955313 0.334633 0.430406 0.229906
I5    I     I_    0.195876 0.154365 0.975307 -0.355436
I6    I     I_    0.822317 0.072664 0.046355 -0.353453
I7    I     I_    0.294552 0.434422 0.151649 -0.466002
I8    I     I_    0.706225 0.919864 0.846270 -0.477770
C59   C     C_3   0.178360 0.190071 0.360760 -0.739306
H17   H     H_    0.128089 0.164282 0.378926 0.223580
H18   H     H_    0.209260 0.149872 0.414212 0.236470
H19   H     H_    0.183865 0.342689 0.346087 0.236311
C60   C     C_3   0.823068 0.695424 0.636711 -0.719330
H20   H     H_    0.873251 0.670967 0.619014 0.225484
H21   H     H_    0.792072 0.656700 0.583134 0.223732
H22   H     H_    0.818467 0.847539 0.650274 0.239592
C61   C     C_3   0.324881 0.185074 0.360693 -0.681172
H23   H     H_    0.292820 0.297420 0.336620 0.224615
H24   H     H_    0.325740 0.183706 0.427975 0.222581
H25   H     H_    0.372743 0.228744 0.339236 0.211021
C62   C     C_3   0.676495 0.685784 0.637373 -0.684648
H26   H     H_    0.709126 0.798168 0.660775 0.226208
H27   H     H_    0.675471 0.687383 0.570068 0.209188
H28   H     H_    0.628903 0.726996 0.658887 0.212575
C63   C     C_3   0.494372 0.802137 0.782717 -0.756032
H29   H     H_    0.520242 0.802210 0.725384 0.192251
H30   H     H_    0.514698 0.918874 0.820321 0.219606
H31   H     H_    0.504109 0.666046 0.814846 0.218318
C64   C     C_3   0.506000 0.320634 0.217225 -0.755072
H32   H     H_    0.479581 0.327580 0.273997 0.191310
H33   H     H_    0.488385 0.436770 0.176515 0.219735
H34   H     H_    0.493883 0.183655 0.188226 0.217979
C65   C     C_3   0.312990 0.846074 0.986557 -0.688653
H35   H     H_    0.276992 0.846362 0.034261 0.238596
H36   H     H_    0.335884 0.705341 0.990143 0.220863
H37   H     H_    0.349614 0.957734 0.000191 0.220702
C66   C     C_3   0.690443 0.321015 0.016658 -0.695375
H38   H     H_    0.726904 0.326762 0.969452 0.236547
H39   H     H_    0.661060 0.190222 0.008705 0.230342
H40   H     H_    0.659626 0.446553 0.005997 0.210067

loop_
_geom_bond_atom_site_label_1
_geom_bond_atom_site_label_2
_ccdc_geom_bond_type
C50   C64   S    
C66   H40   S    
C43   C45   A    
C35   C39   A    
C15   C17   A    
C12   H6    S    
C57   H11   S    
O1    C3    A    
C65   H37   S    
O2    C4    A    
C2    O7    A    
C52   C55   S    
C57   H13   S    
C66   H38   S    
O14   V4    S    
O5    C3    A    
O13   V3    S    
C21   H3    S    
C5    C21   A    
C22   H4    S    
C13   C61   S    
C53   O18   A    
O14   C54   A    
C63   H30   S    
C49   C63   S    
C48   H10   S    
C61   H23   S    
C40   C42   A    
C41   C43   A    
C30   C52   A    
C27   C49   A    
C42   C44   A    
O11   V4    S    
C39   C47   A    
C38   C46   A    
C8    C12   A    
C26   H8    S    
C6    C53   S    
C29   C31   A    
C30   C32   A    
C59   H17   S    
C26   C50   A    
C47   H9    S    
C43   C65   S    
O12   V3    S    
O3    C1    A    
O15   V3    S    
O5    V1    S    
C44   C66   S    
O6    V2    S    
C59   H18   S    
O18   V4    S    
C29   I1    S    
C54   O17   A    
C27   C47   A    
C32   C34   A    
C33   C35   A    
O17   V3    S    
C1    C28   S    
C34   C36   A    
C3    C8    S    
C39   C41   A    
C2    C27   S    
C33   I3    S    
C46   I6    S    
C63   H29   S    
C14   C62   S    
O4    C2    A    
C37   C45   A    
C63   H31   S    
C15   C23   A    
C10   I8    S    
C9    C17   A    
C5    C54   S    
C28   C48   A    
C36   C40   A    
C31   C33   A    
C44   C46   A    
O4    V2    S    
C7    C11   A    
C64   H33   S    
C51   C56   S    
C25   H7    S    
C58   H14   S    
O6    C4    A    
C61   H25   S    
C24   C60   S    
O13   C53   A    
C60   H21   S    
O1    V2    S    
C37   C51   A    
O2    V1    S    
C6    C22   A    
C40   C48   A    
C62   H27   S    
C30   I2    S    
C58   H15   S    
O20   V4    S    
C20   H2    S    
C35   C37   A    
C5    C19   A    
C59   H19   S    
C10   C12   A    
O19   V4    S    
C6    C20   A    
C45   I5    S    
C64   H32   S    
O12   C56   A    
O3    V1    S    
C25   C41   A    
O11   C55   A    
C62   H28   S    
C66   H39   S    
C61   H24   S    
C10   C18   A    
C60   H20   S    
C28   C50   A    
C65   H36   S    
C11   H5    S    
C62   H26   S    
C57   H12   S    
C13   C15   A    
C32   C58   S    
C14   C16   A    
O16   V4    S    
C26   C42   A    
C9    C11   A    
O7    V1    S    
C64   H34   S    
C1    O8    A    
C17   C19   A    
O16   C56   A    
C18   C20   A    
C38   C52   A    
C8    C14   A    
C4    C7    S    
C16   C18   A    
C21   C23   A    
C36   C38   A    
C60   H22   S    
C22   C24   A    
C7    C13   A    
O15   C55   A    
C34   I4    S    
C23   C59   S    
C19   H1    S    
C58   H16   S    
O20   V3    S    
C16   C24   A    
C25   C49   A    
C29   C51   A    
O9    V2    S    
O19   V3    S    
O10   V1    S    
O8    V2    S    
C9    I7    S    
C65   H35   S    
C31   C57   S    
