data_mof_unit_39875.cif
_audit_creation_date              2013-03-05T16:01:37-0500
_audit_creation_method            fapswitch 2.2
_symmetry_space_group_name_H-M    P1
_symmetry_Int_Tables_number       1
_space_group_crystal_system       triclinic
_cell_length_a                    14.681019
_cell_length_b                    14.784413
_cell_length_c                    23.581859
_cell_angle_alpha                 76.428087
_cell_angle_beta                  103.211478
_cell_angle_gamma                 115.528856
_cell_volume                      4442.13627008

loop_
_atom_site_label
_atom_site_type_symbol
_atom_site_description
_atom_site_fract_x
_atom_site_fract_y
_atom_site_fract_z
_atom_type_partial_charge
O1    O     O_R   0.977900 0.338110 0.520250 -0.595243
O2    O     O_R   0.022100 0.661890 0.479750 -0.580231
O3    O     O_R   0.839850 0.379180 0.494310 -0.538753
O4    O     O_R   0.160150 0.620820 0.505690 -0.548917
C1    C     C_R   0.879122 0.312075 0.512214 0.897044
C2    C     C_R   0.120635 0.687925 0.492530 0.879957
O5    O     O_R   0.069020 0.479430 0.595090 -0.565820
O6    O     O_R   0.930980 0.520570 0.404910 -0.576734
O7    O     O_R   0.930970 0.520500 0.569150 -0.557262
O8    O     O_R   0.069030 0.479500 0.430850 -0.585216
C3    C     C_R   0.000129 0.500647 0.609016 0.901638
C4    C     C_R   0.999454 0.499202 0.391248 0.978649
Cu1   Cu    Cu3+1 0.081740 0.475680 0.515360 1.011909
Cu2   Cu    Cu3+1 0.918260 0.524320 0.484640 1.027124
C5    C     C_R   0.007299 0.585024 0.109045 0.622448
C6    C     C_R   0.947297 0.410795 0.886278 0.626785
N1    N     N_R   0.982622 0.494503 0.146800 -0.441688
N2    N     N_R   0.989059 0.502132 0.850937 -0.443613
C7    C     C_R   0.953840 0.404889 0.126500 0.526096
C8    C     C_R   0.025197 0.591995 0.872337 0.524158
C9    C     C_R   0.949255 0.404243 0.066496 -0.021490
C10   C     C_R   0.019424 0.592142 0.930875 -0.020955
C11   C     C_R   0.980825 0.497252 0.028212 -0.014401
C12   C     C_R   0.982345 0.498887 0.968361 -0.014013
C13   C     C_R   0.011170 0.588650 0.049655 -0.056668
C14   C     C_R   0.947061 0.407286 0.946202 -0.056209
C15   C     C_R   0.915335 0.313186 0.044108 -0.142354
C16   C     C_R   0.050804 0.683090 0.952897 -0.140189
C17   C     C_R   0.912783 0.314640 0.984387 -0.148915
C18   C     C_R   0.045222 0.681289 0.011452 -0.152591
O9    O     O_2   0.027900 0.671332 0.128882 -0.482418
O10   O     O_2   0.905636 0.323590 0.863469 -0.472142
O11   O     O_2   0.931347 0.316794 0.164364 -0.527065
O12   O     O_2   0.067970 0.680994 0.837362 -0.524163
H1    H     H_    0.890043 0.240537 0.072538 0.196586
H2    H     H_    0.079055 0.755872 0.924890 0.198328
H3    H     H_    0.885607 0.243068 0.968501 0.197192
H4    H     H_    0.069442 0.752734 0.026923 0.197210
C19   C     C_R   0.951411 0.558487 0.745006 -0.193058
C20   C     C_R   0.903361 0.434105 0.237199 -0.202018
H5    H     H_    0.914557 0.600722 0.755691 0.219952
H6    H     H_    0.833710 0.387274 0.212421 0.223239
C21   C     C_R   0.957803 0.563106 0.686165 0.274783
C22   C     C_R   0.907887 0.430909 0.297425 0.276897
C23   C     C_R   0.000181 0.502898 0.671605 -0.343000
C24   C     C_R   0.996877 0.496189 0.328904 -0.336537
C25   C     C_R   0.041225 0.443875 0.717664 0.207313
C26   C     C_R   0.082191 0.560374 0.300015 0.192005
C27   C     C_R   0.045882 0.450850 0.776802 0.410064
C28   C     C_R   0.080745 0.552987 0.241308 0.416734
C29   C     C_R   0.995606 0.503814 0.790529 0.114062
C30   C     C_R   0.988974 0.493810 0.208876 0.108385
C31   C     C_R   0.809014 0.205108 0.528077 -0.114908
C32   C     C_R   0.189477 0.794185 0.499368 -0.152347
C33   C     C_R   0.784449 0.031458 0.570310 -0.151941
C34   C     C_R   0.213190 0.962039 0.511166 -0.163581
C35   C     C_R   0.848705 0.131192 0.552241 -0.205025
C36   C     C_R   0.148963 0.864514 0.499335 -0.192779
C37   C     C_R   0.702421 0.177797 0.522758 0.364033
C38   C     C_R   0.296469 0.823184 0.511749 0.383915
C39   C     C_R   0.638119 0.078834 0.546660 -0.015550
C40   C     C_R   0.360589 0.917341 0.530935 -0.005130
C41   C     C_R   0.679652 0.004321 0.566781 0.098780
C42   C     C_R   0.318656 0.989418 0.526179 0.078255
C43   C     C_R   0.532022 0.049256 0.546752 0.036202
C44   C     C_R   0.466941 0.945233 0.549812 0.068026
C45   C     C_R   0.510339 0.873173 0.572545 -0.125420
C46   C     C_R   0.488488 0.118816 0.544531 -0.119665
C47   C     C_R   0.615588 0.902907 0.582300 -0.200713
C48   C     C_R   0.383031 0.088561 0.535492 -0.152938
H7    H     H_    0.646564 0.845582 0.599235 0.168923
H8    H     H_    0.351975 0.144121 0.533055 0.166863
H9    H     H_    0.067419 0.844275 0.490014 0.200603
H10   H     H_    0.929734 0.150248 0.556778 0.186313
H11   H     H_    0.816839 0.975192 0.587008 0.171903
H12   H     H_    0.180259 0.016020 0.508930 0.160976
H13   H     H_    0.463673 0.793627 0.584254 0.203220
H14   H     H_    0.534981 0.196340 0.551247 0.204163
N3    N     N_R   0.795430 0.560810 0.461550 -0.195448
N4    N     N_R   0.204570 0.439190 0.538450 -0.201194
C49   C     C_R   0.705800 0.649866 0.392326 -0.235005
C50   C     C_R   0.290341 0.342968 0.604798 -0.221026
C51   C     C_R   0.791586 0.627983 0.411998 0.064502
C52   C     C_R   0.207035 0.369375 0.586852 0.089355
C53   C     C_R   0.717033 0.513477 0.493701 0.114517
C54   C     C_R   0.281903 0.483973 0.505430 0.073322
C55   C     C_R   0.626724 0.532211 0.476190 -0.048864
C56   C     C_R   0.368819 0.459207 0.520511 -0.038854
C57   C     C_R   0.622767 0.603249 0.424303 0.025575
C58   C     C_R   0.371792 0.386377 0.571685 0.015267
C59   C     C_R   0.540899 0.482475 0.507799 0.023822
C60   C     C_R   0.452831 0.505620 0.487473 0.019377
C61   C     C_R   0.451401 0.574292 0.434700 -0.287963
C62   C     C_R   0.539957 0.409314 0.558588 -0.260652
C63   C     C_R   0.534868 0.623856 0.404051 0.336888
C64   C     C_R   0.456955 0.360374 0.589672 0.315095
H15   H     H_    0.273614 0.539068 0.468169 0.134315
H16   H     H_    0.727328 0.460962 0.532071 0.145668
H17   H     H_    0.144115 0.334466 0.611905 0.197181
H18   H     H_    0.854870 0.663277 0.387032 0.149290
H19   H     H_    0.704793 0.701579 0.351541 0.204131
H20   H     H_    0.290431 0.289889 0.645036 0.218184
H21   H     H_    0.385954 0.591778 0.415617 0.178754
H22   H     H_    0.602254 0.385838 0.574971 0.174135
N5    N     N_R   0.528604 0.695268 0.351855 0.111805
O13   O     O_R   0.450706 0.669511 0.310581 -0.334523
O14   O     O_R   0.594328 0.789169 0.348449 -0.362885
N6    N     N_R   0.461357 0.284319 0.639824 0.114790
O15   O     O_R   0.545819 0.299095 0.676343 -0.313758
O16   O     O_R   0.388086 0.194190 0.643379 -0.365969
N7    N     N_R   0.923661 0.631736 0.642183 0.155378
O17   O     O_R   0.839534 0.639147 0.644660 -0.345538
O18   O     O_R   0.984977 0.699207 0.606443 -0.354262
N8    N     N_R   0.823344 0.358276 0.326541 0.134951
O19   O     O_R   0.840179 0.304837 0.376935 -0.412860
O20   O     O_R   0.730773 0.332090 0.298338 -0.372215
N9    N     N_R   0.071221 0.371026 0.705096 0.161282
O21   O     O_R   0.004734 0.298547 0.676463 -0.365860
O22   O     O_R   0.159371 0.368330 0.728829 -0.344159
N10   N     N_R   0.166170 0.638669 0.328340 0.127060
O23   O     O_R   0.148098 0.695859 0.354825 -0.427246
O24   O     O_R   0.259007 0.663907 0.319778 -0.323881
O25   O     O_3   0.090362 0.396573 0.821247 -0.506517
C65   C     C_3   0.187775 0.464067 0.843760 0.085782
H23   H     H_    0.182660 0.523764 0.862617 0.137416
H24   H     H_    0.237816 0.501031 0.808697 0.169523
C66   C     C_3   0.237027 0.404950 0.892764 -0.681673
H25   H     H_    0.244826 0.345454 0.875337 0.274780
H26   H     H_    0.313898 0.457089 0.910786 0.196871
H27   H     H_    0.189361 0.368523 0.928804 0.243285
O26   O     O_3   0.165745 0.612381 0.213649 -0.501064
C67   C     C_3   0.216416 0.551254 0.211287 0.091179
H28   H     H_    0.164289 0.482504 0.190888 0.125646
H29   H     H_    0.250369 0.527134 0.256389 0.184921
C68   C     C_3   0.301548 0.612452 0.173926 -0.641618
H30   H     H_    0.355423 0.682035 0.192728 0.295544
H31   H     H_    0.343764 0.566178 0.172885 0.194737
H32   H     H_    0.268896 0.634540 0.128157 0.228021
O27   O     O_3   0.338999 0.762927 0.500582 -0.609426
C69   C     C_3   0.351139 0.785089 0.440290 0.099446
H33   H     H_    0.309168 0.830667 0.411381 0.175785
H34   H     H_    0.320926 0.712030 0.423814 0.220204
C70   C     C_3   0.463515 0.839231 0.433099 -0.732321
H35   H     H_    0.507086 0.795546 0.461592 0.258166
H36   H     H_    0.471498 0.846301 0.386424 0.277477
H37   H     H_    0.495434 0.916696 0.444585 0.224573
O28   O     O_3   0.661943 0.247857 0.492909 -0.607382
C71   C     C_3   0.618544 0.226724 0.435022 0.078267
H38   H     H_    0.546897 0.156959 0.435256 0.136398
H39   H     H_    0.671664 0.216282 0.412826 0.219516
C72   C     C_3   0.593052 0.314919 0.399200 -0.661086
H40   H     H_    0.663898 0.385111 0.395958 0.267813
H41   H     H_    0.555912 0.298139 0.354091 0.225891
H42   H     H_    0.540216 0.327238 0.420630 0.218290

loop_
_geom_bond_atom_site_label_1
_geom_bond_atom_site_label_2
_geom_bond_distance
_ccdc_geom_bond_type
C70   H37   1.108878 S    
C19   C29   1.397564 A    
C34   H12   1.083804 S    
C55   C59   1.434363 A    
C68   H32   1.111023 S    
N7    O17   1.301320 A    
C45   H13   1.080867 S    
C69   C70   1.522238 S    
N4    C52   1.352742 A    
C61   H21   1.074417 S    
N8    O19   1.300343 A    
C31   C37   1.420241 A    
O25   C65   1.412227 S    
C26   N10   1.436128 S    
C32   C38   1.415988 A    
O5    C3    1.304903 A    
N5    O14   1.301249 A    
O1    C1    1.309413 A    
C1    C31   1.481768 S    
C7    C9    1.403257 A    
C12   C14   1.406818 A    
N9    O22   1.300981 A    
C54   C56   1.422292 A    
C5    C13   1.402176 A    
C15   C17   1.395565 A    
C70   H35   1.110737 S    
C27   O25   1.383105 S    
N6    O15   1.301404 A    
C18   H4    1.083087 S    
C38   C40   1.414249 A    
C23   C25   1.418971 A    
O4    Cu1   1.934652 S    
C47   H7    1.083923 S    
C54   H15   1.072855 S    
C6    O10   1.349480 S    
C40   C42   1.415944 A    
C53   H16   1.073914 S    
C63   N5    1.435354 S    
O28   C71   1.413521 S    
C25   N9    1.435279 S    
C41   C47   1.396748 A    
C22   C24   1.412627 A    
C67   H28   1.113970 S    
C27   C29   1.410356 A    
C33   C41   1.400016 A    
C28   C30   1.411615 A    
C72   H40   1.110560 S    
C34   C42   1.401087 A    
C42   C48   1.397177 A    
C33   H11   1.083888 S    
C26   C28   1.408744 A    
C44   C45   1.410402 A    
C64   N6    1.439027 S    
Cu1   N4    2.022656 S    
C22   N8    1.435190 S    
C61   C63   1.393997 A    
C10   C16   1.405124 A    
Cu1   Cu2   2.692689 S    
C6    C14   1.402604 A    
O2    C2    1.306472 A    
C21   N7    1.436425 S    
C2    C32   1.480302 S    
N1    C30   1.443277 S    
C49   C51   1.385539 A    
N10   O24   1.299876 A    
N2    C29   1.443262 S    
C53   C55   1.420423 A    
C46   H14   1.079861 S    
C24   C26   1.412621 A    
C37   C39   1.419594 A    
C40   C44   1.421105 A    
C56   C60   1.434555 A    
C68   H30   1.110380 S    
C71   C72   1.520852 S    
C69   H33   1.117488 S    
C4    C24   1.472655 S    
C7    O11   1.349413 S    
C59   C60   1.428148 A    
C31   C35   1.401173 A    
C49   H19   1.080701 S    
C38   O27   1.384746 S    
C15   H1    1.083069 S    
C20   C30   1.398495 A    
C58   C64   1.409354 A    
C45   C47   1.390398 A    
C35   H10   1.083079 S    
C57   C63   1.405352 A    
O7    Cu2   1.948318 S    
C66   H26   1.110474 S    
C21   C23   1.419751 A    
C20   C22   1.397088 A    
O6    C4    1.297583 A    
C43   C46   1.412372 A    
C39   C41   1.418434 A    
C50   H20   1.080298 S    
N7    O18   1.301518 A    
C33   C35   1.391245 A    
Cu2   N3    2.022658 S    
C71   H38   1.111366 S    
C62   C64   1.394670 A    
O7    C3    1.300726 A    
O3    Cu2   1.934651 S    
O8    C4    1.301188 A    
C72   H42   1.111039 S    
C65   C66   1.520161 S    
C71   H39   1.110976 S    
O4    C2    1.298619 A    
C56   C58   1.422747 A    
C50   C52   1.387340 A    
C51   H18   1.081707 S    
C55   C57   1.421482 A    
C68   H31   1.110425 S    
C10   C12   1.407019 A    
C3    C23   1.483961 S    
O1    Cu1   1.942112 S    
C66   H25   1.110701 S    
N3    C53   1.358256 A    
N10   O23   1.300897 A    
C65   H24   1.114282 S    
C32   C36   1.402626 A    
C13   C18   1.404982 A    
C70   H36   1.109309 S    
O6    Cu2   1.947143 S    
C52   H17   1.078945 S    
C6    N2    1.373211 A    
C8    C10   1.402775 A    
C20   H6    1.083019 S    
O3    C1    1.296185 A    
O8    Cu1   1.948320 S    
N8    O20   1.301311 A    
O27   C69   1.416858 S    
N6    O16   1.301170 A    
C5    O9    1.349562 S    
C69   H34   1.104362 S    
C25   C27   1.406416 A    
C19   H5    1.083275 S    
N5    O13   1.300016 A    
N4    C54   1.359368 A    
C50   C58   1.407720 A    
C9    C11   1.407119 A    
C66   H27   1.110971 S    
C49   C57   1.407739 A    
N9    O21   1.301424 A    
C59   C62   1.411126 A    
N3    C51   1.352193 A    
C67   C68   1.520333 S    
C16   C18   1.395256 A    
C60   C61   1.411865 A    
N1    C7    1.373217 A    
C34   C36   1.393764 A    
N2    C8    1.373325 A    
C72   H41   1.110194 S    
C9    C15   1.405206 A    
O2    Cu2   1.942112 S    
C28   O26   1.382916 S    
C11   C12   1.411042 A    
C62   H22   1.074872 S    
C8    O12   1.349490 S    
C39   C43   1.425265 A    
O5    Cu1   1.947141 S    
C11   C13   1.406758 A    
C16   H2    1.083082 S    
C14   C17   1.405121 A    
C67   H29   1.113425 S    
C43   C44   1.412859 A    
C19   C21   1.395859 A    
C17   H3    1.083074 S    
C46   C48   1.392647 A    
C48   H8    1.083782 S    
C5    N1    1.373066 A    
O26   C67   1.412538 S    
C36   H9    1.082982 S    
C65   H23   1.113073 S    
C37   O28   1.385149 S    
