data_mof_unit_28077.cif
_audit_creation_date              2012-12-10T17:31:08-0500
_audit_creation_method            fapswitch 2.2
_symmetry_space_group_name_H-M    P1
_symmetry_Int_Tables_number       1
_space_group_crystal_system       triclinic
_cell_length_a                    12.064552
_cell_length_b                    12.909788
_cell_length_c                    15.523819
_cell_angle_alpha                 85.788173
_cell_angle_beta                  116.285702
_cell_angle_gamma                 94.228873
_cell_volume                      2159.68206253

loop_
_atom_site_label
_atom_site_type_symbol
_atom_type_description
_atom_site_fract_x
_atom_site_fract_y
_atom_site_fract_z
_atom_type_partial_charge
C1    C     C_R   0.475525 0.299592 0.497055 0.897597
C2    C     C_R   0.524478 0.700374 0.502967 0.897858
C3    C     C_R   0.649076 0.469048 0.118027 -0.217995
C4    C     C_R   0.359143 0.412013 0.898338 -0.218384
C5    C     C_R   0.737420 0.474062 0.083363 -0.206847
C6    C     C_R   0.270979 0.407526 0.933372 -0.203714
C7    C     C_R   0.542667 0.812004 0.507646 -0.118412
C8    C     C_R   0.457363 0.187908 0.492362 -0.117671
C9    C     C_R   0.331249 0.029534 0.438997 -0.038797
C10   C     C_R   0.668815 0.970293 0.561152 -0.038267
C11   C     C_R   0.339439 0.137433 0.446557 -0.067256
C12   C     C_R   0.660552 0.862318 0.554106 -0.067508
C13   C     C_R   0.564221 0.131936 0.531336 -0.253884
C14   C     C_R   0.435869 0.868033 0.468111 -0.253817
C15   C     C_R   0.558843 0.025730 0.523332 0.099206
C16   C     C_R   0.441241 0.974191 0.476378 0.099830
C17   C     C_R   0.003589 0.599715 0.409441 -0.333330
C18   C     C_R   0.996255 0.399962 0.590229 -0.329723
C19   C     C_R   0.123053 0.589612 0.417699 0.129187
C20   C     C_R   0.876873 0.410166 0.582100 0.132070
C21   C     C_R   0.160169 0.454708 0.538179 0.077518
C22   C     C_R   0.839537 0.544831 0.461346 0.069852
C23   C     C_R   0.577437 0.494940 0.680846 0.879739
C24   C     C_R   0.422353 0.503248 0.319294 0.881474
C25   C     C_R   0.039560 0.462897 0.532431 0.037232
C26   C     C_R   0.960299 0.536860 0.467306 0.033921
C27   C     C_R   0.626548 0.485780 0.786206 -0.109032
C28   C     C_R   0.371620 0.491330 0.215166 -0.108456
C29   C     C_R   0.789778 0.489604 0.949578 -0.231482
C30   C     C_R   0.214208 0.434160 0.061182 -0.231960
C31   C     C_R   0.753616 0.497163 0.850556 -0.002883
C32   C     C_R   0.247664 0.459097 0.156007 -0.004796
C33   C     C_R   0.539736 0.465525 0.822656 -0.254726
C34   C     C_R   0.457368 0.499891 0.177382 -0.256767
C35   C     C_R   0.574248 0.457306 0.921097 0.092560
C36   C     C_R   0.428746 0.464342 0.087117 0.091547
C37   C     C_R   0.701074 0.472540 0.984991 0.154308
C38   C     C_R   0.304037 0.435496 0.026811 0.156505
C39   C     C_R   0.484374 0.442380 0.956975 0.073484
C40   C     C_R   0.521137 0.459391 0.054985 0.073647
H1    H     H_    0.834224 0.483444 0.133533 0.169698
H2    H     H_    0.176219 0.383525 0.886605 0.157394
H3    H     H_    0.944678 0.655893 0.356743 0.162211
H4    H     H_    0.055119 0.343638 0.642787 0.156695
H5    H     H_    0.547975 0.533899 0.220547 0.168893
H6    H     H_    0.443403 0.462157 0.772642 0.171306
H7    H     H_    0.886913 0.500712 0.999139 0.145208
H8    H     H_    0.118893 0.410626 0.015086 0.144059
H9    H     H_    0.683904 0.470438 0.195081 0.153067
H10   H     H_    0.327114 0.387771 0.825860 0.155292
H11   H     H_    0.347061 0.827440 0.431551 0.183006
H12   H     H_    0.653078 0.172550 0.567449 0.183728
N1    N     N_R   0.799120 0.480200 0.517090 -0.136657
N2    N     N_R   0.200880 0.519800 0.482910 -0.136199
O1    O     O_R   0.580150 0.341050 0.504560 -0.623978
O2    O     O_R   0.419850 0.658950 0.495440 -0.623498
O3    O     O_R   0.388090 0.353760 0.493600 -0.608682
O4    O     O_R   0.611910 0.646240 0.506400 -0.609110
O5    O     O_R   0.650890 0.490020 0.640860 -0.607133
O6    O     O_R   0.349110 0.509980 0.359140 -0.607526
O7    O     O_R   0.458830 0.502730 0.629890 -0.619148
O8    O     O_R   0.541170 0.497270 0.370110 -0.619068
Zn1   Zn    Zn3+2 0.628240 0.491510 0.507320 0.976599
Zn2   Zn    Zn3+2 0.371760 0.508490 0.492680 0.977548
C41   C     C_1   0.839801 0.348404 0.646664 0.236494
N3    N     N_1   0.811333 0.298910 0.699518 -0.217726
C42   C     C_1   0.159836 0.650553 0.352564 0.241739
N4    N     N_1   0.188130 0.699308 0.299254 -0.213541
C43   C     C_1   0.154143 0.447471 0.190544 0.195421
N5    N     N_1   0.079072 0.437892 0.218142 -0.212687
C44   C     C_1   0.848217 0.522490 0.818366 0.196067
N6    N     N_1   0.924468 0.543079 0.793076 -0.195155
C45   C     C_1   0.772452 0.804149 0.597813 0.223929
N7    N     N_1   0.861714 0.757920 0.632662 -0.174717
C46   C     C_1   0.227251 0.195215 0.404446 0.225537
N8    N     N_1   0.137640 0.240994 0.370948 -0.176495
C47   C     C_1   0.209994 0.976667 0.392477 0.162569
N9    N     N_1   0.113481 0.934656 0.355516 -0.185570
C48   C     C_1   0.790070 0.023070 0.607887 0.163107
N10   N     N_1   0.886591 0.065007 0.645010 -0.187170
C49   C     C_1   0.759544 0.623705 0.398742 0.214347
N11   N     N_1   0.696183 0.687468 0.348562 -0.210965
C50   C     C_1   0.238989 0.374233 0.599000 0.207623
N12   N     N_1   0.301261 0.308995 0.647524 -0.218337

loop_
_geom_bond_atom_site_label_1
_geom_bond_atom_site_label_2
_ccdc_geom_bond_type
C8    C13   A    
C5    C37   A    
C1    C8    S    
C45   N7    T    
C2    C7    S    
C49   N11   T    
C3    H9    S    
C47   N9    T    
C27   C33   A    
C23   O5    A    
C29   H7    S    
C17   C26   A    
C30   H8    S    
C35   C37   A    
C9    C16   A    
C18   H4    S    
C10   C15   A    
C14   H11   S    
C21   N2    A    
C15   C16   A    
C30   C38   A    
C5    H1    S    
C17   C19   A    
C7    C14   A    
C21   C50   S    
O1    Zn1   S    
C6    C38   A    
C19   C42   S    
C23   C27   S    
C18   C20   A    
C31   C44   S    
C28   C34   A    
C12   C45   S    
C33   H6    S    
C18   C25   A    
C22   N1    A    
C7    C12   A    
C27   C31   A    
C42   N4    T    
C22   C49   S    
C20   C41   S    
C36   C40   A    
C4    C6    A    
C39   C40   A    
C25   C26   A    
C4    H10   S    
O7    Zn2   S    
C35   C39   A    
C46   N8    T    
C17   H3    S    
O8    Zn1   S    
C1    O3    A    
C13   H12   S    
C50   N12   T    
C4    C39   A    
C28   C32   A    
C24   O6    A    
O2    Zn2   S    
C34   H5    S    
C9    C47   S    
C9    C11   A    
C10   C12   A    
C19   N2    A    
C3    C40   A    
C13   C15   A    
C22   C26   A    
C14   C16   A    
O3    Zn2   S    
O4    Zn1   S    
C21   C25   A    
C24   O8    A    
C24   C28   S    
C20   N1    A    
C3    C5    A    
C10   C48   S    
C2    O4    A    
C32   C43   S    
O5    Zn1   S    
O6    Zn2   S    
C36   C38   A    
C1    O1    A    
C44   N6    T    
C29   C31   A    
C11   C46   S    
C30   C32   A    
N1    Zn1   S    
N2    Zn2   S    
C8    C11   A    
C33   C35   A    
C34   C36   A    
C43   N5    T    
C48   N10   T    
C23   O7    A    
C41   N3    T    
C6    H2    S    
C29   C37   A    
C2    O2    A    
