data_mof_unit_56043.cif
_audit_creation_date              2012-12-10T17:03:55-0500
_audit_creation_method            fapswitch 2.2
_symmetry_space_group_name_H-M    P1
_symmetry_Int_Tables_number       1
_space_group_crystal_system       triclinic
_cell_length_a                    9.779226
_cell_length_b                    11.026164
_cell_length_c                    15.744285
_cell_angle_alpha                 94.876012
_cell_angle_beta                  78.303836
_cell_angle_gamma                 111.917042
_cell_volume                      1542.18293212

loop_
_atom_site_label
_atom_site_type_symbol
_atom_type_description
_atom_site_fract_x
_atom_site_fract_y
_atom_site_fract_z
_atom_type_partial_charge
C1    C     C_R   0.556130 0.746030 0.507874 0.817129
C2    C     C_R   0.442572 0.253865 0.494179 0.815853
C3    C     C_R   0.325283 0.470181 0.081781 -0.240066
C4    C     C_R   0.674642 0.531824 0.918206 -0.241030
C5    C     C_R   0.216765 0.439067 0.029598 0.433512
C6    C     C_R   0.783115 0.562421 0.970364 0.433615
C7    C     C_2   0.587008 0.886216 0.516389 0.018762
C8    C     C_2   0.408084 0.113246 0.491053 0.017671
C9    C     C_2   0.475369 0.928664 0.516207 -0.181605
C10   C     C_2   0.497384 0.066908 0.521241 -0.188234
C11   C     C_2   0.923213 0.489724 0.492508 -0.010914
C12   C     C_2   0.076761 0.510221 0.507533 -0.012021
C13   C     C_R   0.409791 0.487847 0.663566 0.842699
C14   C     C_R   0.590186 0.512079 0.336408 0.852214
C15   C     C_R   0.352908 0.479860 0.758315 -0.164256
C16   C     C_R   0.647020 0.520252 0.241609 -0.167126
C17   C     C_R   0.155153 0.407705 0.884962 -0.128933
C18   C     C_R   0.844761 0.592338 0.114927 -0.129108
C19   C     C_R   0.199675 0.414903 0.794948 0.106017
C20   C     C_R   0.800383 0.584458 0.204928 0.108232
C21   C     C_R   0.456846 0.534969 0.814278 0.081219
C22   C     C_R   0.542886 0.466156 0.185636 0.082239
C23   C     C_R   0.416330 0.497456 0.902130 0.011109
C24   C     C_R   0.583529 0.504128 0.097858 0.010867
C25   C     C_R   0.261860 0.447235 0.939120 -0.020143
C26   C     C_R   0.738008 0.553902 0.060836 -0.020207
C27   C     C_R   0.523576 0.510175 0.954577 0.020760
C28   C     C_R   0.476363 0.491814 0.045431 0.019960
Cu1   Cu    Cu3+1 0.362980 0.479380 0.485080 1.017378
Cu2   Cu    Cu3+1 0.637020 0.520620 0.514920 1.015196
H1    H     H_    0.036722 0.364786 0.912239 0.214595
H2    H     H_    0.963227 0.634731 0.087616 0.215086
H3    H     H_    0.289498 0.476624 0.151061 0.191025
H4    H     H_    0.710413 0.525467 0.848920 0.190653
H5    H     H_    0.590715 0.133619 0.549355 0.198889
H6    H     H_    0.364555 0.859027 0.510767 0.192153
H7    H     H_    0.122083 0.578720 0.557557 0.157993
H8    H     H_    0.877888 0.421201 0.442497 0.164851
H9    H     H_    0.111411 0.383768 0.415607 0.223025
H10   H     H_    0.888587 0.616235 0.584391 0.219452
N1    N     N_2   0.842890 0.551600 0.537350 -0.264468
N2    N     N_2   0.157110 0.448400 0.462650 -0.261510
O1    O     O_R   0.426810 0.668300 0.492040 -0.601386
O2    O     O_R   0.573190 0.331700 0.507960 -0.601490
O3    O     O_R   0.658240 0.703130 0.517240 -0.521858
O4    O     O_R   0.341760 0.296870 0.482760 -0.521412
O5    O     O_R   0.319390 0.472820 0.610170 -0.558373
O6    O     O_R   0.680610 0.527180 0.389830 -0.556016
O7    O     O_R   0.550820 0.507640 0.635370 -0.548608
O8    O     O_R   0.449180 0.492360 0.364630 -0.545379
O9    O     O_3   0.068617 0.415704 0.067241 -0.573926
C29   C     C_3   0.002843 0.288169 0.101252 0.048122
H11   H     H_    0.057469 0.278369 0.154465 0.177750
H12   H     H_    0.010663 0.214260 0.049472 0.146985
C30   C     C_3   0.837825 0.259770 0.138307 -0.702703
H13   H     H_    0.780406 0.272471 0.087510 0.258071
H14   H     H_    0.783203 0.157736 0.162072 0.211595
H15   H     H_    0.826491 0.327374 0.193372 0.252387
O10   O     O_3   0.931116 0.585190 0.932664 -0.573340
C31   C     C_3   0.997529 0.712712 0.898642 0.049426
H16   H     H_    0.990824 0.786743 0.950532 0.147477
H17   H     H_    0.942601 0.723117 0.845736 0.175963
C32   C     C_3   0.162142 0.740065 0.861009 -0.708659
H18   H     H_    0.172341 0.672146 0.805950 0.252038
H19   H     H_    0.217260 0.841997 0.837099 0.208823
H20   H     H_    0.219893 0.726984 0.911514 0.259687
I1    I     I_    0.358989 0.285446 0.223001 -0.368964
I2    I     I_    0.640219 0.715863 0.776506 -0.384655
I3    I     I_    0.977265 0.669802 0.276234 -0.289033
I4    I     I_    0.023429 0.326772 0.723424 -0.305081
I5    I     I_    0.222461 0.992629 0.433075 -0.227743
I6    I     I_    0.809372 0.013916 0.527085 -0.242228

loop_
_geom_bond_atom_site_label_1
_geom_bond_atom_site_label_2
_ccdc_geom_bond_type
C5    C25   A    
C11   H8    S    
C12   N2    D    
C11   C12   S    
C32   H19   S    
Cu2   N1    S    
C10   H5    S    
C14   C16   S    
C23   C27   A    
Cu1   N2    S    
C9    H6    S    
C9    C10   S    
Cu2   O3    S    
C18   C20   A    
C21   I2    S    
C18   C26   A    
C29   C30   S    
Cu1   O4    S    
C16   C20   A    
C17   C25   A    
C7    I6    S    
C4    C27   A    
C30   H13   S    
C30   H14   S    
C32   H20   S    
C29   H12   S    
O10   C31   S    
C1    O3    A    
C6    C26   A    
C2    O4    A    
C15   C19   A    
Cu2   O2    S    
Cu1   Cu2   S    
Cu1   O5    S    
C31   C32   S    
C13   O7    A    
C5    O9    S    
C31   H17   S    
C3    C28   A    
C17   C19   A    
Cu2   O7    S    
C24   C26   A    
C11   N1    D    
H9    N2    S    
C22   C24   A    
Cu1   O8    S    
C21   C23   A    
C13   C15   S    
C17   H1    S    
C4    H4    S    
C22   I1    S    
C18   H2    S    
C14   O8    A    
C32   H18   S    
C24   C28   A    
C15   C21   A    
C23   C25   A    
C29   H11   S    
C4    C6    A    
C12   H7    S    
C30   H15   S    
Cu2   O6    S    
C27   C28   A    
C7    C9    D    
C14   O6    A    
C3    H3    S    
C20   I3    S    
H10   N1    S    
C8    I5    S    
C16   C22   A    
C3    C5    A    
C2    C8    S    
C1    C7    S    
C13   O5    A    
C6    O10   S    
C1    O1    A    
C8    C10   D    
Cu1   O1    S    
O9    C29   S    
C2    O2    A    
C31   H16   S    
C19   I4    S    
