data_mof_unit_34891.cif
_audit_creation_date              2012-12-10T18:57:40-0500
_audit_creation_method            fapswitch 2.2
_symmetry_space_group_name_H-M    P1
_symmetry_Int_Tables_number       1
_space_group_crystal_system       triclinic
_cell_length_a                    10.946359
_cell_length_b                    10.828902
_cell_length_c                    9.604534
_cell_angle_alpha                 89.300017
_cell_angle_beta                  89.340505
_cell_angle_gamma                 91.932328
_cell_volume                      1137.67983312

loop_
_atom_site_label
_atom_site_type_symbol
_atom_type_description
_atom_site_fract_x
_atom_site_fract_y
_atom_site_fract_z
_atom_type_partial_charge
C1    C     C_R   0.502269 0.262570 0.500989 0.797625
C2    C     C_R   0.514200 0.129805 0.503619 -0.086982
C3    C     C_R   0.555108 0.068170 0.384669 -0.146066
C4    C     C_R   0.555349 0.939199 0.384102 -0.172889
C5    C     C_R   0.511142 0.870965 0.500245 -0.039736
C6    C     C_R   0.484577 0.934041 0.621655 -0.038898
C7    C     C_3   0.378936 0.922196 0.721780 -0.088625
C8    C     C_3   0.388258 0.062708 0.731357 0.332553
C9    C     C_R   0.526169 0.605599 0.069149 0.124534
C10   C     C_R   0.445263 0.404934 0.074072 0.236964
C11   C     C_R   0.448409 0.404707 0.925856 -0.113006
C12   C     C_R   0.264780 0.495766 0.500867 0.823848
C13   C     C_R   0.527660 0.604291 0.925098 0.147693
C14   C     C_3   0.624956 0.701751 0.907902 0.281580
C15   C     C_3   0.619702 0.710995 0.067849 -0.080039
C16   C     C_R   0.501998 0.737458 0.499435 0.826692
C17   C     C_R   0.734315 0.501287 0.499353 0.846489
C18   C     C_2   0.932084 0.474355 0.389931 -0.170059
C19   C     C_2   0.866012 0.512032 0.498272 -0.259243
C20   C     C_2   0.066019 0.495648 0.386235 0.430568
C21   C     C_2   0.131186 0.474753 0.503057 0.228412
C22   C     C_R   0.491433 0.060990 0.625764 -0.033513
Cu1   Cu    Cu3+1 0.499990 0.499980 0.640670 0.987680
Cu2   Cu    Cu3+1 0.500010 0.500020 0.359330 1.021804
H1    H     H_    0.886875 0.434991 0.299879 0.163024
H2    H     H_    0.404099 0.330380 0.870028 0.205814
H3    H     H_    0.591593 0.784078 0.851298 0.036502
H4    H     H_    0.575730 0.797772 0.096684 0.080524
H5    H     H_    0.908874 0.556136 0.586557 0.167243
H6    H     H_    0.583400 0.118948 0.291260 0.161291
H7    H     H_    0.586767 0.893632 0.292374 0.161931
H8    H     H_    0.401860 0.873259 0.819799 0.158705
H9    H     H_    0.307234 0.109850 0.690339 0.138498
N1    N     N_R   0.500780 0.500930 0.147930 -0.183509
N2    N     N_R   0.500780 0.500890 0.852020 -0.187018
O1    O     O_R   0.500000 0.319640 0.618810 -0.593010
O2    O     O_R   0.500010 0.319680 0.381230 -0.566697
O3    O     O_R   0.321940 0.499980 0.618760 -0.591887
O4    O     O_R   0.321950 0.500020 0.381180 -0.526808
O5    O     O_R   0.499990 0.680320 0.618770 -0.589856
O6    O     O_R   0.500000 0.680360 0.381190 -0.568435
O7    O     O_R   0.678050 0.499980 0.618820 -0.534918
O8    O     O_R   0.678060 0.500020 0.381240 -0.559092
O9    O     O_3   0.416285 0.102370 0.868922 -0.564855
C23   C     C_3   0.541391 0.097147 0.903469 -0.268477
H10   H     H_    0.596779 0.167612 0.843183 0.183115
H11   H     H_    0.577142 0.003523 0.888212 0.136188
H12   H     H_    0.551452 0.118992 0.015312 0.190720
I1    I     I_    0.327169 0.263777 0.161294 -0.330154
O10   O     O_3   0.734170 0.651831 0.856813 -0.520528
C24   C     C_3   0.806759 0.746434 0.791818 -0.222397
H13   H     H_    0.820317 0.827608 0.860737 0.169472
H14   H     H_    0.765502 0.775247 0.691729 0.149486
H15   H     H_    0.898275 0.710353 0.768603 0.181269
I2    I     I_    0.790599 0.691893 0.169469 -0.343872
O11   O     O_3   0.122250 0.553230 0.270529 -0.555693
C25   C     C_3   0.087097 0.494753 0.145964 -0.243375
H16   H     H_    0.000163 0.531179 0.107776 0.195975
H17   H     H_    0.078984 0.392318 0.157190 0.159160
H18   H     H_    0.158174 0.516388 0.065230 0.182933
O12   O     O_3   0.075593 0.408185 0.613401 -0.595493
C26   C     C_3   0.091613 0.469233 0.741584 -0.289401
H19   H     H_    0.104082 0.571501 0.730429 0.161320
H20   H     H_    0.169308 0.430131 0.798631 0.196184
H21   H     H_    0.008469 0.451240 0.806841 0.193946
I3    I     I_    0.211519 0.856631 0.628961 -0.395212

loop_
_geom_bond_atom_site_label_1
_geom_bond_atom_site_label_2
_ccdc_geom_bond_type
C2    C22   A    
C3    H6    S    
C8    C22   S    
Cu1   Cu2   S    
C17   O8    A    
C26   H19   S    
Cu1   O1    S    
C14   H3    S    
Cu1   O3    S    
C21   O12   S    
C11   H2    S    
C1    O2    A    
C20   O11   S    
C24   H15   S    
C12   O4    A    
C11   N2    A    
O10   C24   S    
C9    C15   S    
C7    C8    S    
C10   N1    A    
C13   C14   S    
O11   C25   S    
C7    I3    S    
Cu2   O6    S    
C18   H1    S    
C25   H16   S    
C14   O10   S    
Cu1   O7    S    
C16   O5    A    
C5    C6    A    
C16   O6    A    
C17   C19   S    
C9    N1    A    
C13   N2    A    
C6    C7    S    
C2    C3    A    
C8    H9    S    
C23   H11   S    
C12   O3    A    
O12   C26   S    
Cu1   N2    S    
C25   H17   S    
C4    H7    S    
C10   C11   A    
C15   H4    S    
Cu1   O5    S    
C19   H5    S    
C23   H10   S    
Cu2   O4    S    
C24   H13   S    
C20   C21   D    
C3    C4    A    
C18   C20   S    
Cu2   O2    S    
C1    C2    S    
C23   H12   S    
Cu2   O8    S    
C9    C13   A    
C17   O7    A    
C18   C19   D    
C25   H18   S    
C26   H20   S    
C7    H8    S    
C26   H21   S    
C24   H14   S    
C14   C15   S    
C10   I1    S    
C12   C21   S    
Cu2   N1    S    
O9    C23   S    
C8    O9    S    
C1    O1    A    
C15   I2    S    
C4    C5    A    
C5    C16   S    
C6    C22   A    
