data_mof_unit_26218.cif
_audit_creation_date              2012-12-11T14:06:47-0500
_audit_creation_method            fapswitch 2.2
_symmetry_space_group_name_H-M    P1
_symmetry_Int_Tables_number       1
_space_group_crystal_system       triclinic
_cell_length_a                    6.924629
_cell_length_b                    17.312945
_cell_length_c                    24.09755
_cell_angle_alpha                 104.420644
_cell_angle_beta                  90.377642
_cell_angle_gamma                 89.796711
_cell_volume                      2797.86517139

loop_
_atom_site_label
_atom_site_type_symbol
_atom_type_description
_atom_site_fract_x
_atom_site_fract_y
_atom_site_fract_z
_atom_type_partial_charge
O1    O     O_R   0.494290 0.391990 0.999150 -0.494124
O2    O     O_R   0.827170 0.534410 0.082350 -0.546628
O3    O     O_R   0.994360 0.608010 0.000850 -0.539468
C1    C     C_R   0.658421 0.549688 0.106182 0.689931
O4    O     O_R   0.824210 0.388010 0.004470 -0.547942
O5    O     O_R   0.991370 0.460560 0.922410 -0.534813
C2    C     C_R   0.654266 0.354785 0.001239 0.813691
O6    O     O_R   0.497270 0.539440 0.077590 -0.545746
O7    O     O_3   0.659770 0.523970 0.973170 -0.372819
V1    V     V_3+5 0.935840 0.495550 0.004980 1.465055
O8    O     O_R   0.320910 0.465590 0.917650 -0.532555
C3    C     C_R   0.151451 0.452068 0.893854 0.747348
O9    O     O_R   0.323870 0.611990 0.995530 -0.553415
C4    C     C_R   0.154235 0.645078 0.998496 0.750516
V2    V     V_3+5 0.435470 0.504450 0.995020 1.487443
O10   O     O_3   0.161670 0.476030 0.026830 -0.361139
C5    C     C_2   0.142667 0.730143 0.998052 -0.331563
H1    H     H_    0.277115 0.760756 0.994638 0.149977
C6    C     C_2   0.972885 0.769877 0.002023 -0.333055
H2    H     H_    0.838438 0.739259 0.005432 0.150133
C7    C     C_R   0.134030 0.248420 0.625124 0.668326
N1    N     N_R   0.099373 0.327822 0.648566 -0.542147
C8    C     C_R   0.049887 0.377830 0.614585 0.655038
C9    C     C_R   0.050616 0.350131 0.554064 -0.141589
C10   C     C_R   0.071871 0.267293 0.530070 -0.052738
C11   C     C_R   0.110960 0.215908 0.565895 -0.021527
C12   C     C_R   0.026095 0.401381 0.516581 0.364887
C13   C     C_R   0.010804 0.369001 0.457430 -0.092265
C14   C     C_R   0.024629 0.286491 0.433695 -0.113679
C15   C     C_R   0.053365 0.235446 0.470107 -0.015938
C16   C     C_R   0.062108 0.152405 0.446645 -0.026965
C17   C     C_R   0.097903 0.101850 0.483027 -0.102168
C18   C     C_R   0.125550 0.133351 0.541784 -0.068229
C19   C     C_R   0.014650 0.253853 0.374031 0.627744
N2    N     N_R   0.020375 0.172695 0.351640 -0.544670
C20   C     C_R   0.035274 0.122014 0.387190 0.654504
O11   O     O_2   0.188576 0.200888 0.659124 -0.480751
O12   O     O_2   0.996940 0.453465 0.639573 -0.477835
H3    H     H_    0.991708 0.409429 0.429964 0.206730
O13   O     O_2   0.000825 0.303102 0.338700 -0.502052
O14   O     O_2   0.023436 0.042479 0.365219 -0.489058
H4    H     H_    0.107137 0.037829 0.466146 0.179029
H5    H     H_    0.154563 0.092577 0.568410 0.194754
C21   C     C_R   0.155675 0.094928 0.258427 0.228475
C22   C     C_R   0.138747 0.067051 0.198812 -0.231029
H6    H     H_    0.254597 0.031101 0.175566 0.179102
C23   C     C_R   0.975307 0.084654 0.169113 -0.196067
C24   C     C_R   0.827655 0.133280 0.200823 0.338373
C25   C     C_R   0.843436 0.158979 0.260567 -0.071620
H7    H     H_    0.729782 0.195797 0.284283 0.181968
C26   C     C_R   0.005956 0.140832 0.290102 0.238074
C27   C     C_R   0.264467 0.412871 0.733763 0.207911
C28   C     C_R   0.275247 0.446378 0.793279 0.310904
C29   C     C_R   0.139421 0.423600 0.830268 -0.225494
C30   C     C_R   0.990465 0.370839 0.805989 -0.239356
H8    H     H_    0.884705 0.353076 0.833323 0.170056
C31   C     C_R   0.976784 0.339186 0.746788 0.220613
C32   C     C_R   0.114410 0.359509 0.709997 0.195672
C33   C     C_R   0.544571 0.878352 0.614403 0.614897
N3    N     N_R   0.503433 0.827639 0.648302 -0.572686
C34   C     C_R   0.479316 0.747672 0.625138 0.613785
C35   C     C_R   0.498675 0.715292 0.565747 -0.058786
C36   C     C_R   0.542283 0.765969 0.529994 -0.048845
C37   C     C_R   0.564302 0.849151 0.554078 -0.074850
C38   C     C_R   0.476385 0.633168 0.541745 -0.195864
C39   C     C_R   0.496805 0.600010 0.482480 0.418451
C40   C     C_R   0.540934 0.650260 0.445986 -0.072780
C41   C     C_R   0.563622 0.733184 0.470056 -0.083394
C42   C     C_R   0.607543 0.783498 0.434151 -0.048425
C43   C     C_R   0.627414 0.865643 0.457956 -0.151203
C44   C     C_R   0.605491 0.898976 0.516719 0.185519
C45   C     C_R   0.562797 0.620382 0.385854 0.634650
N4    N     N_R   0.605633 0.670644 0.351762 -0.578868
C46   C     C_R   0.628634 0.750769 0.374788 0.597985
O15   O     O_2   0.566179 0.956479 0.639475 -0.472515
O16   O     O_2   0.438780 0.699334 0.659634 -0.495020
H9    H     H_    0.443065 0.594106 0.569192 0.175492
O17   O     O_2   0.542173 0.541793 0.361488 -0.459016
O18   O     O_2   0.669766 0.798937 0.340223 -0.497726
H10   H     H_    0.659364 0.904985 0.430613 0.202269
C47   C     C_R   0.800782 0.633107 0.263093 -0.068183
H11   H     H_    0.930544 0.651562 0.288125 0.120586
C48   C     C_R   0.814131 0.603376 0.203432 -0.186645
H12   H     H_    0.954850 0.599772 0.183618 0.126105
C49   C     C_R   0.647199 0.579640 0.169815 -0.054172
C50   C     C_R   0.467245 0.585763 0.197655 -0.184085
H13   H     H_    0.335547 0.567993 0.173441 0.131559
C51   C     C_R   0.454477 0.614878 0.257194 -0.079439
H14   H     H_    0.314544 0.619261 0.277551 0.118059
C52   C     C_R   0.620765 0.639076 0.290394 0.369311
C53   C     C_R   0.310916 0.865967 0.737375 -0.067253
H15   H     H_    0.180304 0.848191 0.712609 0.120181
C54   C     C_R   0.299174 0.896179 0.796996 -0.183836
H16   H     H_    0.158735 0.900730 0.817053 0.126611
C55   C     C_R   0.467151 0.919343 0.830258 -0.059187
C56   C     C_R   0.646639 0.911947 0.802112 -0.183374
H17   H     H_    0.779053 0.929206 0.826068 0.130927
C57   C     C_R   0.657835 0.882292 0.742576 -0.070979
H18   H     H_    0.797330 0.877115 0.721915 0.118162
C58   C     C_R   0.490376 0.858834 0.709745 0.373885
C59   C     C_2   0.639232 0.269737 0.002049 -0.356006
H19   H     H_    0.771852 0.239645 0.008970 0.103881
C60   C     C_2   0.468444 0.229639 0.994884 0.189184
O19   O     O_R   0.618210 0.960470 0.922400 -0.541703
O20   O     O_R   0.291310 0.111960 0.995450 -0.547298
O21   O     O_R   0.124210 0.039530 0.077580 -0.532430
C61   C     C_R   0.460274 0.144831 0.997542 0.669323
O22   O     O_R   0.288310 0.965490 0.917650 -0.543064
O23   O     O_R   0.121180 0.892010 0.999220 -0.537228
C62   C     C_R   0.456912 0.949970 0.893839 0.705767
O24   O     O_R   0.621230 0.107990 0.000760 -0.549254
O25   O     O_3   0.455770 0.976060 0.026840 -0.362293
V3    V     V_3+5 0.179680 0.004440 0.995020 1.431486
O26   O     O_R   0.791670 0.888040 0.004570 -0.545496
C63   C     C_R   0.961308 0.854944 0.001582 0.773845
O27   O     O_R   0.794680 0.034510 0.082370 -0.533014
C64   C     C_R   0.963607 0.051947 0.105845 0.720961
V4    V     V_3+5 0.680070 0.995560 0.005010 1.438400
O28   O     O_3   0.953840 0.023940 0.973160 -0.377214
I1    I     I_    0.476206 0.446572 0.680293 -0.201520
O29   O     O_3   0.417296 0.502275 0.813286 -0.606139
H20   H     H_    0.368964 0.541056 0.847834 0.292295
I2    I     I_    0.742658 0.261103 0.715734 -0.228906
O30   O     O_3   0.474137 0.518899 0.459913 -0.589144
H21   H     H_    0.444351 0.492847 0.491132 0.299811
I3    I     I_    0.635285 0.025678 0.540957 -0.299830
O31   O     O_3   0.301140 0.268475 0.984737 -0.624248
H22   H     H_    0.190858 0.231084 0.977633 0.292245
O32   O     O_3   0.023910 0.483279 0.535435 -0.608880
H23   H     H_    0.130077 0.498651 0.563757 0.324692
I4    I     I_    0.415406 0.068051 0.297048 -0.299475
O33   O     O_3   0.669025 0.159197 0.175544 -0.625720
H24   H     H_    0.705854 0.164373 0.137034 0.287862

loop_
_geom_bond_atom_site_label_1
_geom_bond_atom_site_label_2
_ccdc_geom_bond_type
O25   V4    S    
C30   H8    S    
C59   H19   S    
N4    C46   A    
C55   C56   A    
C9    C12   A    
C1    O6    A    
O26   C63   A    
V1    O10   S    
C49   C50   A    
C21   C22   A    
C21   I4    S    
O20   C61   A    
C33   C37   A    
C14   C15   A    
O24   V4    S    
C19   O13   S    
O20   V3    S    
C13   C14   A    
N4    C52   S    
C19   N2    A    
O5    C3    A    
C15   C16   A    
C50   C51   A    
C31   I2    S    
V2    O10   S    
O27   C64   A    
C40   C45   A    
C37   C44   A    
V4    O28   S    
C45   O17   S    
V3    O28   S    
O8    V2    S    
C23   C24   A    
O22   C62   A    
O33   H24   S    
C25   C26   A    
C56   C57   A    
C8    C9    A    
C44   I3    S    
C43   C44   A    
O1    V2    S    
C53   C58   A    
C60   O31   S    
O7    V1    S    
O23   V3    S    
C39   C40   A    
C33   N3    A    
C59   C60   D    
O9    C4    A    
C4    C5    S    
C20   O14   S    
C42   C43   A    
N1    C8    A    
O25   V3    S    
C47   C48   A    
C7    C11   A    
C47   H11   S    
O19   V4    S    
C22   C23   A    
C34   O16   S    
C38   H9    S    
O21   V3    S    
C43   H10   S    
C40   C41   A    
C18   H5    S    
C9    C10   A    
C53   H15   S    
O4    C2    A    
C50   H13   S    
C41   C42   A    
C1    C49   S    
C13   H3    S    
C10   C11   A    
C22   H6    S    
C14   C19   A    
N3    C34   A    
N2    C20   A    
O22   V3    S    
O2    C1    A    
O5    V1    S    
C35   C36   A    
C53   C54   A    
C11   C18   A    
C48   H12   S    
C6    C63   S    
C56   H17   S    
C5    H1    S    
C42   C46   A    
C54   H16   S    
O29   H20   S    
O26   V4    S    
O3    C4    A    
C27   C32   A    
C47   C52   A    
C27   I1    S    
C21   C26   A    
C24   C25   A    
C48   C49   A    
C51   C52   A    
C25   H7    S    
O6    V2    S    
C57   C58   A    
C46   O18   S    
O9    V2    S    
O21   C64   A    
N2    C26   S    
C12   O32   S    
C39   O30   S    
O31   H22   S    
O2    V1    S    
C33   O15   S    
C27   C28   A    
O32   H23   S    
C10   C15   A    
C29   C30   A    
C35   C38   A    
O1    C2    A    
C61   O24   A    
C16   C17   A    
C45   N4    A    
N3    C58   S    
C55   C62   S    
N1    C32   S    
O8    C3    A    
C28   C29   A    
C8    O12   S    
C36   C41   A    
C17   C18   A    
C6    H2    S    
C30   C31   A    
O7    V2    S    
O4    V1    S    
O3    V1    S    
C28   O29   S    
O19   C62   A    
C31   C32   A    
C5    C6    D    
O27   V4    S    
C38   C39   A    
C34   C35   A    
O23   C63   A    
C36   C37   A    
C23   C64   S    
C7    O11   S    
C51   H14   S    
C54   C55   A    
C57   H18   S    
C2    C59   S    
C12   C13   A    
C17   H4    S    
C16   C20   A    
C24   O33   S    
C60   C61   S    
C7    N1    A    
C3    C29   S    
O30   H21   S    
