data_mof_unit_29859.cif
_audit_creation_date              2012-12-10T16:51:30-0500
_audit_creation_method            fapswitch 2.2
_symmetry_space_group_name_H-M    P1
_symmetry_Int_Tables_number       1
_space_group_crystal_system       triclinic
_cell_length_a                    7.859075
_cell_length_b                    8.561941
_cell_length_c                    12.041032
_cell_angle_alpha                 92.749891
_cell_angle_beta                  101.154863
_cell_angle_gamma                 94.063509
_cell_volume                      791.346256013

loop_
_atom_site_label
_atom_site_type_symbol
_atom_type_description
_atom_site_fract_x
_atom_site_fract_y
_atom_site_fract_z
_atom_type_partial_charge
C1    C     C_R   0.044456 0.794579 0.497362 0.976546
C2    C     C_R   0.397178 0.484734 0.990252 0.079695
C3    C     C_R   0.310042 0.433020 0.880252 0.091622
C4    C     C_R   0.570855 0.447565 0.025746 0.036449
C5    C     C_R   0.635881 0.326234 0.964873 0.147910
C6    C     C_R   0.535939 0.258062 0.863621 -0.209690
C7    C     C_R   0.376447 0.313395 0.820184 -0.171933
C8    C     C_R   0.683935 0.528069 0.118459 -0.070737
C9    C     C_R   0.893552 0.334768 0.111754 -0.198231
C10   C     C_R   0.158713 0.503430 0.833099 -0.120116
C11   C     C_2   0.067654 0.958315 0.496030 -0.377596
C12   C     C_R   0.105842 0.504086 0.710571 0.857397
C13   C     C_2   0.932580 0.041720 0.504502 -0.362170
C14   C     C_R   0.955609 0.205424 0.502795 0.931847
C15   C     C_R   0.892953 0.489015 0.289550 0.860091
C16   C     C_R   0.799351 0.273688 0.007037 -0.176973
C17   C     C_R   0.832245 0.458797 0.168709 -0.111948
C18   C     C_R   0.072351 0.591556 0.902949 -0.170039
C19   C     C_R   0.142493 0.617292 0.017981 -0.129965
C20   C     C_R   0.304829 0.566102 0.061578 -0.173721
H1    H     H_    0.009951 0.281552 0.150130 0.162930
H2    H     H_    0.805235 0.990412 0.512558 0.205545
H3    H     H_    0.469301 0.372229 0.417498 0.148294
H4    H     H_    0.582833 0.164593 0.816653 0.162206
H5    H     H_    0.848913 0.179321 0.962597 0.145880
H6    H     H_    0.953129 0.643264 0.868258 0.177378
H7    H     H_    0.354141 0.586745 0.151662 0.154663
H8    H     H_    0.074113 0.681846 0.072666 0.150094
H9    H     H_    0.303090 0.258308 0.740906 0.162128
H10   H     H_    0.195034 0.009618 0.488056 0.190547
N1    N     N_2   0.434800 0.456690 0.470850 -0.111514
N2    N     N_2   0.565200 0.543310 0.529150 0.107921
O1    O     O_R   0.893060 0.738880 0.507150 -0.587619
O2    O     O_R   0.172250 0.711130 0.488470 -0.568240
O3    O     O_R   0.944700 0.520730 0.667600 -0.599457
O4    O     O_R   0.223890 0.492980 0.648920 -0.560786
O5    O     O_R   0.827750 0.288870 0.511530 -0.632969
O6    O     O_R   0.106940 0.261120 0.492850 -0.627875
O7    O     O_R   0.776110 0.507020 0.351080 -0.621441
O8    O     O_R   0.055300 0.479270 0.332400 -0.629205
Zn1   Zn    Zn3+2 0.813580 0.518530 0.512470 1.019017
Zn2   Zn    Zn3+2 0.186420 0.481470 0.487530 1.000226
Cl1   Cl    Cl    0.522243 0.691842 0.619147 -0.503752
C21   C     C_1   0.661828 0.687734 0.156564 0.149075
N3    N     N_1   0.645183 0.815044 0.187015 -0.201482

loop_
_geom_bond_atom_site_label_1
_geom_bond_atom_site_label_2
_ccdc_geom_bond_type
C13   H2    S    
C2    C4    A    
N2    Zn1   S    
C6    C7    A    
C7    H9    S    
C20   H7    S    
C14   O6    A    
O4    Zn2   S    
C8    C17   A    
O2    Zn2   S    
C4    C8    A    
C6    H4    S    
O8    Zn2   S    
C2    C3    A    
C1    O1    A    
O7    Zn1   S    
C3    C10   A    
C13   C14   S    
C21   N3    T    
C14   O5    A    
C19   H8    S    
C11   C13   D    
C15   O7    A    
C10   C12   S    
C10   C18   A    
C9    C17   A    
N1    Zn2   S    
C9    C16   A    
C1    O2    A    
O6    Zn2   S    
C3    C7    A    
O5    Zn1   S    
C5    C6    A    
O3    Zn1   S    
C15   O8    A    
C12   O4    A    
C2    C20   A    
C9    H1    S    
C8    C21   S    
O1    Zn1   S    
C18   C19   A    
C16   H5    S    
C15   C17   S    
C5    C16   A    
C1    C11   S    
N2    Cl1   S    
N1    N2    D    
C19   C20   A    
C11   H10   S    
H3    N1    S    
C4    C5    A    
C12   O3    A    
C18   H6    S    
