data_mof_unit_24004.cif
_audit_creation_date              2012-12-10T18:23:11-0500
_audit_creation_method            fapswitch 2.2
_symmetry_space_group_name_H-M    P1
_symmetry_Int_Tables_number       1
_space_group_crystal_system       triclinic
_cell_length_a                    14.933366
_cell_length_b                    14.049249
_cell_length_c                    10.539775
_cell_angle_alpha                 89.635836
_cell_angle_beta                  88.842798
_cell_angle_gamma                 90.628613
_cell_volume                      2210.64006279

loop_
_atom_site_label
_atom_site_type_symbol
_atom_type_description
_atom_site_fract_x
_atom_site_fract_y
_atom_site_fract_z
_atom_type_partial_charge
C1    C     C_R   0.327003 0.499554 0.501679 0.921052
C2    C     C_R   0.960702 0.570075 0.284921 0.050337
C3    C     C_R   0.530251 0.799053 0.395408 -0.035059
C4    C     C_R   0.471092 0.200984 0.605294 -0.046189
C5    C     C_R   0.469566 0.797253 0.604677 -0.026788
C6    C     C_R   0.529762 0.202773 0.394941 -0.035938
C7    C     C_R   0.469118 0.898000 0.608078 0.010251
C8    C     C_R   0.530571 0.102041 0.391737 0.013248
C9    C     C_R   0.530747 0.899775 0.391972 0.014080
C10   C     C_R   0.469798 0.100272 0.608306 0.014042
C11   C     C_R   0.499956 0.949534 0.500005 -0.010429
C12   C     C_R   0.672816 0.500430 0.500353 0.885744
C13   C     C_R   0.500044 0.050507 0.499979 -0.007716
C14   C     C_R   0.438714 0.947730 0.716524 0.055228
C15   C     C_R   0.561028 0.052333 0.283322 0.050669
C16   C     C_R   0.561199 0.951175 0.283478 0.049635
C17   C     C_R   0.439126 0.048891 0.716672 0.052373
C18   C     C_R   0.504405 0.500455 0.257327 0.865374
C19   C     C_R   0.496550 0.499677 0.742532 0.889283
C20   C     C_3   0.419409 0.521128 0.048805 -0.225058
C21   C     C_3   0.583076 0.479717 0.949797 -0.239039
C22   C     C_3   0.475389 0.587048 0.957874 -0.158101
C23   C     C_R   0.952884 0.508049 0.504174 -0.029774
C24   C     C_3   0.527261 0.413675 0.041118 -0.216872
C25   C     C_3   0.442947 0.435250 0.966178 0.147576
C26   C     C_3   0.559819 0.565780 0.032610 0.159760
C27   C     C_3   0.497388 0.499492 0.876859 -0.009494
C28   C     C_3   0.505195 0.501356 0.122517 -0.033909
C29   C     C_R   0.815532 0.522222 0.385782 0.154969
C30   C     C_R   0.184537 0.464972 0.612046 0.148331
C31   C     C_R   0.768022 0.501918 0.498423 -0.089024
C32   C     C_R   0.231530 0.499364 0.505234 -0.119487
C33   C     C_R   0.810025 0.482763 0.610985 -0.289906
C34   C     C_R   0.046522 0.507741 0.507703 -0.054035
C35   C     C_R   0.189078 0.538257 0.402364 -0.275403
C36   C     C_R   0.902727 0.482064 0.614896 0.078127
C37   C     C_R   0.096500 0.539842 0.399872 0.098399
C38   C     C_3   0.761956 0.431554 0.209165 -0.829809
C39   C     C_3   0.230074 0.315550 0.711354 -0.686550
C40   C     C_R   0.909226 0.533230 0.389605 0.038017
C41   C     C_R   0.090487 0.474512 0.618212 0.034441
C42   C     C_R   0.945861 0.457156 0.727870 0.049930
C43   C     C_R   0.053921 0.573843 0.291453 0.088961
C44   C     C_R   0.039240 0.452684 0.729528 0.104258
H1    H     H_    0.352658 0.536380 0.091897 0.141456
H2    H     H_    0.553167 0.244132 0.313762 0.158310
H3    H     H_    0.414734 0.307166 0.888377 0.194485
H4    H     H_    0.345847 0.337445 0.008190 0.185433
H5    H     H_    0.688005 0.610323 0.063733 0.183309
H6    H     H_    0.610233 0.662766 0.156800 0.185938
H7    H     H_    0.709377 0.558995 0.272479 0.216749
H8    H     H_    0.716925 0.383725 0.266260 0.256446
H9    H     H_    0.828948 0.398505 0.198541 0.256144
H10   H     H_    0.733816 0.440088 0.113298 0.235065
H11   H     H_    0.242289 0.453943 0.792905 0.245071
H12   H     H_    0.649473 0.464294 0.905697 0.126727
H13   H     H_    0.298866 0.287772 0.701307 0.242603
H14   H     H_    0.189523 0.286355 0.632920 0.230725
H15   H     H_    0.201018 0.289990 0.803271 0.224517
H16   H     H_    0.857722 0.493912 0.868549 0.182346
H17   H     H_    0.854318 0.376519 0.827339 0.187017
H18   H     H_    0.087011 0.682096 0.170416 0.206270
H19   H     H_    0.091910 0.571997 0.105653 0.190967
H20   H     H_    0.057667 0.363319 0.878275 0.202795
H21   H     H_    0.062644 0.480662 0.914235 0.190662
H22   H     H_    0.894194 0.556326 0.118305 0.223665
H23   H     H_    0.455349 0.657872 0.921442 0.153704
H24   H     H_    0.872645 0.659814 0.200460 0.204531
H25   H     H_    0.341341 0.913366 0.846537 0.186711
H26   H     H_    0.447064 0.913734 0.903346 0.180614
H27   H     H_    0.658135 0.087169 0.153105 0.187632
H28   H     H_    0.552371 0.085974 0.096415 0.176715
H29   H     H_    0.658529 0.919910 0.153558 0.188479
H30   H     H_    0.552837 0.918852 0.096602 0.182011
H31   H     H_    0.341554 0.080707 0.845992 0.185650
H32   H     H_    0.447045 0.080830 0.903744 0.177604
H33   H     H_    0.547292 0.342787 0.077329 0.154609
H34   H     H_    0.768849 0.466539 0.694320 0.135804
H35   H     H_    0.229467 0.564214 0.322408 0.172237
H36   H     H_    0.553898 0.759172 0.314630 0.154961
H37   H     H_    0.449428 0.240939 0.687080 0.153248
H38   H     H_    0.445635 0.755904 0.685566 0.160953
N1    N     N_R   0.500000 0.750030 0.500000 -0.121063
N2    N     N_3   0.921181 0.610307 0.173890 -0.476329
N3    N     N_3   0.407719 0.895059 0.826326 -0.488796
N4    N     N_3   0.591649 0.105032 0.173338 -0.493010
N5    N     N_3   0.592059 0.900177 0.173672 -0.480583
N6    N     N_3   0.408231 0.099910 0.826434 -0.501598
N7    N     N_R   0.500000 0.249970 0.500000 -0.119462
N8    N     N_3   0.378448 0.363699 0.926374 -0.467824
N9    N     N_3   0.624239 0.640027 0.064746 -0.458962
N10   N     N_2   0.769414 0.523748 0.268848 -0.338288
N11   N     N_2   0.233613 0.418663 0.708536 -0.297527
N12   N     N_3   0.896294 0.435145 0.842926 -0.487407
N13   N     N_3   0.106150 0.611734 0.186392 -0.475243
N14   N     N_3   0.081278 0.429927 0.846885 -0.463509
O1    O     O_R   0.367850 0.580280 0.500030 -0.620584
O2    O     O_R   0.632150 0.419720 0.499970 -0.614701
O3    O     O_R   0.632150 0.580280 0.499970 -0.624028
O4    O     O_R   0.367850 0.419720 0.500030 -0.597910
O5    O     O_R   0.499970 0.580260 0.313950 -0.640954
O6    O     O_R   0.500030 0.419740 0.686050 -0.627411
O7    O     O_R   0.500030 0.580260 0.686050 -0.636294
O8    O     O_R   0.499970 0.419740 0.313950 -0.632199
Zn1   Zn    Zn3+2 0.500000 0.607200 0.500000 0.940995
Zn2   Zn    Zn3+2 0.500000 0.392800 0.500000 0.945016

loop_
_geom_bond_atom_site_label_1
_geom_bond_atom_site_label_2
_ccdc_geom_bond_type
C21   C26   S    
C8    C13   A    
H19   N13   S    
C34   C37   A    
C2    N2    S    
H11   N11   S    
O8    Zn2   S    
C7    C11   A    
C25   N8    S    
C3    C9    A    
C35   C37   A    
C9    C16   A    
C30   N11   S    
C5    N1    A    
C19   O6    A    
C33   H34   S    
C38   H8    S    
C20   C25   S    
C10   C17   A    
C23   C40   A    
C39   H13   S    
C38   N10   S    
C33   C36   A    
C39   N11   S    
C12   O3    A    
C19   O7    A    
H21   N14   S    
H29   N5    S    
C4    H37   S    
N7    Zn2   S    
C16   N5    S    
C43   N13   S    
C31   C33   A    
C30   C41   A    
H30   N5    S    
C19   C27   S    
H32   N6    S    
C12   O2    A    
C20   H1    S    
O1    Zn1   S    
C21   C27   S    
H4    N8    S    
H18   N13   S    
C14   C17   A    
C34   C41   A    
C42   C44   A    
H5    N9    S    
C3    H36   S    
C1    O4    A    
C7    C14   A    
O5    Zn1   S    
O3    Zn1   S    
H24   N2    S    
C32   C35   A    
C18   C28   S    
C24   C25   S    
H20   N14   S    
C1    O1    A    
C5    C7    A    
H17   N12   S    
C6    C8    A    
C20   C28   S    
C26   N9    S    
C39   H14   S    
C1    C32   S    
N1    Zn1   S    
C18   O5    A    
C37   C43   A    
C44   N14   S    
H7    N10   S    
H27   N4    S    
H6    N9    S    
C38   H10   S    
C2    C43   A    
C23   C34   A    
C39   H15   S    
O7    Zn1   S    
C18   O8    A    
C9    C11   A    
C15   N4    S    
C20   C22   S    
C8    C15   A    
C22   C27   S    
C12   C31   S    
C3    N1    A    
C41   C44   A    
C4    C10   A    
H25   N3    S    
C4    N7    A    
C6    H2    S    
C42   N12   S    
O4    Zn2   S    
C17   N6    S    
C24   C28   S    
C14   N3    S    
C10   C13   A    
C36   C42   A    
C21   H12   S    
H28   N4    S    
C25   C27   S    
C6    N7    A    
C26   C28   S    
O2    Zn2   S    
C29   C31   A    
C30   C32   A    
C5    H38   S    
C11   C13   A    
C38   H9    S    
C29   C40   A    
C35   H35   S    
H3    N8    S    
O6    Zn2   S    
C22   H23   S    
H22   N2    S    
C2    C40   A    
H31   N6    S    
C23   C36   A    
C22   C26   S    
C21   C24   S    
C24   H33   S    
H26   N3    S    
C29   N10   S    
C15   C16   A    
H16   N12   S    
