data_mof_unit_46890.cif
_audit_creation_date              2013-03-05T15:46:34-0500
_audit_creation_method            fapswitch 2.2
_symmetry_space_group_name_H-M    P1
_symmetry_Int_Tables_number       1
_space_group_crystal_system       triclinic
_cell_length_a                    10.145572
_cell_length_b                    10.50897
_cell_length_c                    10.882953
_cell_angle_alpha                 89.715801
_cell_angle_beta                  95.226147
_cell_angle_gamma                 80.00627
_cell_volume                      1137.72351722

loop_
_atom_site_label
_atom_site_type_symbol
_atom_site_description
_atom_site_fract_x
_atom_site_fract_y
_atom_site_fract_z
_atom_type_partial_charge
O1    O     O_R   0.568940 0.489660 0.307530 -0.608079
O2    O     O_R   0.431060 0.510340 0.692470 -0.607965
O3    O     O_R   0.348880 0.522640 0.340350 -0.585913
O4    O     O_R   0.651120 0.477360 0.659650 -0.586215
C1    C     C_R   0.443699 0.506338 0.267664 0.969834
C2    C     C_R   0.556300 0.493535 0.732345 0.969507
O5    O     O_R   0.610030 0.300280 0.483580 -0.594965
O6    O     O_R   0.389970 0.699720 0.516420 -0.594847
O7    O     O_R   0.389970 0.333270 0.516400 -0.612025
O8    O     O_R   0.610030 0.666730 0.483600 -0.612150
C3    C     C_R   0.507207 0.258265 0.517962 0.916373
C4    C     C_R   0.492746 0.741665 0.481839 0.917410
Zn1   Zn    Zn3+2 0.646940 0.477980 0.478080 1.037502
Zn2   Zn    Zn3+2 0.353060 0.522020 0.521920 1.037608
C5    C     C_R   0.757743 0.061664 0.484577 0.275450
C6    C     C_R   0.241907 0.938251 0.514190 0.275100
C7    C     C_R   0.835889 0.006813 0.392405 -0.287201
C8    C     C_R   0.163611 0.993200 0.606217 -0.287119
C9    C     C_R   0.789261 0.918825 0.311246 0.309640
C10   C     C_R   0.210208 0.081074 0.687532 0.309725
C11   C     C_R   0.668371 0.876264 0.328711 0.227850
C12   C     C_R   0.331201 0.123534 0.670329 0.227768
C13   C     C_R   0.590888 0.929089 0.424189 -0.096568
C14   C     C_R   0.408791 0.070772 0.574917 -0.096535
C15   C     C_R   0.625159 0.036078 0.487219 -0.080481
C16   C     C_R   0.374528 0.963834 0.511785 -0.080548
C17   C     C_R   0.477610 0.881296 0.456685 -0.035467
C18   C     C_R   0.522183 0.118542 0.542609 -0.036131
H1    H     H_    0.933111 0.033030 0.383219 0.226781
H2    H     H_    0.066372 0.966995 0.615296 0.227151
H3    H     H_    0.383008 0.534641 0.896451 0.200424
H4    H     H_    0.616908 0.463894 0.103570 0.200260
C19   C     C_2   0.411356 0.511954 0.136133 -0.279839
C20   C     C_2   0.588629 0.487512 0.863885 -0.279943
C21   C     C_2   0.512785 0.490941 0.065259 -0.085463
C22   C     C_2   0.487162 0.507868 0.934755 -0.084723
H5    H     H_    0.692691 0.462258 0.902517 0.177430
H6    H     H_    0.307320 0.537500 0.097499 0.177539
H7    H     H_    0.890136 0.575833 0.581217 0.157691
H8    H     H_    0.109925 0.423920 0.419013 0.157650
N1    N     N_2   0.157300 0.551390 0.551120 -0.156342
N2    N     N_2   0.842700 0.448610 0.448880 -0.156122
C23   C     C_2   0.073167 0.490576 0.489077 -0.025281
C24   C     C_2   0.926861 0.509309 0.511031 -0.025196
H9    H     H_    0.880510 0.387790 0.381564 0.190639
H10   H     H_    0.119429 0.612462 0.618206 0.190575
Br1   Br    Br    0.104443 0.141977 0.819803 -0.299550
Br2   Br    Br    0.894971 0.857771 0.178977 -0.299973
N3    N     N_R   0.815959 0.136221 0.578777 0.232517
O9    O     O_R   0.913750 0.195601 0.556402 -0.424334
O10   O     O_R   0.775473 0.140636 0.689149 -0.331497
N4    N     N_R   0.183954 0.863293 0.420147 0.232868
O11   O     O_R   0.226245 0.856673 0.310572 -0.332180
O12   O     O_R   0.085747 0.804419 0.442371 -0.424082
Br3   Br    Br    0.596361 0.769982 0.205740 -0.419061
Br4   Br    Br    0.403188 0.229535 0.793585 -0.419498

loop_
_geom_bond_atom_site_label_1
_geom_bond_atom_site_label_2
_geom_bond_distance
_ccdc_geom_bond_type
C12   Br4   1.921552 S    
O7    Zn2   1.955979 S    
C5    C7    1.399664 A    
H7    C24   1.085235 S    
C8    H2    1.081965 S    
C13   C17   1.403846 A    
C20   H5    1.087490 S    
C7    H1    1.082059 S    
C8    C10   1.393861 A    
C21   C22   1.424980 S    
O6    C4    1.285523 A    
O7    C3    1.306570 A    
O3    C1    1.289691 A    
C11   C13   1.417357 A    
C15   C18   1.418298 A    
O5    C3    1.285524 A    
N1    C23   1.296753 D    
C14   C16   1.398427 A    
C16   C17   1.417830 A    
O2    C2    1.286438 A    
N1    H10   1.030889 S    
N2    C24   1.296763 D    
C3    C18   1.470479 S    
O3    Zn2   1.972560 S    
Zn2   N1    2.010976 S    
O1    C1    1.286469 A    
O8    C4    1.306473 A    
O4    C2    1.289751 A    
Zn1   N2    2.010974 S    
C19   C21   1.330437 D    
N4    O12   1.300167 A    
C20   C22   1.330492 D    
C5    N3    1.439446 S    
C23   C24   1.504264 S    
C6    C16   1.419599 A    
O2    Zn2   1.944947 S    
C12   C14   1.417196 A    
C5    C15   1.419521 A    
C10   Br1   1.919730 S    
O1    Zn1   1.944945 S    
C4    C17   1.470329 S    
H4    C21   1.088558 S    
C6    N4    1.439732 S    
O5    Zn1   1.968972 S    
C13   C15   1.398376 A    
N4    O11   1.301790 A    
C14   C18   1.404097 A    
C6    C8    1.399637 A    
N3    O9    1.300171 A    
O4    Zn1   1.972561 S    
C11   Br3   1.921513 S    
H3    C22   1.088560 S    
C19   H6    1.087489 S    
O6    Zn2   1.968973 S    
C9    Br2   1.919786 S    
C7    C9    1.393818 A    
C9    C11   1.404459 A    
O8    Zn1   1.955980 S    
H8    C23   1.085170 S    
C2    C20   1.437799 S    
C10   C12   1.404339 A    
N3    O10   1.302885 A    
N2    H9    1.031072 S    
C1    C19   1.437726 S    
