data_mof_unit_19096.cif
_audit_creation_date              2013-03-05T15:46:32-0500
_audit_creation_method            fapswitch 2.2
_symmetry_space_group_name_H-M    P1
_symmetry_Int_Tables_number       1
_space_group_crystal_system       triclinic
_cell_length_a                    6.937475
_cell_length_b                    16.67503
_cell_length_c                    17.164702
_cell_angle_alpha                 100.428124
_cell_angle_beta                  90.154909
_cell_angle_gamma                 90.75449
_cell_volume                      1952.66436441

loop_
_atom_site_label
_atom_site_type_symbol
_atom_site_description
_atom_site_fract_x
_atom_site_fract_y
_atom_site_fract_z
_atom_type_partial_charge
O1    O     O_R   0.506180 0.438940 0.579430 -0.601579
O2    O     O_R   0.170520 0.406230 0.413590 -0.589566
O3    O     O_R   0.005180 0.561060 0.420570 -0.602432
C1    C     C_R   0.339126 0.383018 0.385305 0.943374
O4    O     O_R   0.176140 0.429310 0.578370 -0.598330
O5    O     O_R   0.010830 0.584300 0.586530 -0.594955
C2    C     C_R   0.343058 0.413550 0.605156 0.925302
O6    O     O_R   0.500520 0.415700 0.413470 -0.589018
O7    O     O_3   0.340830 0.550820 0.502480 -0.269282
V1    V     V_3+5 0.064040 0.490570 0.499540 1.158185
O8    O     O_R   0.681400 0.593770 0.586410 -0.591849
C3    C     C_R   0.851465 0.617018 0.614372 0.939561
O9    O     O_R   0.675790 0.570690 0.421630 -0.588342
C4    C     C_R   0.843499 0.586364 0.394957 0.965606
V2    V     V_3+5 0.564650 0.509430 0.500460 1.165755
O10   O     O_3   0.837730 0.449180 0.497520 -0.274767
C5    C     C_R   0.924525 0.861890 0.167058 -0.219337
C6    C     C_R   0.841986 0.637986 0.332747 -0.219261
C7    C     C_R   0.664435 0.683268 0.225386 0.410052
C8    C     C_R   0.683696 0.631730 0.280865 -0.248103
C9    C     C_R   0.984187 0.697497 0.328696 -0.136251
C10   C     C_R   0.963985 0.753609 0.276228 0.026064
C11   C     C_R   0.802605 0.746243 0.223553 0.026168
C12   C     C_R   0.782353 0.802369 0.171104 -0.135998
C13   C     C_R   0.082883 0.868118 0.218906 -0.248125
C14   C     C_R   0.102192 0.816566 0.274373 0.409971
H1    H     H_    0.659411 0.799223 0.131761 0.173348
H2    H     H_    0.191815 0.915009 0.217316 0.167023
H3    H     H_    0.574778 0.584830 0.282439 0.166964
H4    H     H_    0.107088 0.700656 0.368062 0.173397
C15   C     C_R   0.109715 0.890070 0.737783 -0.173050
C16   C     C_R   0.209460 0.894692 0.668545 -0.132642
C17   C     C_R   0.195742 0.831274 0.604198 -0.069647
C18   C     C_R   0.080029 0.763282 0.608115 -0.152033
C19   C     C_R   0.981849 0.755311 0.678712 0.109939
C20   C     C_R   0.998302 0.819954 0.745248 0.124005
C21   C     C_R   0.865592 0.685438 0.683209 -0.318729
C22   C     C_R   0.767225 0.680103 0.754566 0.123977
C23   C     C_R   0.783693 0.744742 0.821106 0.109907
C24   C     C_R   0.899991 0.814607 0.816615 -0.318685
C25   C     C_R   0.655753 0.610000 0.762020 -0.173165
C26   C     C_R   0.555976 0.605384 0.831252 -0.132593
C27   C     C_R   0.569725 0.668794 0.895606 -0.069383
C28   C     C_R   0.685496 0.736772 0.891700 -0.152179
H5    H     H_    0.120658 0.942676 0.784668 0.130287
H6    H     H_    0.296259 0.948236 0.664562 0.130153
H7    H     H_    0.273684 0.835263 0.550632 0.183875
H8    H     H_    0.068255 0.717816 0.554764 0.130018
H9    H     H_    0.644776 0.557403 0.715128 0.130539
H10   H     H_    0.469130 0.551851 0.835226 0.130173
H11   H     H_    0.697290 0.782227 0.945057 0.130119
H12   H     H_    0.098048 0.465205 0.142553 0.151124
C29   C     C_R   0.492585 0.226337 0.403314 -0.153571
C30   C     C_R   0.575334 0.153321 0.413802 -0.115674
C31   C     C_R   0.605232 0.091559 0.349051 -0.066141
C32   C     C_R   0.552638 0.102284 0.273253 -0.178545
C33   C     C_R   0.469649 0.175945 0.260503 0.108969
C34   C     C_R   0.438793 0.239434 0.327037 0.124545
C35   C     C_R   0.414123 0.186283 0.183353 -0.314550
C36   C     C_R   0.327826 0.260543 0.173130 0.124570
C37   C     C_R   0.296972 0.324032 0.239662 0.109009
C38   C     C_R   0.352459 0.313688 0.316816 -0.314694
C39   C     C_R   0.274060 0.273644 0.096850 -0.153484
C40   C     C_R   0.191346 0.346665 0.086357 -0.115612
C41   C     C_R   0.161461 0.408429 0.151106 -0.066174
C42   C     C_R   0.214025 0.397700 0.226905 -0.178701
H13   H     H_    0.469387 0.271871 0.455813 0.102727
H14   H     H_    0.615387 0.144460 0.472633 0.123689
H15   H     H_    0.668679 0.034789 0.357600 0.151041
H16   H     H_    0.577405 0.052054 0.225027 0.128901
H17   H     H_    0.297256 0.228109 0.044351 0.102702
H18   H     H_    0.151317 0.355527 0.027524 0.123732
H19   H     H_    0.189279 0.447938 0.275126 0.128899
C43   C     C_R   0.427268 0.139529 0.833677 -0.135572
C44   C     C_R   0.338456 0.360612 0.666523 -0.135474
C45   C     C_R   0.149828 0.303339 0.764324 -0.235670
C46   C     C_R   0.170073 0.358203 0.712115 -0.145657
C47   C     C_R   0.488941 0.307413 0.675724 -0.299816
C48   C     C_R   0.468521 0.251266 0.727887 0.223202
C49   C     C_R   0.297180 0.248889 0.772330 0.223177
C50   C     C_R   0.276776 0.192738 0.824497 -0.299903
C51   C     C_R   0.595620 0.141936 0.788063 -0.145552
C52   C     C_R   0.615863 0.196811 0.735874 -0.235776
H20   H     H_    0.147199 0.192334 0.859603 0.139311
H21   H     H_    0.714207 0.101617 0.793415 0.136461
H22   H     H_    0.017773 0.303031 0.797871 0.132192
H23   H     H_    0.747906 0.197117 0.702318 0.132156
H24   H     H_    0.051481 0.398509 0.706731 0.136463
H25   H     H_    0.618529 0.307811 0.640623 0.139340
O11   O     O_R   0.265840 0.084300 0.086750 -0.589250
O12   O     O_R   0.589750 0.070740 0.921690 -0.598440
O13   O     O_R   0.755020 0.915730 0.913400 -0.595022
C53   C     C_R   0.422761 0.086547 0.895010 0.925028
O14   O     O_R   0.595830 0.093740 0.086480 -0.589498
O15   O     O_R   0.761150 0.938890 0.079360 -0.602394
C54   C     C_R   0.427306 0.116944 0.114865 0.943685
O16   O     O_R   0.259710 0.061140 0.920790 -0.601261
O17   O     O_3   0.425260 0.949200 0.997610 -0.269326
V3    V     V_3+5 0.702060 0.009430 0.000450 1.158172
O18   O     O_R   0.090530 0.929220 0.078150 -0.588136
C55   C     C_R   0.922888 0.913552 0.104885 0.965795
O19   O     O_R   0.084440 0.906220 0.913360 -0.592157
C56   C     C_R   0.914297 0.882994 0.885476 0.939434
V4    V     V_3+5 0.201450 0.990520 0.999290 1.165760
O20   O     O_3   0.928380 0.050800 0.002390 -0.274765
N1    N     N_R   0.505336 0.669408 0.170700 0.227286
O21   O     O_R   0.337123 0.648681 0.194612 -0.429434
O22   O     O_R   0.537753 0.659466 0.095031 -0.456597
N2    N     N_R   0.261403 0.830390 0.329007 0.227322
O23   O     O_R   0.429578 0.851075 0.305044 -0.429447
O24   O     O_R   0.229125 0.840336 0.404687 -0.456650
H26   H     H_    0.491759 0.664811 0.949169 0.183787

loop_
_geom_bond_atom_site_label_1
_geom_bond_atom_site_label_2
_geom_bond_distance
_ccdc_geom_bond_type
C34   C38   1.421339 A    
C52   H23   1.083833 S    
C31   C32   1.393278 A    
C53   O16   1.308729 A    
C6    C9    1.400856 A    
C25   C26   1.390467 A    
C4    C6    1.488032 S    
O2    C1    1.304103 A    
C7    C8    1.400667 A    
C12   H1    1.081260 S    
C1    O6    1.292283 A    
C29   C30   1.393403 A    
C13   H2    1.084206 S    
C36   C39   1.415706 A    
C19   C21   1.422014 A    
N2    O24   1.299884 A    
O5    C3    1.293345 A    
C22   C23   1.424678 A    
O19   V4    2.005835 S    
O15   V3    1.993149 S    
C33   C35   1.418928 A    
C30   H14   1.082744 S    
N1    O21   1.301176 A    
V2    O10   2.152505 S    
O17   V3    2.151644 S    
C1    C38   1.496176 S    
O18   V4    1.988728 S    
C32   C33   1.415395 A    
C18   C19   1.417886 A    
C3    C21   1.488557 S    
C5    C55   1.487999 S    
C27   H26   1.079855 S    
O13   C56   1.293333 A    
O8    V2    2.005709 S    
C37   C42   1.415422 A    
C19   C20   1.424662 A    
C46   H24   1.083417 S    
C11   C12   1.419137 A    
O1    V2    1.987643 S    
O7    V1    2.151622 S    
C15   C20   1.418376 A    
C35   C36   1.421337 A    
O9    C4    1.292205 A    
C43   C53   1.491979 S    
O19   C56   1.300050 A    
C43   C51   1.412010 A    
C25   H9    1.079464 S    
V4    O20   2.152521 S    
C8    H3    1.084208 S    
C47   H25   1.084201 S    
V3    O20   1.704422 S    
C5    C12   1.400805 A    
C20   C24   1.419921 A    
C45   C46   1.397799 A    
C22   C25   1.418366 A    
C23   C24   1.422034 A    
O4    C2    1.292391 A    
C47   C48   1.413846 A    
C2    C44   1.491924 S    
C13   C14   1.400715 A    
C42   H19   1.081601 S    
C48   C49   1.418114 A    
C36   C37   1.428427 A    
C7    C11   1.417097 A    
C27   C28   1.392218 A    
C21   C22   1.419920 A    
O12   C53   1.292338 A    
C15   C16   1.390467 A    
C29   C34   1.415688 A    
C17   C18   1.392215 A    
O14   C54   1.304115 A    
C44   C46   1.411988 A    
C14   N2    1.435950 S    
O11   V4    2.006683 S    
C31   H15   1.082742 S    
O3    C4    1.306284 A    
C26   H10   1.082871 S    
C28   H11   1.080121 S    
C39   H17   1.082027 S    
C51   C52   1.397695 A    
O6    V2    2.000886 S    
C32   H16   1.081610 S    
O9    V2    1.988492 S    
C10   C14   1.417098 A    
C17   H7    1.079834 S    
C18   H8    1.080134 S    
C26   C27   1.386092 A    
C43   C50   1.405769 A    
O2    V1    1.995557 S    
C45   H22   1.083829 S    
C50   H20   1.084195 S    
C30   C31   1.389772 A    
O1    C2    1.308681 A    
C16   H6    1.082872 S    
C45   C49   1.398980 A    
C49   C50   1.413941 A    
O5    V1    1.995483 S    
O8    C3    1.300064 A    
O11   C54   1.292246 A    
C23   C28   1.417891 A    
C51   H21   1.083418 S    
C9    H4    1.081273 S    
C5    C13   1.402848 A    
C16   C17   1.386087 A    
O7    V2    1.705409 S    
O4    V1    1.998687 S    
O3    V1    1.993025 S    
V1    O10   1.704412 S    
N2    O23   1.301044 A    
C40   C41   1.389759 A    
C24   C56   1.488568 S    
C48   C52   1.398908 A    
C33   C34   1.428452 A    
N1    O22   1.299867 A    
O14   V3    1.995451 S    
O17   V4    1.705168 S    
O18   C55   1.292181 A    
C35   C54   1.496168 S    
C6    C8    1.402811 A    
C40   H18   1.082746 S    
C37   C38   1.418953 A    
C29   H13   1.082030 S    
C44   C47   1.405708 A    
O16   V4    1.982538 S    
C39   C40   1.393393 A    
C7    N1    1.435929 S    
C41   C42   1.393273 A    
C15   H5    1.079481 S    
C10   C11   1.427128 A    
O12   V3    1.998870 S    
C9    C10   1.419153 A    
H12   C41   1.082743 S    
O15   C55   1.306259 A    
O13   V3    1.995444 S    
