data_mof_unit_30583.cif
_audit_creation_date              2012-12-11T16:08:30-0500
_audit_creation_method            fapswitch 2.2
_symmetry_space_group_name_H-M    P1
_symmetry_Int_Tables_number       1
_space_group_crystal_system       triclinic
_cell_length_a                    7.227106
_cell_length_b                    21.415797
_cell_length_c                    23.4529
_cell_angle_alpha                 90.000109
_cell_angle_beta                  90.00034
_cell_angle_gamma                 89.998814
_cell_volume                      3629.90465503

loop_
_atom_site_label
_atom_site_type_symbol
_atom_type_description
_atom_site_fract_x
_atom_site_fract_y
_atom_site_fract_z
_atom_type_partial_charge
O1    O     O_R   0.365470 0.806380 0.442440 -0.533524
O2    O     O_R   0.134530 0.193620 0.942440 -0.533520
O3    O     O_R   0.865470 0.693620 0.557560 -0.533523
O4    O     O_R   0.634530 0.306380 0.057560 -0.533521
O5    O     O_R   0.035730 0.813790 0.557160 -0.534948
O6    O     O_R   0.464270 0.186210 0.057160 -0.534948
O7    O     O_R   0.535730 0.686210 0.442840 -0.534952
O8    O     O_R   0.964270 0.313790 0.942840 -0.534946
C1    C     C_R   0.204271 0.828711 0.575879 0.717632
C2    C     C_R   0.295729 0.171289 0.075878 0.717629
C3    C     C_R   0.704273 0.671289 0.424121 0.717620
C4    C     C_R   0.795726 0.328711 0.924121 0.717642
O9    O     O_R   0.035760 0.813790 0.442850 -0.534185
O10   O     O_R   0.464240 0.186210 0.942850 -0.534188
O11   O     O_R   0.535760 0.686210 0.557150 -0.534184
O12   O     O_R   0.964240 0.313790 0.057150 -0.534196
O13   O     O_R   0.865450 0.693620 0.442430 -0.533589
O14   O     O_R   0.634550 0.306380 0.942430 -0.533597
O15   O     O_R   0.365450 0.806380 0.557570 -0.533591
O16   O     O_R   0.134550 0.193620 0.057570 -0.533594
C5    C     C_R   0.204277 0.828719 0.424136 0.715681
C6    C     C_R   0.295723 0.171282 0.924136 0.715682
C7    C     C_R   0.704279 0.671282 0.575864 0.715684
C8    C     C_R   0.795721 0.328718 0.075864 0.715685
O17   O     O_3   0.198970 0.710570 0.500000 -0.373517
O18   O     O_3   0.301030 0.289430 0.000000 -0.373518
O19   O     O_3   0.698970 0.789430 0.500000 -0.373516
O20   O     O_3   0.801030 0.210570 0.000000 -0.373514
V1    V     V_3+5 0.924120 0.757310 0.500000 1.433688
V2    V     V_3+5 0.575880 0.242690 0.000000 1.433685
V3    V     V_3+5 0.424120 0.742690 0.500000 1.433676
V4    V     V_3+5 0.075880 0.257310 0.000000 1.433671
C9    C     C_3   0.926813 0.543311 0.735585 -0.360405
C10   C     C_3   0.573387 0.456540 0.235715 -0.360635
C11   C     C_3   0.426767 0.956655 0.264389 -0.360476
C12   C     C_3   0.073263 0.043369 0.764370 -0.360512
C13   C     C_3   0.587227 0.552803 0.752952 -0.320910
C14   C     C_3   0.913144 0.447322 0.252860 -0.320706
C15   C     C_3   0.087158 0.947223 0.247065 -0.320815
C16   C     C_3   0.412891 0.052761 0.747075 -0.320752
C17   C     C_3   0.600000 0.503982 0.801844 -0.312275
C18   C     C_3   0.900804 0.496291 0.301640 -0.312221
C19   C     C_3   0.099717 0.996116 0.198227 -0.312230
C20   C     C_3   0.400425 0.003834 0.698264 -0.312202
H1    H     H_    0.968214 0.521261 0.826102 0.166015
H2    H     H_    0.533403 0.478318 0.326348 0.166170
H3    H     H_    0.467634 0.978574 0.173824 0.166079
H4    H     H_    0.032677 0.021511 0.673778 0.166106
H5    H     H_    0.950771 0.591319 0.752203 0.162027
H6    H     H_    0.549682 0.408481 0.252245 0.162003
H7    H     H_    0.450724 0.908625 0.247821 0.162012
H8    H     H_    0.049321 0.091408 0.747824 0.162006
H9    H     H_    0.445413 0.553385 0.734881 0.178590
H10   H     H_    0.054804 0.446665 0.234675 0.178287
H11   H     H_    0.945384 0.946574 0.265164 0.178446
H12   H     H_    0.554641 0.053437 0.765192 0.178382
H13   H     H_    0.610372 0.600266 0.770945 0.148117
H14   H     H_    0.890104 0.399914 0.270986 0.148178
H15   H     H_    0.110390 0.899790 0.229015 0.148152
H16   H     H_    0.389643 0.100180 0.728996 0.148157
H17   H     H_    0.624516 0.528864 0.842826 0.152570
H18   H     H_    0.877547 0.471514 0.342743 0.152347
H19   H     H_    0.123751 0.971286 0.157193 0.152464
H20   H     H_    0.376644 0.028637 0.657202 0.152403
H21   H     H_    0.465226 0.479735 0.806721 0.144475
H22   H     H_    0.035363 0.520758 0.306146 0.144883
H23   H     H_    0.965003 0.020439 0.193504 0.144692
H24   H     H_    0.535097 0.979466 0.693620 0.144796
C21   C     C_1   0.786211 0.374218 0.878284 -0.172150
C22   C     C_1   0.713790 0.625783 0.378283 -0.172154
C23   C     C_1   0.286217 0.125781 0.121715 -0.172155
C24   C     C_1   0.213780 0.874218 0.621716 -0.172150
C25   C     C_3   0.734160 0.539596 0.706134 0.154106
C26   C     C_3   0.765807 0.460404 0.206136 0.153960
C27   C     C_3   0.234163 0.960407 0.293865 0.153986
C28   C     C_3   0.265836 0.039597 0.793863 0.153931
C29   C     C_3   0.941072 0.495687 0.785641 -0.371413
C30   C     C_3   0.559363 0.504027 0.285886 -0.371311
C31   C     C_3   0.440930 0.004212 0.214278 -0.371372
C32   C     C_3   0.059151 0.995844 0.714231 -0.371342
C33   C     C_3   0.760177 0.456838 0.791137 0.216084
C34   C     C_3   0.739789 0.543169 0.291130 0.216039
C35   C     C_3   0.260193 0.043165 0.208865 0.216047
C36   C     C_3   0.239793 0.956835 0.708866 0.216015
C37   C     C_3   0.730445 0.422553 0.732690 0.024382
C38   C     C_3   0.768208 0.577464 0.232627 0.024368
C39   C     C_3   0.230914 0.077456 0.267331 0.024397
C40   C     C_3   0.268823 0.922545 0.767343 0.024379
C41   C     C_3   0.710433 0.471466 0.682793 -0.101541
C42   C     C_3   0.788923 0.528546 0.182763 -0.101398
C43   C     C_3   0.210546 0.028540 0.317211 -0.101480
C44   C     C_3   0.289369 0.971462 0.817214 -0.101421
C45   C     C_1   0.775749 0.411646 0.839401 -0.081313
C46   C     C_1   0.724245 0.588358 0.339398 -0.081272
C47   C     C_1   0.275759 0.088355 0.160598 -0.081284
C48   C     C_1   0.224233 0.911645 0.660599 -0.081283
C49   C     C_1   0.722440 0.586860 0.659391 -0.072742
C50   C     C_1   0.777545 0.413140 0.159392 -0.072766
C51   C     C_1   0.222436 0.913143 0.340609 -0.072746
C52   C     C_1   0.277567 0.086859 0.840608 -0.072761
C53   C     C_1   0.713521 0.625239 0.621256 -0.154016
C54   C     C_1   0.786475 0.374761 0.121257 -0.153981
C55   C     C_1   0.213515 0.874763 0.378744 -0.153989
C56   C     C_1   0.286487 0.125238 0.878744 -0.153976
H25   H     H_    0.829415 0.463194 0.653415 0.084936
H26   H     H_    0.669995 0.536661 0.153325 0.084932
H27   H     H_    0.329419 0.036762 0.346644 0.084919
H28   H     H_    0.170547 0.963267 0.846672 0.084902
H29   H     H_    0.859029 0.395373 0.723877 0.122781
H30   H     H_    0.638875 0.604277 0.223897 0.122840
H31   H     H_    0.359799 0.104483 0.276127 0.122802
H32   H     H_    0.139788 0.895597 0.776130 0.122806
H33   H     H_    0.038089 0.533789 0.703998 0.169374
H34   H     H_    0.461856 0.466114 0.204225 0.169113
H35   H     H_    0.538080 0.966224 0.295951 0.169282
H36   H     H_    0.961922 0.033778 0.795916 0.169231
H37   H     H_    0.061288 0.464181 0.778351 0.155489
H38   H     H_    0.438525 0.535337 0.278875 0.155347
H39   H     H_    0.561376 0.035647 0.221454 0.155491
H40   H     H_    0.938586 0.964444 0.721350 0.155487
N1    N     N_3   0.578165 0.376940 0.733934 -0.648075
H41   H     H_    0.618210 0.338416 0.758400 0.226179
H42   H     H_    0.460684 0.395879 0.753085 0.256228
N2    N     N_3   0.919390 0.623497 0.233689 -0.648061
H43   H     H_    0.878458 0.662010 0.258028 0.226139
H44   H     H_    0.037350 0.604970 0.252902 0.256209
N3    N     N_3   0.079081 0.123243 0.266142 -0.648091
H45   H     H_    0.119506 0.161765 0.241737 0.226163
H46   H     H_    0.961423 0.104478 0.246949 0.256222
N4    N     N_3   0.420414 0.876666 0.766185 -0.648057
H47   H     H_    0.379727 0.838137 0.741827 0.226147
H48   H     H_    0.538128 0.895335 0.746947 0.256211
C57   C     C_2   0.537194 0.463103 0.646708 0.830084
O21   O     O_2   0.552505 0.451448 0.595873 -0.557746
O22   O     O_R   0.361185 0.468287 0.670982 -0.682474
H49   H     H_    0.258334 0.461441 0.642259 0.286411
C58   C     C_2   0.962299 0.537064 0.146767 0.830185
O23   O     O_2   0.947158 0.548535 0.095893 -0.557737
O24   O     O_R   0.138229 0.532230 0.171161 -0.682437
H50   H     H_    0.241194 0.539121 0.142483 0.286405
C59   C     C_2   0.037136 0.036942 0.353214 0.830148
O25   O     O_2   0.052222 0.048499 0.404073 -0.557742
O26   O     O_R   0.861231 0.031902 0.328841 -0.682485
H51   H     H_    0.758236 0.038750 0.357517 0.286345
C60   C     C_2   0.462845 0.963032 0.853179 0.830174
O27   O     O_2   0.447864 0.951513 0.904049 -0.557737
O28   O     O_R   0.638694 0.967995 0.828756 -0.682478
H52   H     H_    0.741741 0.961131 0.857410 0.286332

loop_
_geom_bond_atom_site_label_1
_geom_bond_atom_site_label_2
_ccdc_geom_bond_type
O17   V3    S    
C51   C55   T    
C4    C21   S    
C32   H40   S    
O1    C5    A    
C34   C46   S    
C39   C43   S    
O19   V1    S    
C19   C35   S    
O3    C7    A    
O28   H52   S    
C18   C34   S    
C1    C24   S    
C40   N4    S    
C32   C36   S    
O15   V3    S    
C39   N3    S    
C60   O27   D    
C3    C22   S    
C19   H19   S    
O22   H49   S    
C26   C50   S    
C20   H20   S    
O7    C3    A    
C58   O24   S    
C11   C27   S    
C16   H16   S    
O9    V1    S    
C30   H38   S    
C14   C18   S    
C37   H29   S    
C59   O26   S    
C14   C26   S    
O4    C8    A    
C24   C48   T    
C39   H31   S    
C9    H5    S    
O26   H51   S    
O1    V3    S    
C6    C56   S    
O2    V4    S    
C36   C48   S    
O3    V1    S    
C38   C42   S    
C12   C28   S    
C14   H14   S    
C44   H28   S    
C52   C56   T    
C15   H11   S    
C40   C44   S    
C2    O16   A    
C16   H12   S    
C31   H39   S    
O2    C6    A    
C11   H35   S    
O14   V2    S    
H3    C31   S    
C18   H18   S    
C12   H8    S    
C27   C43   S    
C13   H9    S    
C2    C23   S    
O11   C7    A    
C15   H15   S    
O12   C8    A    
O10   V2    S    
C60   O28   S    
C1    O15   A    
C33   C37   S    
O5    V1    S    
C10   H6    S    
C41   C57   S    
O8    V4    S    
C43   H27   S    
C28   C52   S    
O7    V3    S    
C42   H26   S    
C12   C32   S    
H2    C30   S    
C37   C41   S    
O18   V4    S    
C17   H21   S    
C38   H30   S    
C34   C38   S    
O4    V2    S    
C17   H17   S    
C16   C28   S    
C40   H32   S    
N4    H48   S    
N3    H46   S    
O5    C1    A    
C33   C45   S    
C30   C34   S    
C14   H10   S    
C29   C33   S    
O8    C4    A    
C17   C33   S    
C27   C51   S    
O9    C5    A    
C35   C47   S    
C37   N1    S    
N1    H41   S    
C10   C26   S    
C9    C25   S    
O6    V2    S    
C28   C44   S    
C25   C49   S    
C15   C27   S    
C38   N2    S    
C57   O21   D    
C20   H24   S    
C10   H34   S    
C41   H25   S    
N3    H45   S    
C12   H36   S    
C42   C58   S    
N2    H44   S    
O16   V4    S    
C21   C45   T    
C13   C25   S    
C3    O13   A    
C22   C46   T    
C44   C60   S    
C9    H33   S    
C18   H22   S    
C36   C40   S    
C20   C36   S    
C35   C39   S    
O6    C2    A    
C15   C19   S    
O24   H50   S    
O11   V3    S    
C31   C35   S    
O12   V4    S    
C58   O23   D    
C29   H37   S    
C9    C29   S    
H4    C32   S    
O20   V2    S    
N4    H47   S    
C25   C41   S    
C50   C54   T    
O13   V1    S    
C10   C30   S    
C11   H7    S    
O10   C6    A    
C7    C53   S    
C26   C42   S    
C11   C31   S    
C8    C54   S    
C13   C17   S    
C49   C53   T    
N1    H42   S    
C5    C55   S    
C16   C20   S    
C23   C47   T    
C19   H23   S    
C4    O14   A    
C57   O22   S    
H1    C29   S    
C59   O25   D    
C13   H13   S    
N2    H43   S    
C43   C59   S    
