data_mof_unit_14992.cif
_audit_creation_date              2012-12-10T17:35:00-0500
_audit_creation_method            fapswitch 2.2
_symmetry_space_group_name_H-M    P1
_symmetry_Int_Tables_number       1
_space_group_crystal_system       triclinic
_cell_length_a                    12.334424
_cell_length_b                    13.179798
_cell_length_c                    13.86603
_cell_angle_alpha                 105.170739
_cell_angle_beta                  73.882335
_cell_angle_gamma                 116.701312
_cell_volume                      1909.81189207

loop_
_atom_site_label
_atom_site_type_symbol
_atom_type_description
_atom_site_fract_x
_atom_site_fract_y
_atom_site_fract_z
_atom_type_partial_charge
C1    C     C_R   0.144547 0.713622 0.507976 0.768265
C2    C     C_1   0.975252 0.506799 0.791631 -0.176818
C3    C     C_R   0.739535 0.974546 0.367552 -0.199335
C4    C     C_R   0.775163 0.164243 0.463773 -0.049172
C5    C     C_R   0.178943 0.917513 0.568348 -0.185737
C6    C     C_R   0.256201 0.033319 0.584434 -0.146205
C7    C     C_R   0.382625 0.069556 0.548631 -0.169680
C8    C     C_R   0.434486 0.990040 0.492202 0.075974
C9    C     C_R   0.353431 0.874932 0.464576 0.028022
C10   C     C_R   0.563770 0.021412 0.461688 0.049218
C11   C     C_R   0.610287 0.941208 0.395295 0.096378
C12   C     C_R   0.984321 0.504252 0.686379 0.816340
C13   C     C_R   0.527356 0.831144 0.356406 0.115644
C14   C     C_R   0.400247 0.801477 0.390097 -0.194689
C15   C     C_R   0.648450 0.130469 0.497462 -0.234999
C16   C     C_R   0.820833 0.085197 0.400683 -0.186707
C17   C     C_R   0.226373 0.836809 0.510717 -0.089661
C18   C     C_R   0.641588 0.677092 0.659288 -0.301394
C19   C     C_R   0.251380 0.351044 0.364340 0.067061
C20   C     C_R   0.350303 0.318702 0.334244 -0.256764
C21   C     C_R   0.449838 0.375122 0.385019 -0.191754
C22   C     C_R   0.451499 0.465079 0.467197 -0.004188
C23   C     C_R   0.856066 0.286150 0.485250 0.793194
C24   C     C_R   0.347735 0.495149 0.495391 0.279520
C25   C     C_R   0.551493 0.525980 0.522527 -0.037738
C26   C     C_R   0.545797 0.615837 0.603796 0.174007
C27   C     C_R   0.444235 0.643770 0.629873 -0.280901
C28   C     C_R   0.347187 0.584311 0.577440 -0.173413
C29   C     C_R   0.657530 0.501901 0.501463 0.019102
C30   C     C_R   0.742854 0.649090 0.634801 0.074142
C31   C     C_R   0.015863 0.495993 0.313636 0.811068
C32   C     C_1   0.025544 0.494220 0.208440 -0.178507
C33   C     C_2   0.042118 0.491325 0.014431 -0.162608
C34   C     C_2   0.959591 0.510891 0.985727 -0.163169
C35   C     C_1   0.967545 0.508882 0.880276 0.002213
C36   C     C_1   0.033770 0.492777 0.119837 0.000169
Cu1   Cu    Cu3+1 0.899780 0.525060 0.522890 0.935565
Cu2   Cu    Cu3+1 0.100220 0.474940 0.477110 0.919440
H1    H     H_    0.885613 0.528214 0.041137 0.154828
H2    H     H_    0.336545 0.721663 0.355502 0.185846
H3    H     H_    0.817207 0.696068 0.677289 0.121932
H4    H     H_    0.439110 0.712075 0.692283 0.152593
H5    H     H_    0.637977 0.746033 0.721403 0.137224
H6    H     H_    0.669661 0.435130 0.441189 0.124226
H7    H     H_    0.174563 0.306806 0.324434 0.128620
H8    H     H_    0.523920 0.346579 0.358398 0.136675
H9    H     H_    0.349854 0.249680 0.271304 0.146037
H10   H     H_    0.919197 0.110023 0.373912 0.146733
H11   H     H_    0.779736 0.917082 0.317960 0.129654
H12   H     H_    0.618450 0.191973 0.551908 0.146815
H13   H     H_    0.082038 0.890926 0.602747 0.149938
H14   H     H_    0.436421 0.160813 0.564315 0.127877
N1    N     N_R   0.748810 0.563010 0.557590 -0.179021
N2    N     N_R   0.250540 0.437620 0.443020 -0.210091
O1    O     O_R   0.025040 0.682470 0.528790 -0.580100
O2    O     O_R   0.194310 0.640150 0.490130 -0.605015
O3    O     O_R   0.903380 0.524130 0.659910 -0.572933
O4    O     O_R   0.072660 0.481800 0.621240 -0.588308
O5    O     O_R   0.805690 0.359850 0.509870 -0.586559
O6    O     O_R   0.974960 0.317530 0.471210 -0.584874
O7    O     O_R   0.927340 0.518200 0.378760 -0.573717
O8    O     O_R   0.096620 0.475870 0.340090 -0.587196
H15   H     H_    0.273075 0.611160 0.604632 0.206315
H16   H     H_    0.116060 0.473944 0.959023 0.156397
C37   C     C_3   0.576116 0.746966 0.280240 -0.410016
C38   C     C_3   0.479549 0.631572 0.239832 -0.821936
H17   H     H_    0.418931 0.583596 0.303065 0.267682
H18   H     H_    0.423460 0.644908 0.197894 0.245771
H19   H     H_    0.526904 0.578573 0.186433 0.240921
H20   H     H_    0.636452 0.789064 0.213411 0.200503
H21   H     H_    0.632901 0.727809 0.316876 0.208708
H22   H     H_    0.218387 0.095180 0.627695 0.142588

loop_
_geom_bond_atom_site_label_1
_geom_bond_atom_site_label_2
_ccdc_geom_bond_type
C2    C35   T    
C4    C16   A    
C38   H18   S    
C9    C14   A    
C19   H7    S    
C30   H3    S    
C6    C7    A    
C18   C30   A    
C13   C14   A    
C31   O7    A    
C1    C17   S    
C19   C20   A    
Cu2   N2    S    
C3    C11   A    
C12   O4    A    
C18   C26   A    
C16   H10   S    
C4    C15   A    
C38   H17   S    
C3    H11   S    
Cu1   N1    S    
C7    C8    A    
C21   H8    S    
C37   H21   S    
C21   C22   A    
C6    H22   S    
C5    C6    A    
C11   C13   A    
C27   H4    S    
C31   O8    A    
C26   C27   A    
Cu1   O5    S    
C29   N1    A    
C33   H16   S    
Cu2   O6    S    
C12   O3    A    
C32   C36   T    
C19   N2    A    
C9    C17   A    
Cu1   Cu2   S    
C7    H14   S    
C33   C34   D    
C10   C15   A    
C37   C38   S    
C29   H6    S    
C25   C29   A    
C23   O6    A    
C34   C35   S    
C30   N1    A    
C22   C24   A    
C1    O1    A    
C38   H19   S    
C5    C17   A    
C10   C11   A    
C24   N2    A    
C37   H20   S    
C20   H9    S    
C28   H15   S    
C24   C28   A    
C33   C36   S    
Cu2   O2    S    
C20   C21   A    
C8    C10   A    
C2    C12   S    
C15   H12   S    
C18   H5    S    
C27   C28   A    
C4    C23   S    
C5    H13   S    
C13   C37   S    
Cu1   O7    S    
C23   O5    A    
C25   C26   A    
Cu2   O4    S    
C14   H2    S    
C1    O2    A    
C31   C32   S    
Cu1   O3    S    
C3    C16   A    
C34   H1    S    
C8    C9    A    
Cu2   O8    S    
C22   C25   A    
Cu1   O1    S    
