data_mof_unit_17779.cif
_audit_creation_date              2012-12-10T19:05:50-0500
_audit_creation_method            fapswitch 2.2
_symmetry_space_group_name_H-M    P1
_symmetry_Int_Tables_number       1
_space_group_crystal_system       triclinic
_cell_length_a                    19.36092
_cell_length_b                    10.856993
_cell_length_c                    9.529257
_cell_angle_alpha                 90.063196
_cell_angle_beta                  90.027153
_cell_angle_gamma                 90.222469
_cell_volume                      2003.04635748

loop_
_atom_site_label
_atom_site_type_symbol
_atom_type_description
_atom_site_fract_x
_atom_site_fract_y
_atom_site_fract_z
_atom_type_partial_charge
C1    C     C_R   0.498085 0.262709 0.499761 0.802118
C2    C     C_R   0.291526 0.498430 0.500046 -0.027321
C3    C     C_R   0.930018 0.494337 0.500159 0.410934
C4    C     C_R   0.070149 0.494749 0.500168 0.409915
C5    C     C_R   0.817166 0.493470 0.627233 -0.155949
C6    C     C_R   0.745209 0.494674 0.627154 -0.190048
C7    C     C_R   0.708577 0.497577 0.500051 -0.031273
C8    C     C_R   0.745214 0.498015 0.372973 -0.190042
C9    C     C_R   0.817166 0.496846 0.372985 -0.155698
C10   C     C_R   0.853884 0.494830 0.500134 0.057928
C11   C     C_R   0.475711 0.062401 0.615059 0.042228
C12   C     C_R   0.367440 0.499633 0.500030 0.773976
C13   C     C_R   0.494362 0.130176 0.497364 -0.096521
C14   C     C_R   0.510095 0.064574 0.373670 -0.206981
C15   C     C_R   0.510445 0.935562 0.374018 -0.205961
C16   C     C_R   0.495561 0.870042 0.498268 -0.099419
C17   C     C_R   0.476705 0.938009 0.615942 0.043590
C18   C     C_3   0.461159 0.929617 0.769586 -0.128253
C19   C     C_3   0.457189 0.073568 0.766816 -0.133543
C20   C     C_R   0.558557 0.529369 0.073762 0.259721
C21   C     C_R   0.444211 0.459689 0.074229 -0.091887
C22   C     C_R   0.444136 0.460255 0.925500 -0.089693
C23   C     C_R   0.498848 0.737393 0.500001 0.802189
C24   C     C_R   0.558788 0.528226 0.926265 0.256927
C25   C     C_3   0.598571 0.645817 0.919602 -0.511517
C26   C     C_3   0.597224 0.648321 0.078817 -0.510173
C27   C     C_R   0.632593 0.499390 0.499992 0.792295
C28   C     C_R   0.254998 0.494207 0.627173 -0.196328
C29   C     C_R   0.183051 0.492821 0.627239 -0.155001
C30   C     C_R   0.146280 0.495628 0.500146 0.056997
C31   C     C_R   0.182931 0.499645 0.373000 -0.156734
C32   C     C_R   0.254880 0.501016 0.372950 -0.192264
Cu1   Cu    Cu3+1 0.500000 0.499980 0.640670 0.927616
Cu2   Cu    Cu3+1 0.500000 0.500020 0.359330 0.935136
H1    H     H_    0.281915 0.491800 0.726751 0.133850
H2    H     H_    0.524096 0.887929 0.278208 0.149892
H3    H     H_    0.507794 0.897676 0.826681 0.138270
H4    H     H_    0.499449 0.118442 0.827596 0.152384
H5    H     H_    0.398605 0.428514 0.129227 0.146928
H6    H     H_    0.398374 0.430842 0.870184 0.142655
H7    H     H_    0.651253 0.632567 0.876237 0.193952
H8    H     H_    0.568977 0.721475 0.870432 0.206255
H9    H     H_    0.649238 0.638317 0.126519 0.194614
H10   H     H_    0.156362 0.489573 0.727001 0.152509
H11   H     H_    0.565757 0.724832 0.121995 0.203504
H12   H     H_    0.156141 0.501862 0.273273 0.153013
H13   H     H_    0.281701 0.504200 0.273281 0.141685
H14   H     H_    0.843908 0.491503 0.727021 0.152308
H15   H     H_    0.718384 0.492947 0.726745 0.142799
H16   H     H_    0.718397 0.499015 0.273311 0.142686
H17   H     H_    0.843903 0.497514 0.273214 0.152327
H18   H     H_    0.523773 0.112273 0.277783 0.159450
N1    N     N_R   0.034401 0.497000 0.377663 -0.240060
N2    N     N_R   0.965717 0.496794 0.377659 -0.239948
N3    N     N_R   0.965764 0.491966 0.622670 -0.239992
N4    N     N_R   0.034453 0.492157 0.622675 -0.240340
N5    N     N_R   0.500440 0.500930 0.147930 -0.184949
N6    N     N_R   0.500440 0.500890 0.852020 -0.185981
O1    O     O_R   0.500000 0.319640 0.618810 -0.586645
O2    O     O_R   0.500010 0.319680 0.381230 -0.582063
O3    O     O_R   0.400140 0.499970 0.618830 -0.599607
O4    O     O_R   0.400150 0.500010 0.381250 -0.588937
O5    O     O_R   0.499990 0.680320 0.618770 -0.584311
O6    O     O_R   0.500000 0.680360 0.381190 -0.579389
O7    O     O_R   0.599850 0.499990 0.618750 -0.579833
O8    O     O_R   0.599860 0.500030 0.381170 -0.581646
C33   C     C_3   0.396000 0.851881 0.803362 -0.340817
C34   C     C_3   0.401015 0.795995 0.951015 -0.354309
C35   C     C_3   0.335238 0.726172 0.989981 -0.836999
H19   H     H_    0.290444 0.789763 0.991499 0.253636
H20   H     H_    0.325248 0.651007 0.913387 0.245898
H21   H     H_    0.341158 0.685065 0.095962 0.246078
H22   H     H_    0.445172 0.731227 0.955004 0.232080
H23   H     H_    0.410690 0.869004 0.030324 0.209912
H24   H     H_    0.347618 0.904761 0.793422 0.204854
H25   H     H_    0.391647 0.774648 0.727294 0.215344
C36   C     C_3   0.386794 0.138213 0.784639 -0.344093
C37   C     C_3   0.365167 0.146643 0.939123 -0.365050
C38   C     C_3   0.295884 0.211842 0.954957 -0.861813
H26   H     H_    0.298296 0.305959 0.909899 0.238650
H27   H     H_    0.254602 0.158647 0.900817 0.262567
H28   H     H_    0.282550 0.219295 0.067967 0.246952
H29   H     H_    0.360196 0.053525 0.985015 0.236352
H30   H     H_    0.405128 0.197890 0.999500 0.213633
H31   H     H_    0.391735 0.233460 0.743555 0.210239
H32   H     H_    0.345917 0.093446 0.720425 0.194541

loop_
_geom_bond_atom_site_label_1
_geom_bond_atom_site_label_2
_ccdc_geom_bond_type
C8    C9    A    
N3    N4    A    
Cu1   N6    S    
C4    N1    A    
C9    H17   S    
C2    C12   S    
Cu2   O8    S    
Cu1   O7    S    
C7    C8    A    
C36   C37   S    
C11   C19   S    
C28   C29   A    
C18   H3    S    
C1    O1    A    
C5    C6    A    
C3    N2    A    
C34   H23   S    
C15   C16   A    
Cu2   O4    S    
C7    C27   S    
C2    C32   A    
C18   C19   S    
C35   H20   S    
C26   H11   S    
C3    N3    A    
C37   H29   S    
C14   H18   S    
C20   C24   A    
C28   H1    S    
C16   C17   A    
C31   H12   S    
Cu2   N5    S    
C9    C10   A    
C23   O5    A    
C36   H31   S    
Cu1   O1    S    
C13   C14   A    
C4    N4    A    
Cu2   O2    S    
C25   C26   S    
C26   H9    S    
C17   C18   S    
C5    H14   S    
C33   C34   S    
C24   C25   S    
C1    O2    A    
C25   H7    S    
C38   H27   S    
C37   C38   S    
C34   C35   S    
C34   H22   S    
N1    N2    A    
C35   H21   S    
C21   N5    A    
C29   C30   A    
C27   O7    A    
C19   H4    S    
C12   O4    A    
C31   C32   A    
C21   H5    S    
Cu1   O5    S    
C22   H6    S    
Cu2   O6    S    
Cu1   Cu2   S    
Cu1   O3    S    
C23   O6    A    
C36   H32   S    
C16   C23   S    
C29   H10   S    
C32   H13   S    
C1    C13   S    
C8    H16   S    
C15   H2    S    
C11   C17   A    
C25   H8    S    
C22   N6    A    
C38   H28   S    
C6    C7    A    
C18   C33   S    
C5    C10   A    
C27   O8    A    
C12   O3    A    
C11   C13   A    
C30   C31   A    
C20   C26   S    
C19   C36   S    
C6    H15   S    
C35   H19   S    
C38   H26   S    
C37   H30   S    
C33   H24   S    
C24   N6    A    
C3    C10   S    
C14   C15   A    
C2    C28   A    
C33   H25   S    
C20   N5    A    
C21   C22   A    
C4    C30   S    
