data_mof_unit_60867.cif
_audit_creation_date              2012-12-10T17:54:06-0500
_audit_creation_method            fapswitch 2.2
_symmetry_space_group_name_H-M    P1
_symmetry_Int_Tables_number       1
_space_group_crystal_system       triclinic
_cell_length_a                    18.71682
_cell_length_b                    18.647745
_cell_length_c                    19.067812
_cell_angle_alpha                 109.662338
_cell_angle_beta                  109.282707
_cell_angle_gamma                 108.866013
_cell_volume                      5160.71480322

loop_
_atom_site_label
_atom_site_type_symbol
_atom_type_description
_atom_site_fract_x
_atom_site_fract_y
_atom_site_fract_z
_atom_type_partial_charge
C1    C     C_R   0.880753 0.380958 0.999305 0.797430
C2    C     C_R   0.815012 0.312741 0.998571 -0.077603
C3    C     C_R   0.743040 0.241692 0.920592 -0.206230
C4    C     C_R   0.678141 0.177558 0.920519 -0.216125
C5    C     C_R   0.686548 0.182726 0.998328 -0.083933
C6    C     C_R   0.763846 0.247161 0.074004 0.141339
C7    C     C_3   0.777322 0.309653 0.156973 -0.485701
C8    C     C_3   0.846105 0.380759 0.157026 -0.457688
C9    C     C_R   0.243449 0.571493 0.261575 0.131224
C10   C     C_R   0.183894 0.497680 0.182004 -0.101976
C11   C     C_R   0.190249 0.420974 0.166920 -0.205801
C12   C     C_R   0.884669 0.503918 0.882899 0.839202
C13   C     C_R   0.254061 0.420800 0.231974 -0.215752
C14   C     C_R   0.313365 0.497911 0.311484 -0.078690
C15   C     C_R   0.306088 0.571947 0.322671 0.123803
C16   C     C_3   0.341232 0.664553 0.386140 -0.506579
C17   C     C_3   0.270158 0.664451 0.316125 -0.453226
C18   C     C_R   0.256301 0.755512 0.073489 0.129062
C19   C     C_R   0.183461 0.684885 0.998614 -0.083516
C20   C     C_R   0.175830 0.679149 0.920525 -0.210451
C21   C     C_R   0.240381 0.744320 0.920474 -0.209122
C22   C     C_R   0.314426 0.814042 0.998396 -0.091327
C23   C     C_R   0.118593 0.618735 0.000073 0.794317
C24   C     C_R   0.319606 0.816103 0.073308 0.127990
C25   C     C_3   0.374012 0.866108 0.168246 -0.472002
C26   C     C_3   0.302201 0.796191 0.168378 -0.484732
C27   C     C_R   0.497487 0.380887 0.378954 0.789147
C28   C     C_R   0.614340 0.495326 0.610543 0.848706
C29   C     C_R   0.496785 0.618729 0.615419 0.803602
C30   C     C_R   0.378996 0.499698 0.378808 0.801215
C31   C     C_R   0.501582 0.881666 0.882607 0.798716
C32   C     C_R   0.618912 0.118743 0.999988 0.792060
C33   C     C_R   0.498465 0.118599 0.117497 0.792552
C34   C     C_R   0.117933 0.499341 0.117420 0.800438
C35   C     C_R   0.381295 0.881214 0.999811 0.798610
C36   C     C_R   0.480612 0.312055 0.234804 0.098894
C37   C     C_R   0.495020 0.312607 0.311601 -0.074561
C38   C     C_R   0.497359 0.240782 0.318953 -0.206923
C39   C     C_R   0.497808 0.176319 0.254913 -0.212399
C40   C     C_R   0.492849 0.181908 0.181908 -0.084272
C41   C     C_R   0.478430 0.247084 0.170457 0.138321
C42   C     C_3   0.524652 0.309551 0.147703 -0.483785
C43   C     C_3   0.527179 0.380971 0.218647 -0.457608
C44   C     C_R   0.514006 0.765008 0.690526 0.129101
C45   C     C_2   0.758626 0.509955 0.683228 -0.169597
C46   C     C_R   0.499943 0.685075 0.684843 -0.096742
C47   C     C_R   0.488961 0.671045 0.749849 -0.204524
C48   C     C_R   0.491950 0.736674 0.816934 -0.214281
C49   C     C_R   0.503293 0.815596 0.817949 -0.082080
C50   C     C_R   0.513892 0.826479 0.753034 0.125563
C51   C     C_3   0.526242 0.887309 0.718331 -0.488393
C52   C     C_3   0.525850 0.816868 0.646528 -0.467765
C53   C     C_2   0.676561 0.481806 0.666789 -0.328481
C54   C     C_2   0.816404 0.494679 0.743701 -0.214352
C55   C     C_2   0.825100 0.516673 0.822348 0.021286
C56   C     C_R   0.826512 0.311813 0.074252 0.102510
Cu1   Cu    Cu3+1 0.999590 0.561790 0.061400 0.952913
Cu2   Cu    Cu3+1 0.000410 0.438210 0.938600 0.942022
Cu3   Cu    Cu3+1 0.558560 0.561730 0.496790 0.940275
Cu4   Cu    Cu3+1 0.434970 0.438120 0.496790 0.947219
Cu5   Cu    Cu3+1 0.438600 0.999980 0.938570 0.945102
Cu6   Cu    Cu3+1 0.561400 0.999920 0.061330 0.946729
H1    H     H_    0.782645 0.541542 0.651070 0.171224
H2    H     H_    0.912802 0.407685 0.209013 0.196970
H3    H     H_    0.145325 0.361287 0.106099 0.162805
H4    H     H_    0.257524 0.361303 0.220078 0.149144
H5    H     H_    0.331233 0.670791 0.441757 0.191933
H6    H     H_    0.408184 0.707114 0.402093 0.205236
H7    H     H_    0.219808 0.671430 0.331888 0.205608
H8    H     H_    0.295993 0.706668 0.291287 0.189469
H9    H     H_    0.119982 0.625364 0.860184 0.151643
H10   H     H_    0.233172 0.739488 0.860051 0.156864
H11   H     H_    0.436299 0.864933 0.190294 0.206245
H12   H     H_    0.651513 0.441087 0.691663 0.159845
H13   H     H_    0.379538 0.931746 0.196291 0.192015
H14   H     H_    0.322958 0.754202 0.189648 0.188812
H15   H     H_    0.266766 0.821539 0.197254 0.207237
H16   H     H_    0.503275 0.236925 0.375874 0.150726
H17   H     H_    0.504004 0.123553 0.263243 0.152253
H18   H     H_    0.589840 0.317095 0.160727 0.186130
H19   H     H_    0.482733 0.296136 0.082732 0.204689
H20   H     H_    0.593894 0.429887 0.272907 0.211396
H21   H     H_    0.486722 0.408708 0.194546 0.197466
H22   H     H_    0.478754 0.610172 0.749150 0.159557
H23   H     H_    0.855407 0.468786 0.724851 0.152139
H24   H     H_    0.483236 0.724987 0.866220 0.151594
H25   H     H_    0.469102 0.897007 0.695712 0.206606
H26   H     H_    0.590075 0.948032 0.761665 0.193916
H27   H     H_    0.468364 0.785961 0.582680 0.190555
H28   H     H_    0.589341 0.837005 0.648051 0.207483
H29   H     H_    0.735019 0.238165 0.860389 0.151716
H30   H     H_    0.621082 0.125213 0.860291 0.152325
H31   H     H_    0.719668 0.318025 0.150128 0.186312
H32   H     H_    0.804385 0.295586 0.208908 0.205076
H33   H     H_    0.828222 0.430312 0.150065 0.212077
O1    O     O_R   0.909480 0.462010 0.051860 -0.587016
O2    O     O_R   0.445180 0.357580 0.407200 -0.588227
O3    O     O_R   0.638540 0.552110 0.586390 -0.581289
O4    O     O_R   0.534170 0.447730 0.586390 -0.593645
O5    O     O_R   0.548350 0.642270 0.586380 -0.584602
O6    O     O_R   0.443970 0.537890 0.586380 -0.587222
O7    O     O_R   0.459360 0.552110 0.407190 -0.586652
O8    O     O_R   0.354990 0.447740 0.407190 -0.582630
O9    O     O_R   0.448700 0.909820 0.858480 -0.588060
O10   O     O_R   0.552410 0.909770 0.962140 -0.583866
O11   O     O_R   0.538310 0.090150 0.948110 -0.588302
O12   O     O_R   0.910180 0.357650 0.948150 -0.586528
O13   O     O_R   0.642020 0.090090 0.051780 -0.581414
O14   O     O_R   0.447590 0.090130 0.037760 -0.581629
O15   O     O_R   0.551300 0.090080 0.141420 -0.588188
O16   O     O_R   0.357980 0.909810 0.948120 -0.585644
O17   O     O_R   0.461690 0.909750 0.051790 -0.588102
O18   O     O_R   0.910060 0.552180 0.962250 -0.555889
O19   O     O_R   0.910760 0.447820 0.858550 -0.609239
O20   O     O_R   0.089820 0.642350 0.051850 -0.586651
O21   O     O_R   0.090520 0.537990 0.948140 -0.588522
O22   O     O_R   0.089240 0.552180 0.141450 -0.589020
O23   O     O_R   0.089940 0.447820 0.037750 -0.587077
O24   O     O_R   0.549550 0.461960 0.407200 -0.589987
N1    N     N_3   0.787554 0.566381 0.855946 -0.573194
H34   H     H_    0.721668 0.525756 0.831147 0.218072
H35   H     H_    0.796769 0.617103 0.841808 0.244325

loop_
_geom_bond_atom_site_label_1
_geom_bond_atom_site_label_2
_ccdc_geom_bond_type
C34   O23   A    
C42   H18   S    
C43   H21   S    
C41   C42   S    
C52   H28   S    
C19   C20   A    
C18   C26   S    
Cu4   O4    S    
Cu5   O14   S    
C8    C56   S    
C52   H27   S    
C7    C8    S    
Cu1   O20   S    
Cu6   O10   S    
C17   H7    S    
C22   C35   S    
C42   H19   S    
C18   C24   A    
C36   C37   A    
C31   C49   S    
C18   C19   A    
C5    C6    A    
Cu6   O13   S    
C28   O3    A    
C15   C16   S    
Cu2   O23   S    
C3    H29   S    
Cu2   O12   S    
C23   O21   A    
C54   C55   D    
C53   H12   S    
N1    H35   S    
C16   C17   S    
Cu1   O1    S    
C30   O8    A    
C26   H14   S    
C20   H9    S    
C16   H6    S    
Cu4   O8    S    
C9    C10   A    
C25   H11   S    
C13   H4    S    
C5    C32   S    
C44   C52   S    
C34   O22   A    
C45   C53   D    
C17   H8    S    
C32   O11   A    
C21   C22   A    
Cu2   O21   S    
Cu3   O5    S    
C31   O10   A    
C36   C41   A    
C8    H33   S    
C14   C30   S    
C44   C46   A    
C12   O19   A    
C55   N1    S    
C7    H31   S    
C26   H15   S    
C21   H10   S    
C51   C52   S    
C33   C40   S    
Cu5   O9    S    
C24   C25   S    
Cu4   O2    S    
C51   H25   S    
C39   C40   A    
Cu1   O18   S    
C38   H16   S    
C25   C26   S    
C45   H1    S    
C3    C4    A    
C25   H13   S    
C39   H17   S    
C19   C23   S    
C37   C38   A    
C47   C48   A    
Cu6   O15   S    
C30   O7    A    
C50   C51   S    
C29   O6    A    
C10   C34   S    
C16   H5    S    
C47   H22   S    
Cu5   O11   S    
C1    O12   A    
C28   O4    A    
C9    C17   S    
C48   C49   A    
C8    H2    S    
C45   C54   S    
C48   H24   S    
C33   O14   A    
C42   C43   S    
Cu4   O6    S    
Cu5   O16   S    
C35   O16   A    
N1    H34   S    
Cu1   O22   S    
C12   O18   A    
C44   C50   A    
Cu3   O3    S    
C7    H32   S    
C46   C47   A    
C27   O2    A    
Cu3   O24   S    
C29   O5    A    
Cu3   O7    S    
C6    C56   A    
C4    C5    A    
C51   H26   S    
C54   H23   S    
C28   C53   S    
C6    C7    S    
C27   O24   A    
C29   C46   S    
C31   O9    A    
C2    C3    A    
C9    C15   A    
C2    C56   A    
C11   C13   A    
Cu1   Cu2   S    
C38   C39   A    
C27   C37   S    
C1    O1    A    
C1    C2    S    
C22   C24   A    
Cu5   Cu6   S    
C12   C55   S    
C10   C11   A    
C23   O20   A    
Cu3   Cu4   S    
Cu6   O17   S    
C20   C21   A    
C49   C50   A    
C32   O13   A    
Cu2   O19   S    
C43   H20   S    
C14   C15   A    
C36   C43   S    
C40   C41   A    
C33   O15   A    
C13   C14   A    
C35   O17   A    
C11   H3    S    
C4    H30   S    
