data_mof_unit_9182.cif
_audit_creation_date              2012-12-11T18:13:13-0500
_audit_creation_method            fapswitch 2.2
_symmetry_space_group_name_H-M    P1
_symmetry_Int_Tables_number       1
_space_group_crystal_system       triclinic
_cell_length_a                    8.295991
_cell_length_b                    12.684448
_cell_length_c                    18.74102
_cell_angle_alpha                 99.285627
_cell_angle_beta                  91.374885
_cell_angle_gamma                 98.479287
_cell_volume                      1922.69409518

loop_
_atom_site_label
_atom_site_type_symbol
_atom_type_description
_atom_site_fract_x
_atom_site_fract_y
_atom_site_fract_z
_atom_type_partial_charge
Ba1   Ba    Ba6+2 0.852780 0.548340 0.465070 1.655444
Ba2   Ba    Ba6+2 0.337060 0.451750 0.534940 1.656706
C1    C     C_3   0.584731 0.900954 0.251741 -0.422423
C2    C     C_3   0.630492 0.819093 0.296628 0.355096
C3    C     C_3   0.450573 0.277062 0.311895 0.302166
C4    C     C_3   0.383553 0.231074 0.234555 -0.042442
C5    C     C_3   0.972984 0.169169 0.722887 0.312086
C6    C     C_3   0.028320 0.177463 0.801983 -0.354228
C7    C     C_3   0.450703 0.213337 0.774621 0.509193
C8    C     C_3   0.609217 0.201138 0.813550 -0.471001
C9    C     C_R   0.996015 0.459029 0.050170 0.004946
C10   C     C_R   0.892040 0.410776 0.098024 0.036731
C11   C     C_R   0.726667 0.376355 0.077191 -0.094502
C12   C     C_3   0.127426 0.761171 0.264182 0.365599
C13   C     C_R   0.665691 0.387917 0.009149 -0.104728
C14   C     C_R   0.770382 0.430809 0.959708 0.036224
C15   C     C_R   0.936265 0.465664 0.979881 0.016353
C16   C     C_R   0.712337 0.436774 0.889913 -0.122125
C17   C     C_R   0.820619 0.463204 0.836377 -0.033908
C18   C     C_R   0.984611 0.506698 0.857810 0.006387
C19   C     C_R   0.041432 0.508584 0.930173 -0.009255
C20   C     C_R   0.771368 0.446438 0.762034 -0.016775
C21   C     C_R   0.879309 0.482241 0.711994 -0.267875
C22   C     C_R   0.033159 0.540298 0.733635 0.043398
C23   C     C_3   0.106744 0.786936 0.188308 -0.370994
C24   C     C_R   0.090043 0.550772 0.807688 -0.048313
C25   C     C_R   0.159050 0.500715 0.072502 -0.010747
C26   C     C_R   0.216479 0.499027 0.144292 -0.004595
C27   C     C_R   0.110968 0.450827 0.193113 -0.055188
C28   C     C_R   0.953057 0.400304 0.166667 -0.044873
C29   C     C_R   0.247682 0.602923 0.833837 -0.052378
C30   C     C_R   0.307097 0.599339 0.904312 0.036616
C31   C     C_R   0.203899 0.551367 0.952578 0.004973
C32   C     C_R   0.262605 0.547978 0.023766 0.012260
C33   C     C_R   0.469246 0.642147 0.927271 -0.091646
C34   C     C_3   0.315203 0.803962 0.697297 0.502086
C35   C     C_R   0.527641 0.638538 0.997320 -0.095214
C36   C     C_R   0.424965 0.592079 0.046055 0.031801
C37   C     C_R   0.378917 0.546284 0.166959 -0.042813
C38   C     C_R   0.482311 0.589980 0.116685 -0.110250
C39   C     C_R   0.431974 0.550708 0.239685 -0.004171
C40   C     C_R   0.323932 0.510057 0.288680 -0.302113
C41   C     C_R   0.165649 0.457660 0.266897 0.038214
C42   C     C_R   0.768206 0.179670 0.519246 -0.280305
C43   C     C_R   0.430806 0.806217 0.468131 -0.243679
C44   C     C_R   0.409769 0.980776 0.436452 -0.124495
C45   C     C_3   0.311456 0.881611 0.768702 -0.429497
C46   C     C_R   0.343009 0.873434 0.435956 -0.023653
C47   C     C_R   0.580856 0.846787 0.505728 0.076344
C48   C     C_R   0.648244 0.957634 0.508863 -0.058847
C49   C     C_R   0.561022 0.024855 0.473182 -0.070822
C50   C     C_R   0.621990 0.136560 0.479961 0.036886
C51   C     C_R   0.858854 0.114191 0.550640 -0.038427
C52   C     C_R   0.797670 0.004507 0.547521 -0.093935
C53   C     C_3   0.956480 0.209267 0.376076 0.270462
C54   C     C_3   0.956667 0.088032 0.359261 -0.340140
C55   C     C_3   0.744548 0.712686 0.683026 0.307509
C56   C     C_3   0.814840 0.761266 0.759535 -0.033476
H1    H     H_    0.285629 0.835130 0.813549 0.076635
H2    H     H_    0.430937 0.934676 0.781339 0.099010
H3    H     H_    0.214620 0.932738 0.765918 0.112822
H4    H     H_    0.831092 0.225087 0.385806 0.009316
H5    H     H_    0.038056 0.242277 0.424901 0.070261
H6    H     H_    0.881706 0.053278 0.308947 0.115280
H7    H     H_    0.905542 0.048562 0.403978 0.091912
H8    H     H_    0.083392 0.071405 0.351732 0.134635
H9    H     H_    0.839156 0.674131 0.652616 0.005220
H10   H     H_    0.637745 0.650321 0.685751 0.052353
H11   H     H_    0.536888 0.967172 0.287061 0.097263
H12   H     H_    0.932803 0.813417 0.755168 0.114900
H13   H     H_    0.837243 0.695641 0.789425 0.011117
H14   H     H_    0.518067 0.785564 0.321315 -0.057291
H15   H     H_    0.489316 0.860879 0.209522 0.114238
H16   H     H_    0.352857 0.313222 0.341849 -0.009746
H17   H     H_    0.275951 0.168019 0.236577 0.105842
H18   H     H_    0.343130 0.296820 0.209461 0.032163
H19   H     H_    0.692936 0.935505 0.224727 0.124330
H20   H     H_    0.144199 0.722056 0.148000 0.071997
H21   H     H_    0.929065 0.245769 0.715766 -0.027238
H22   H     H_    0.874379 0.099294 0.709837 0.001045
H23   H     H_    0.114997 0.253240 0.819440 0.137423
H24   H     H_    0.924184 0.178641 0.837649 0.074741
H25   H     H_    0.086279 0.106172 0.809209 0.095032
H26   H     H_    0.357145 0.179430 0.809321 0.031355
H27   H     H_    0.714382 0.247227 0.792253 0.077988
H28   H     H_    0.625104 0.114658 0.805635 0.101353
H29   H     H_    0.047043 0.684040 0.267328 0.090387
H30   H     H_    0.604701 0.227664 0.872666 0.100791
H31   H     H_    0.643669 0.343208 0.114368 0.099591
H32   H     H_    0.537154 0.361378 0.994696 0.069320
H33   H     H_    0.837469 0.472474 0.655819 0.057373
H34   H     H_    0.583192 0.415321 0.877363 0.115849
H35   H     H_    0.872691 0.356268 0.199779 0.112597
H36   H     H_    0.653598 0.671932 0.013306 0.070942
H37   H     H_    0.608183 0.623480 0.131664 0.111737
H38   H     H_    0.256522 0.751271 0.273417 -0.072617
H39   H     H_    0.366073 0.515929 0.344469 0.072779
H40   H     H_    0.338156 0.029784 0.410704 0.101149
H41   H     H_    0.867959 0.958211 0.576138 0.100481
H42   H     H_    0.814793 0.264909 0.523629 0.057883
H43   H     H_    0.376658 0.723153 0.467869 0.076118
H44   H     H_    0.977150 0.793069 0.176117 0.148053
H45   H     H_    0.183737 0.864806 0.183874 0.107087
H46   H     H_    0.410313 0.754137 0.704771 0.052528
O1    O     O_2   0.873090 0.425890 0.325140 -0.466782
O2    O     O_3   0.696316 0.795062 0.649918 -0.643527
O3    O     O_3   0.084034 0.845687 0.314585 -0.596746
O4    O     O_2   0.316610 0.574140 0.674900 -0.475349
O5    O     O_3   0.067290 0.565720 0.585630 -0.466558
O6    O     O_3   0.530210 0.372990 0.631200 -0.446328
O7    O     O_3   0.158471 0.745594 0.680206 -0.656521
O8    O     O_3   0.611340 0.366290 0.463630 -0.476500
O9    O     O_3   0.108550 0.314140 0.595200 -0.453633
O10   O     O_2   0.193540 0.124182 0.547794 -0.476536
O11   O     O_3   0.103729 0.149776 0.679405 -0.580973
O12   O     O_3   0.122420 0.434370 0.414380 -0.491737
O13   O     O_3   0.578370 0.633800 0.536380 -0.483721
O14   O     O_2   0.341510 0.231850 0.465510 -0.457646
O15   O     O_3   0.496849 0.192807 0.343726 -0.665270
O16   O     O_2   0.498371 0.507475 0.748227 -0.486145
O17   O     O_3   0.419503 0.320030 0.773616 -0.573836
O18   O     O_3   0.659500 0.627100 0.368810 -0.474517
O19   O     O_2   0.768809 0.545430 0.244102 -0.494560
O20   O     O_3   0.009206 0.253640 0.315781 -0.648708
O21   O     O_3   0.702901 0.740690 0.252006 -0.597622
O22   O     O_2   0.848200 0.768190 0.534530 -0.466982
O23   O     O_3   0.081160 0.685950 0.404810 -0.479660
O24   O     O_2   0.010673 0.880662 0.449902 -0.491068
P1    P     P_3+3 0.041040 0.394770 0.336330 0.968351
P2    P     P_3+3 0.672880 0.754030 0.556100 0.983153
P3    P     P_3+3 0.130979 0.823048 0.401858 0.947699
P4    P     P_3+3 0.148670 0.605320 0.663680 0.973628
P5    P     P_3+3 0.061998 0.174446 0.592397 0.972853
P6    P     P_3+3 0.639727 0.613367 0.275320 0.949072
P7    P     P_3+3 0.519073 0.231017 0.437728 0.939232
P8    P     P_3+3 0.559660 0.399208 0.727056 0.970284
H47   H     H_    0.719876 0.860955 0.340954 0.072377
N1    N     N_2   0.704281 0.825273 0.798624 -0.402789
H48   H     H_    0.591570 0.781793 0.803907 0.183137
C57   C     C_3   0.772130 0.891196 0.865813 -0.248043
H49   H     H_    0.680576 0.940164 0.890008 0.104419
H50   H     H_    0.882133 0.947333 0.855838 0.113928
H51   H     H_    0.804857 0.839139 0.904568 0.100499
H52   H     H_    0.557530 0.340627 0.310667 0.048215
N2    N     N_2   0.506321 0.184992 0.191029 -0.424074
H53   H     H_    0.567307 0.133838 0.215243 0.232804
C58   C     C_3   0.451248 0.139134 0.117230 -0.275751
H54   H     H_    0.556442 0.115735 0.086193 0.111607
H55   H     H_    0.397883 0.199171 0.090645 0.116920
H56   H     H_    0.358479 0.066056 0.116261 0.110129
N3    N     N_2   0.421820 0.147155 0.703921 -0.369011
H57   H     H_    0.351554 0.073869 0.705283 0.187957
C59   C     C_3   0.555342 0.136205 0.657387 -0.170766
H58   H     H_    0.620628 0.071694 0.670645 0.042302
H59   H     H_    0.643606 0.211155 0.661482 0.049285
H60   H     H_    0.502486 0.113682 0.601950 0.133230
H61   H     H_    0.327176 0.645669 0.800027 0.080937
H62   H     H_    0.552252 0.676769 0.890795 0.074402
N4    N     N_2   0.360790 0.863411 0.639508 -0.462365
H63   H     H_    0.469674 0.914590 0.648855 0.170095
C60   C     C_3   0.231696 0.903480 0.603608 -0.167532
H64   H     H_    0.286032 0.962471 0.570649 0.114087
H65   H     H_    0.152275 0.942748 0.643051 0.121861
H66   H     H_    0.156351 0.835421 0.567530 0.155140

loop_
_geom_bond_atom_site_label_1
_geom_bond_atom_site_label_2
_ccdc_geom_bond_type
O21   P6    S    
C53   C54   S    
C8    H27   S    
C6    H25   S    
C39   C40   A    
O6    P8    S    
C58   H54   S    
C57   H51   S    
C60   H64   S    
Ba2   O14   S    
C5    C6    S    
Ba2   O5    S    
C51   C52   A    
C10   C11   A    
C8    H30   S    
C48   C52   A    
C2    O21   S    
C3    O15   S    
C6    H24   S    
C26   C27   A    
C58   H55   S    
C35   C36   A    
C22   C24   A    
C12   H29   S    
Ba1   Ba2   S    
C28   H35   S    
Ba1   P1    S    
Ba1   O8    S    
C3    C4    S    
Ba2   O9    S    
C23   H44   S    
C19   C31   A    
O22   P2    D    
C54   H7    S    
C53   H4    S    
C34   C45   S    
C16   C17   A    
C5    O11   S    
C3    H16   S    
Ba1   O18   S    
O18   P6    S    
C34   N4    S    
C60   H65   S    
C2    H47   S    
Ba2   O12   S    
C42   C51   A    
Ba2   O6    S    
O12   P1    S    
C17   C18   A    
C14   C15   A    
C53   H5    S    
O20   P1    S    
Ba2   P4    S    
C21   C22   A    
N4    C60   S    
C46   P3    S    
Ba1   O12   S    
C9    C25   A    
C59   H59   S    
C7    C8    S    
C41   P1    S    
C11   H31   S    
C56   N1    S    
C45   H2    S    
C55   O2    S    
C44   H40   S    
C24   C29   A    
C12   C23   S    
O9    P5    S    
C27   C41   A    
C1    H11   S    
C55   H9    S    
C1    H15   S    
C12   H38   S    
C39   P6    S    
N2    C58   S    
Ba2   O13   S    
N2    H53   S    
C25   C32   A    
C44   C46   A    
C55   H10   S    
O19   P6    D    
C23   H20   S    
C30   C33   A    
C4    H17   S    
C17   C20   A    
C51   P5    S    
Ba1   O22   S    
O3    P3    S    
Ba1   P2    S    
C40   H39   S    
C37   C38   A    
C4    N2    S    
C56   H12   S    
C3    H52   S    
O1    P1    D    
O11   P5    S    
C26   C37   A    
C48   C49   A    
C44   C49   A    
O15   P7    S    
C49   C50   A    
C20   P8    S    
O16   P8    D    
C27   C28   A    
C22   P4    S    
C7    O17   S    
N4    H63   S    
C43   C47   A    
N3    H57   S    
Ba2   O8    S    
C58   H56   S    
C34   O7    S    
C54   H6    S    
C31   C32   A    
Ba1   O13   S    
C57   H49   S    
C59   H60   S    
O13   P2    S    
C29   H61   S    
C43   H43   S    
C14   C16   A    
C12   O3    S    
C11   C13   A    
C21   H33   S    
C52   H41   S    
C40   C41   A    
C38   H37   S    
C1    C2    S    
C1    H19   S    
O24   P3    D    
C2    H14   S    
C60   H66   S    
C33   C35   A    
C5    H21   S    
C43   C46   A    
O2    P2    S    
C53   O20   S    
C8    H28   S    
C10   C28   A    
C32   C36   A    
C29   C30   A    
C23   H45   S    
Ba1   O23   S    
C57   H50   S    
C9    C15   A    
C45   H3    S    
C9    C10   A    
C4    H18   S    
C6    H23   S    
N1    C57   S    
C47   P2    S    
O5    P4    S    
C34   H46   S    
C16   H34   S    
C30   C31   A    
C33   H62   S    
C13   H32   S    
C36   C38   A    
C42   H42   S    
C42   C50   A    
C55   C56   S    
C18   C24   A    
Ba1   O5    S    
C54   H8    S    
Ba2   O4    S    
O10   P5    D    
C35   H36   S    
N3    C59   S    
O17   P8    S    
C56   H13   S    
O23   P3    S    
O4    P4    D    
N1    H48   S    
C7    H26   S    
C45   H1    S    
O7    P4    S    
C18   C19   A    
C37   C39   A    
C7    N3    S    
C47   C48   A    
C25   C26   A    
C50   P7    S    
C20   C21   A    
O8    P7    S    
C59   H58   S    
O14   P7    D    
C13   C14   A    
Ba1   O1    S    
C5    H22   S    
C15   C19   A    
