data_mof_unit_17970.cif
_audit_creation_date              2012-12-10T22:11:16-0500
_audit_creation_method            fapswitch 2.2
_symmetry_space_group_name_H-M    P1
_symmetry_Int_Tables_number       1
_space_group_crystal_system       triclinic
_cell_length_a                    12.178393
_cell_length_b                    12.310938
_cell_length_c                    23.192486
_cell_angle_alpha                 90.568708
_cell_angle_beta                  90.658505
_cell_angle_gamma                 90.135311
_cell_volume                      3476.77849571

loop_
_atom_site_label
_atom_site_type_symbol
_atom_type_description
_atom_site_fract_x
_atom_site_fract_y
_atom_site_fract_z
_atom_type_partial_charge
C1    C     C_R   0.655284 0.997566 0.579998 1.011627
C2    C     C_R   0.344832 0.002388 0.419904 0.994565
C3    C     C_R   0.899683 0.752171 0.158916 0.102202
C4    C     C_R   0.111635 0.230836 0.849880 0.088026
C5    C     C_R   0.075835 0.898059 0.167417 0.579492
C6    C     C_R   0.922311 0.106215 0.829747 0.584814
C7    C     C_R   0.074867 0.819156 0.124797 0.561503
C8    C     C_R   0.921794 0.186321 0.871478 0.572008
C9    C     C_R   0.912413 0.113314 0.165364 -0.328285
C10   C     C_R   0.087032 0.888031 0.835297 -0.328186
C11   C     C_R   0.912061 0.193282 0.124357 0.658407
C12   C     C_R   0.087348 0.807744 0.876163 0.659180
C13   C     C_R   0.162998 0.917309 0.296560 0.697735
C14   C     C_R   0.838187 0.084081 0.702224 0.705886
C15   C     C_R   0.245763 0.916506 0.337892 0.488191
C16   C     C_R   0.755242 0.084319 0.661154 0.492573
C17   C     C_R   0.813133 0.094779 0.294583 0.214484
C18   C     C_R   0.186705 0.907370 0.704821 0.198342
C19   C     C_R   0.736105 0.088285 0.338234 -0.297438
C20   C     C_R   0.262807 0.913330 0.660830 -0.270525
C21   C     C_3   0.992213 0.009265 0.248383 0.105837
C22   C     C_3   0.007772 0.991586 0.751321 0.102299
C23   C     C_R   0.654132 0.001277 0.420998 0.925682
C24   C     C_R   0.344071 0.998550 0.577910 0.896357
C25   C     C_R   0.092104 0.008597 0.290768 -0.103337
C26   C     C_R   0.907710 0.991967 0.709084 -0.107081
C27   C     C_R   0.261185 0.005373 0.374852 -0.463931
C28   C     C_R   0.738891 0.994557 0.624992 -0.470567
C29   C     C_R   0.893657 0.010405 0.289542 -0.025732
C30   C     C_R   0.105574 0.990834 0.709631 -0.057571
C31   C     C_R   0.734697 0.001164 0.375974 -0.174758
C32   C     C_R   0.260804 0.997655 0.621357 -0.216987
C33   C     C_R   0.997144 0.106034 0.207109 -0.071991
C34   C     C_R   0.002620 0.895367 0.793239 -0.069276
C35   C     C_R   0.999175 0.267033 0.122676 -0.270172
C36   C     C_R   0.000416 0.733857 0.877656 -0.270207
C37   C     C_R   0.987245 0.909990 0.206158 -0.088683
C38   C     C_R   0.013494 0.090718 0.793180 -0.095396
C39   C     C_R   0.988081 0.745055 0.120374 -0.370913
C40   C     C_R   0.014436 0.251258 0.881172 -0.381887
C41   C     C_R   0.992125 0.660582 0.076010 0.965378
C42   C     C_R   0.008378 0.338044 0.924568 0.957459
C43   C     C_R   0.999309 0.351647 0.080169 0.920693
C44   C     C_R   0.000622 0.648522 0.919868 0.936569
C45   C     C_R   0.106221 0.096648 0.331203 0.078292
C46   C     C_R   0.892806 0.902798 0.669490 0.075392
C47   C     C_R   0.194368 0.096614 0.369855 0.553998
C48   C     C_R   0.804874 0.902732 0.630669 0.561965
C49   C     C_R   0.889221 0.922277 0.328813 0.496246
C50   C     C_R   0.108873 0.078328 0.669807 0.589923
C51   C     C_R   0.810122 0.916530 0.370823 0.071804
C52   C     C_R   0.182266 0.080042 0.624839 0.060058
C53   C     C_R   0.089480 0.176105 0.201332 0.726376
C54   C     C_R   0.909692 0.826172 0.799505 0.720337
C55   C     C_R   0.088148 0.257187 0.160493 -0.337309
C56   C     C_R   0.911025 0.744681 0.840173 -0.336568
C57   C     C_R   0.893858 0.839659 0.197678 0.171151
C58   C     C_R   0.111535 0.152573 0.805408 0.158628
H1    H     H_    0.844016 0.057656 0.165630 0.202434
H2    H     H_    0.155483 0.943653 0.835670 0.184954
H3    H     H_    0.158324 0.311098 0.157698 0.221068
H4    H     H_    0.840567 0.691156 0.843060 0.222443
H5    H     H_    0.677908 0.153777 0.343820 0.197243
H6    H     H_    0.323217 0.849464 0.656474 0.197203
O1    O     O_R   0.621380 0.090460 0.561410 -0.570119
O2    O     O_R   0.378620 0.909540 0.438590 -0.574817
O3    O     O_R   0.617150 0.909540 0.438590 -0.596094
O4    O     O_R   0.382850 0.090460 0.561410 -0.625155
O5    O     O_R   0.619720 0.093230 0.440890 -0.645222
O6    O     O_R   0.380280 0.906770 0.559110 -0.637107
O7    O     O_R   0.618800 0.906770 0.559110 -0.561916
O8    O     O_R   0.381200 0.093230 0.440890 -0.570017
O9    O     O_R   0.087590 0.627480 0.058790 -0.540227
O10   O     O_R   0.912410 0.372520 0.941210 -0.534820
O11   O     O_R   0.905660 0.383870 0.059980 -0.561828
O12   O     O_R   0.094340 0.616130 0.940020 -0.562520
O13   O     O_R   0.092570 0.390420 0.063230 -0.636157
O14   O     O_R   0.907430 0.609580 0.936770 -0.632524
O15   O     O_R   0.900680 0.620930 0.055550 -0.651727
O16   O     O_R   0.099320 0.379070 0.944450 -0.657106
Zn1   Zn    Zn3+2 0.501730 0.123520 0.501540 1.049700
Zn2   Zn    Zn3+2 0.498270 0.876480 0.498460 1.062015
Zn3   Zn    Zn3+2 0.125690 0.504390 0.002180 1.059249
Zn4   Zn    Zn3+2 0.874310 0.495610 0.997820 1.071154
F1    F     F_    0.212269 0.185420 0.403991 -0.642752
F2    F     F_    0.786317 0.813289 0.597115 -0.632982
F3    F     F_    0.959280 0.837045 0.324478 -0.668463
F4    F     F_    0.039467 0.163808 0.674445 -0.647821
F5    F     F_    0.185340 0.163175 0.230687 -0.644557
F6    F     F_    0.813472 0.840013 0.770603 -0.641841
N1    N     N_2   0.792044 0.855923 0.226201 -0.298932
H7    H     H_    0.772200 0.794242 0.254048 0.263189
C59   C     C_3   0.699461 0.888449 0.190521 -0.718730
H8    H     H_    0.655961 0.956206 0.212173 0.253038
H9    H     H_    0.641048 0.819570 0.184908 0.259650
H10   H     H_    0.725365 0.915171 0.147094 0.245512
N2    N     N_2   0.213749 0.128511 0.778335 -0.300740
H11   H     H_    0.265116 0.077565 0.800936 0.222703
C60   C     C_3   0.270176 0.215379 0.748812 -0.638455
H12   H     H_    0.310372 0.181908 0.709897 0.231628
H13   H     H_    0.335973 0.250534 0.776806 0.250050
H14   H     H_    0.212159 0.280310 0.735594 0.252923
F7    F     F_    0.165326 0.963894 0.170824 -0.587192
F8    F     F_    0.830740 0.043540 0.824454 -0.586058
F9    F     F_    0.147949 0.822782 0.267041 -0.585779
F10   F     F_    0.855100 0.180004 0.730174 -0.580997
N3    N     N_2   0.815413 0.191715 0.261488 -0.314791
H15   H     H_    0.852704 0.256555 0.282159 0.237712
C61   C     C_3   0.714091 0.222359 0.232575 -0.718166
H16   H     H_    0.731982 0.285853 0.200321 0.254449
H17   H     H_    0.654634 0.256532 0.263757 0.233294
H18   H     H_    0.677023 0.151504 0.209606 0.263825
N4    N     N_2   0.188156 0.812974 0.739779 -0.314637
H19   H     H_    0.154727 0.745174 0.719971 0.238678
C62   C     C_3   0.290751 0.789704 0.769499 -0.711113
H20   H     H_    0.351658 0.754988 0.739269 0.234136
H21   H     H_    0.324779 0.864487 0.790224 0.259593
H22   H     H_    0.275747 0.728981 0.803594 0.261332
N5    N     N_2   0.810477 0.827659 0.409707 -0.262923
H23   H     H_    0.886659 0.812942 0.427877 0.260902
C63   C     C_3   0.760053 0.729535 0.386742 -0.614985
H24   H     H_    0.753454 0.668713 0.421560 0.231957
H25   H     H_    0.810538 0.694568 0.351571 0.245138
H26   H     H_    0.676192 0.746592 0.369803 0.246003
N6    N     N_2   0.169207 0.159680 0.580938 -0.265282
H27   H     H_    0.188599 0.134495 0.539768 0.247824
C64   C     C_3   0.208646 0.267653 0.595468 -0.595241
H28   H     H_    0.297863 0.266102 0.605824 0.229062
H29   H     H_    0.163561 0.301566 0.632767 0.266906
H30   H     H_    0.194808 0.322246 0.558273 0.231322
N7    N     N_2   0.814476 0.672602 0.160148 -0.284198
H31   H     H_    0.766413 0.664808 0.123526 0.266554
C65   C     C_3   0.842636 0.572285 0.188627 -0.695361
H32   H     H_    0.768525 0.519983 0.191343 0.230442
H33   H     H_    0.873168 0.589492 0.233135 0.253984
H34   H     H_    0.906591 0.527771 0.164263 0.224792
N8    N     N_2   0.211750 0.287011 0.862401 -0.288328
H35   H     H_    0.208900 0.370664 0.862696 0.250484
C66   C     C_3   0.282880 0.237483 0.905145 -0.622205
H36   H     H_    0.360054 0.285203 0.909404 0.234073
H37   H     H_    0.304264 0.153381 0.891947 0.237704
H38   H     H_    0.242479 0.234793 0.947749 0.257214
F11   F     F_    0.160133 0.815895 0.087522 -0.559599
F12   F     F_    0.830162 0.197240 0.903918 -0.560428
F13   F     F_    0.827399 0.196588 0.085769 -0.616114
F14   F     F_    0.171888 0.804258 0.914824 -0.613353
F15   F     F_    0.310707 0.827198 0.341811 -0.580169
F16   F     F_    0.691388 0.174289 0.656538 -0.577514
N9    N     N_2   0.033062 0.186883 0.332282 -0.298740
H39   H     H_    0.067990 0.257302 0.317169 0.274897
C67   C     C_3   0.976086 0.204595 0.386290 -0.705104
H40   H     H_    0.904755 0.258777 0.379090 0.222966
H41   H     H_    0.030178 0.245062 0.418762 0.293445
H42   H     H_    0.945804 0.126542 0.403838 0.228968
N10   N     N_2   0.965091 0.811770 0.669492 -0.294724
H43   H     H_    0.929409 0.742321 0.685331 0.275828
C68   C     C_3   0.022158 0.791261 0.615809 -0.704215
H44   H     H_    0.093495 0.737527 0.623907 0.222186
H45   H     H_    0.052417 0.868320 0.597095 0.229114
H46   H     H_    0.968047 0.749101 0.583950 0.292218

loop_
_geom_bond_atom_site_label_1
_geom_bond_atom_site_label_2
_ccdc_geom_bond_type
C16   C28   A    
C5    F7    S    
C42   O16   A    
C68   H44   S    
C5    C37   A    
N10   C68   S    
C17   C29   A    
C23   O5    A    
C19   C31   A    
C7    F11   S    
N2    H11   S    
C24   O6    A    
C39   C41   S    
C29   C49   A    
C46   N10   S    
N8    C66   S    
C1    O7    A    
C3    N7    S    
O4    Zn1   S    
C47   F1    S    
C54   F6    S    
C17   N3    S    
O15   Zn4   S    
C66   H38   S    
O11   Zn4   S    
C67   H42   S    
C21   C33   S    
O13   Zn3   S    
C12   F14   S    
C62   H20   S    
C22   C38   S    
O12   Zn3   S    
C45   C47   A    
C23   O3    A    
C44   O12   A    
C49   F3    S    
C32   C52   A    
C63   H26   S    
C61   H17   S    
C4    N8    S    
C38   C58   A    
C15   C27   A    
C1    O1    A    
C4    C40   A    
C19   H5    S    
C49   C51   A    
C1    C28   S    
C50   C52   A    
C67   H40   S    
C6    C38   A    
C2    C27   S    
C18   C30   A    
C6    F8    S    
C12   C36   A    
C35   C43   S    
C18   C20   A    
O8    Zn1   S    
C50   F4    S    
O7    Zn2   S    
C40   C42   S    
C30   C50   A    
C3    C39   A    
C59   H9    S    
C9    C33   A    
N3    C61   S    
C13   C25   A    
C58   N2    S    
C64   H29   S    
O16   Zn3   S    
C2    O8    A    
C18   N4    S    
N2    C60   S    
C46   C48   A    
C53   C55   A    
C33   C53   A    
C22   C34   S    
C54   C56   A    
C42   O10   A    
C35   C55   A    
C10   C34   A    
C61   H18   S    
O10   Zn4   S    
N1    H7    S    
C5    C7    A    
C26   C46   A    
C11   F13   S    
C48   F2    S    
C6    C8    A    
C62   H21   S    
C21   C29   S    
N1    C59   S    
C9    H1    S    
C23   C31   S    
C20   H6    S    
C10   H2    S    
C44   O14   A    
C24   C32   S    
C36   C56   A    
O2    Zn2   S    
C51   N5    S    
C60   H12   S    
C52   N6    S    
C62   H22   S    
C8    F12   S    
C59   H8    S    
C14   C26   A    
N5    H23   S    
C9    C11   A    
C63   H24   S    
C56   H4    S    
N5    C63   S    
C10   C12   A    
C65   H34   S    
C57   N1    S    
C3    C57   A    
C13   F9    S    
C60   H13   S    
C34   C54   A    
C59   H10   S    
C13   C15   A    
C53   F5    S    
C65   H32   S    
C14   C16   A    
C36   C44   S    
C43   O13   A    
N3    H15   S    
N7    H31   S    
C25   C45   A    
C43   O11   A    
N6    C64   S    
N4    H19   S    
C20   C32   A    
C27   C47   A    
C21   C25   S    
C28   C48   A    
C22   C30   S    
C31   C51   A    
N7    C65   S    
C41   O15   A    
C66   H36   S    
C2    O2    A    
C68   H46   S    
N8    H35   S    
C16   F16   S    
N9    C67   S    
C64   H30   S    
C61   H16   S    
C15   F15   S    
C66   H37   S    
N6    H27   S    
C55   H3    S    
C11   C35   A    
C17   C19   A    
C45   N9    S    
C67   H41   S    
O6    Zn2   S    
C63   H25   S    
O5    Zn1   S    
C24   O4    A    
C41   O9    A    
O14   Zn4   S    
C14   F10   S    
C60   H14   S    
C21   C37   S    
O3    Zn2   S    
C68   H45   S    
C22   C26   S    
C4    C58   A    
N10   H43   S    
C65   H33   S    
C7    C39   A    
O1    Zn1   S    
C8    C40   A    
N9    H39   S    
O9    Zn3   S    
C37   C57   A    
C64   H28   S    
N4    C62   S    
