data_mof_unit_42498.cif
_audit_creation_date              2012-10-26T20:07:50-0400
_audit_creation_method            fapswitch 2.2
_symmetry_space_group_name_H-M    P1
_symmetry_Int_Tables_number       1
_space_group_crystal_system       triclinic
_cell_length_a                    9.603707
_cell_length_b                    10.776609
_cell_length_c                    16.981791
_cell_angle_alpha                 87.228128
_cell_angle_beta                  93.495914
_cell_angle_gamma                 89.144232
_cell_volume                      1751.93221662

loop_
_atom_site_label
_atom_site_type_symbol
_atom_type_description
_atom_site_fract_x
_atom_site_fract_y
_atom_site_fract_z
_atom_type_partial_charge
C1    C     C_R   0.500724 0.262471 0.500446 0.613656
C2    C     C_R   0.064733 0.584389 0.452344 0.061101
C3    C     C_R   0.516344 0.502497 0.650739 0.590121
C4    C     C_R   0.483656 0.497502 0.349261 0.590117
C5    C     C_R   0.519293 0.520113 0.735864 -0.037400
C6    C     C_R   0.480708 0.479882 0.264136 -0.037401
C7    C     C_R   0.411751 0.591311 0.764726 -0.178086
C8    C     C_R   0.588260 0.408696 0.235274 -0.178077
C9    C     C_R   0.403369 0.605185 0.845650 -0.051740
C10   C     C_R   0.596642 0.394817 0.154351 -0.051744
C11   C     C_R   0.502229 0.543497 0.898913 0.180258
C12   C     C_R   0.499276 0.737529 0.499554 0.613653
C13   C     C_R   0.497768 0.456487 0.101088 0.180255
C14   C     C_R   0.614577 0.476876 0.869698 0.437260
C15   C     C_R   0.385410 0.523096 0.130302 0.437256
C16   C     C_R   0.623072 0.465793 0.788521 0.388028
C17   C     C_R   0.376917 0.534185 0.211479 0.388022
C18   C     C_R   0.415787 0.061491 0.550739 0.349453
C19   C     C_R   0.584213 0.938509 0.449261 0.349452
C20   C     C_3   0.715285 0.318514 0.125706 -0.226186
C21   C     C_3   0.664080 0.194516 0.096335 -0.367860
C22   C     C_3   0.284739 0.681503 0.874295 -0.226192
C23   C     C_R   0.414572 0.932927 0.550206 0.303646
C24   C     C_3   0.335967 0.805491 0.903672 -0.367872
C25   C     C_3   0.877286 0.314111 0.600622 -0.197525
C26   C     C_3   0.897376 0.185863 0.567583 -0.389503
C27   C     C_3   0.122714 0.685889 0.399377 -0.197525
C28   C     C_3   0.102624 0.814137 0.432417 -0.389507
C29   C     C_R   0.585428 0.067073 0.449794 0.303645
C30   C     C_R   0.498440 0.871454 0.499290 -0.093731
C31   C     C_R   0.501560 0.128546 0.500710 -0.093730
C32   C     C_R   0.083316 0.418470 0.547967 0.491980
C33   C     C_R   0.916684 0.581529 0.452033 0.491980
C34   C     C_R   0.935266 0.415611 0.547656 0.061095
Cu1   Cu    Cu3+1 0.640660 0.500020 0.500000 1.097805
Cu2   Cu    Cu3+1 0.359340 0.499980 0.500000 1.097810
F1    F     F_    0.715877 0.422760 0.919727 -0.580087
F2    F     F_    0.837170 0.660225 0.402602 -0.563773
F3    F     F_    0.284101 0.577195 0.080272 -0.580080
F4    F     F_    0.729217 0.398193 0.761844 -0.602024
F5    F     F_    0.270761 0.601772 0.238155 -0.602023
F6    F     F_    0.336488 0.120278 0.601531 -0.525290
F7    F     F_    0.663512 0.879722 0.398469 -0.525294
F8    F     F_    0.335871 0.868327 0.601278 -0.602613
F9    F     F_    0.664129 0.131673 0.398722 -0.602611
F10   F     F_    0.162830 0.339775 0.597398 -0.563772
H1    H     H_    0.666393 0.363589 0.276232 0.196135
H2    H     H_    0.246240 0.860422 0.922571 0.174314
H3    H     H_    0.202808 0.701021 0.825961 0.164754
H4    H     H_    0.234132 0.628662 0.922197 0.237515
H5    H     H_    0.839494 0.115733 0.602121 0.151507
H6    H     H_    0.857596 0.186371 0.504878 0.214663
H7    H     H_    0.009260 0.157592 0.571433 0.237529
H8    H     H_    0.931383 0.314829 0.660368 0.224715
H9    H     H_    0.767243 0.326534 0.610913 0.227199
H10   H     H_    0.142405 0.813629 0.495122 0.214664
H11   H     H_    0.160506 0.884266 0.397879 0.151504
H12   H     H_    0.333628 0.636431 0.723768 0.196137
H13   H     H_    0.990740 0.842408 0.428567 0.237529
H14   H     H_    0.232757 0.673466 0.389087 0.227193
H15   H     H_    0.068617 0.685171 0.339632 0.224715
H16   H     H_    0.615058 0.140695 0.144435 0.182075
H17   H     H_    0.587079 0.209142 0.045149 0.197543
H18   H     H_    0.753818 0.139596 0.077437 0.174317
H19   H     H_    0.765880 0.371360 0.077802 0.237518
H20   H     H_    0.797222 0.299013 0.174039 0.164752
H21   H     H_    0.412964 0.790850 0.954859 0.197532
H22   H     H_    0.385001 0.859306 0.855575 0.182077
N1    N     N_2   0.485857 0.549933 0.981014 -0.161027
N2    N     N_2   0.514138 0.450049 0.018986 -0.161012
N3    N     N_R   0.852070 0.500030 0.499980 -0.260871
N4    N     N_R   0.147930 0.499970 0.500020 -0.260871
O1    O     O_R   0.618740 0.319660 0.500000 -0.517295
O2    O     O_R   0.381260 0.680340 0.500000 -0.517297
O3    O     O_R   0.381170 0.319630 0.500010 -0.415266
O4    O     O_R   0.618830 0.680370 0.499990 -0.415266
O5    O     O_R   0.631780 0.498870 0.613920 -0.505117
O6    O     O_R   0.368220 0.501130 0.386080 -0.505110
O7    O     O_R   0.394210 0.498840 0.613930 -0.445850
O8    O     O_R   0.605790 0.501160 0.386070 -0.445853

loop_
_geom_bond_atom_site_label_1
_geom_bond_atom_site_label_2
_ccdc_geom_bond_type
C12   O2    A    
Cu1   Cu2   S    
C3    O7    A    
C28   H10   S    
C32   N4    A    
C28   H11   S    
C20   H20   S    
C4    O8    A    
C27   H14   S    
C18   F6    S    
C11   C14   A    
C9    C22   S    
C13   N2    S    
Cu1   O8    S    
C1    C31   S    
C15   C17   A    
C5    C16   A    
C27   H15   S    
C24   H21   S    
C10   C20   S    
C21   H18   S    
C10   C13   A    
C2    C27   S    
C7    H12   S    
C25   C34   S    
C22   H4    S    
Cu1   N3    S    
C2    N4    A    
C19   F7    S    
Cu1   O4    S    
C18   C23   A    
C1    O3    A    
C23   C30   A    
C20   H19   S    
C25   H8    S    
C4    C6    S    
C5    C7    A    
C24   H22   S    
C6    C8    A    
C25   C26   S    
Cu1   O5    S    
C23   F8    S    
C29   F9    S    
C24   H2    S    
C4    O6    A    
Cu2   O3    S    
C26   H6    S    
C9    C11   A    
C15   F3    S    
C21   H16   S    
Cu2   O2    S    
C16   F4    S    
C22   H3    S    
C2    C33   A    
C13   C15   A    
C14   C16   A    
C3    O5    A    
C26   H7    S    
C28   H13   S    
C7    C9    A    
C6    C17   A    
Cu1   O1    S    
C12   C30   S    
C32   F10   S    
C25   H9    S    
C3    C5    S    
Cu2   O7    S    
C11   N1    S    
C33   F2    S    
C1    O1    A    
C12   O4    A    
C8    H1    S    
C29   C31   A    
Cu2   O6    S    
C26   H5    S    
C14   F1    S    
C22   C24   S    
N1    N2    D    
C17   F5    S    
C21   H17   S    
C33   N3    A    
C20   C21   S    
C8    C10   A    
C27   C28   S    
C18   C31   A    
C19   C30   A    
C34   N3    A    
Cu2   N4    S    
C32   C34   A    
C19   C29   A    
