data_mof_unit_67000.cif
_audit_creation_date              2013-03-05T15:58:13-0500
_audit_creation_method            fapswitch 2.2
_symmetry_space_group_name_H-M    P1
_symmetry_Int_Tables_number       1
_space_group_crystal_system       triclinic
_cell_length_a                    8.301687
_cell_length_b                    12.986792
_cell_length_c                    14.517652
_cell_angle_alpha                 94.870534
_cell_angle_beta                  90.690989
_cell_angle_gamma                 97.762773
_cell_volume                      1544.79877985

loop_
_atom_site_label
_atom_site_type_symbol
_atom_site_description
_atom_site_fract_x
_atom_site_fract_y
_atom_site_fract_z
_atom_type_partial_charge
P1    P     P_3+3 0.054400 0.427280 0.286870 0.513922
O1    O     O_2   0.887370 0.460630 0.272300 -0.282056
O2    O     O_3   0.129410 0.451380 0.388510 -0.414267
O3    O     O_3   0.670210 0.653170 0.329170 -0.385037
O4    O     O_2   0.775379 0.580661 0.166602 -0.318280
O5    O     O_3   0.024925 0.293731 0.255744 -0.578815
O6    O     O_3   0.714914 0.771054 0.172646 -0.520579
H1    H     H_    0.724739 0.862027 0.294895 0.175487
C1    C     C_3   0.651648 0.944365 0.180636 -0.803370
H2    H     H_    0.641588 0.012826 0.231166 0.252155
H3    H     H_    0.767692 0.959434 0.143283 0.285118
P2    P     P_3+3 0.668300 0.742890 0.573060 0.550063
P3    P     P_3+3 0.141385 0.839518 0.379255 0.566546
O7    O     O_2   0.845380 0.761330 0.544970 -0.271914
O8    O     O_3   0.088930 0.704860 0.376040 -0.344494
O9    O     O_2   0.025044 0.882940 0.449922 -0.244597
O10   O     O_3   0.703559 0.772095 0.693523 -0.538534
O11   O     O_3   0.077106 0.879584 0.274338 -0.481476
C2    C     C_3   0.185086 0.851911 0.205556 0.275913
H4    H     H_    0.194368 0.766312 0.201316 0.085611
H5    H     H_    0.306718 0.898847 0.219908 0.051334
C3    C     C_3   0.122572 0.877681 0.112350 -0.725159
H6    H     H_    0.003538 0.829956 0.093675 0.299019
H7    H     H_    0.108540 0.961608 0.115161 0.230261
C4    C     C_3   0.226278 0.781869 0.716133 0.801276
H8    H     H_    0.350215 0.764683 0.726164 -0.000634
C5    C     C_3   0.195994 0.879029 0.778015 -0.716179
H9    H     H_    0.248103 0.878329 0.849180 0.262415
H10   H     H_    0.244687 0.951393 0.747260 0.227589
H11   H     H_    0.063516 0.882506 0.783128 0.280792
Ba1   Ba    Ba6+2 0.855630 0.555280 0.454520 1.694676
C6    C     C_3   0.982618 0.237986 0.331651 0.270745
H12   H     H_    0.858949 0.251294 0.353246 0.127762
H13   H     H_    0.070263 0.259818 0.390347 0.117603
C7    C     C_3   0.987430 0.124278 0.299718 -0.029650
H14   H     H_    0.929898 0.105209 0.229577 0.180754
H15   H     H_    0.115121 0.106828 0.298810 0.132517
C8    C     C_3   0.653783 0.684269 0.741106 0.711590
H16   H     H_    0.523386 0.660423 0.728260 0.041396
C9    C     C_3   0.681753 0.705198 0.846865 -0.091097
H17   H     H_    0.664889 0.629928 0.879340 0.102881
H18   H     H_    0.589157 0.750762 0.875814 0.195337
P4    P     P_3+3 0.135310 0.572810 0.713130 0.607778
O12   O     O_2   0.302330 0.539400 0.727760 -0.399570
O13   O     O_3   0.060300 0.548700 0.611500 -0.297759
O14   O     O_3   0.519500 0.346920 0.670840 -0.345075
O15   O     O_3   0.112186 0.702835 0.745024 -0.509507
P5    P     P_3+3 0.058821 0.158643 0.623929 0.508065
O16   O     O_3   0.614310 0.373510 0.452640 -0.361846
O17   O     O_3   0.100780 0.295230 0.623970 -0.424994
O18   O     O_2   0.175573 0.112646 0.554087 -0.313295
O19   O     O_3   0.125980 0.124967 0.730947 -0.516606
Ba2   Ba    Ba6+2 0.334200 0.444810 0.545490 1.676936
P6    P     P_3+3 0.651319 0.648329 0.209462 0.543342
C10   C     C_3   0.649499 0.845619 0.230552 0.457615
H19   H     H_    0.522349 0.819115 0.249446 -0.069269
H20   H     H_    0.547520 0.935454 0.129602 0.253294
O20   O     O_3   0.575400 0.626570 0.547370 -0.375480
C11   C     C_3   0.455783 0.249945 0.259041 0.778971
H21   H     H_    0.357823 0.290641 0.290737 0.008487
C12   C     C_3   0.386744 0.186703 0.170127 -0.871568
H22   H     H_    0.275080 0.132710 0.182037 0.192281
H23   H     H_    0.358627 0.239689 0.117368 0.264986
H24   H     H_    0.479641 0.139418 0.142244 0.312619
P7    P     P_3+3 0.528569 0.237417 0.432956 0.437842
O21   O     O_2   0.344320 0.238700 0.455090 -0.401656
O22   O     O_3   0.517257 0.183468 0.317486 -0.638277
H25   H     H_    0.210624 0.861013 0.057806 0.243041
C13   C     C_3   0.078503 0.196051 0.800772 0.462058
H26   H     H_    0.155504 0.273019 0.800482 0.122471
H27   H     H_    0.950190 0.206938 0.790101 0.026656
C14   C     C_3   0.095347 0.155142 0.895354 -0.818989
H28   H     H_    0.216715 0.185805 0.927693 0.265083
H29   H     H_    0.999830 0.181076 0.941926 0.246594
H30   H     H_    0.080901 0.068311 0.889018 0.293024
P8    P     P_3+3 0.552305 0.363003 0.791103 0.541433
C15   C     C_3   0.565818 0.172561 0.801867 0.179776
H31   H     H_    0.695936 0.198723 0.819239 0.054601
O23   O     O_2   0.445310 0.442601 0.832613 -0.350446
O24   O     O_3   0.468015 0.247533 0.834335 -0.501490
H32   H     H_    0.546530 0.154754 0.725348 0.043628
C16   C     C_3   0.521650 0.072405 0.846069 0.515135
H33   H     H_    0.390729 0.050506 0.836745 0.041121
C17   C     C_R   0.993274 0.447593 0.060996 -0.046588
C18   C     C_R   0.180778 0.499742 0.198833 0.235855
C19   C     C_R   0.330423 0.554175 0.231097 -0.407095
C20   C     C_R   0.443371 0.597788 0.169786 0.269736
C21   C     C_R   0.401547 0.600042 0.077502 -0.185837
C22   C     C_R   0.247646 0.554502 0.042372 -0.007914
C23   C     C_R   0.139539 0.498565 0.101293 -0.079140
H34   H     H_    0.365132 0.555198 0.303361 0.166676
C24   C     C_R   0.064347 0.503617 0.904903 -0.119513
C25   C     C_R   0.954570 0.449196 0.965157 -0.163468
C26   C     C_R   0.026233 0.492622 0.805183 0.393141
C27   C     C_R   0.890913 0.420912 0.774796 -0.523474
C28   C     C_R   0.764706 0.398026 0.835575 0.107336
C29   C     C_R   0.799434 0.404764 0.930724 0.244364
C30   C     C_R   0.203201 0.564899 0.949017 0.525249
H35   H     H_    0.493006 0.635521 0.033025 0.182417
H36   H     H_    0.867710 0.401831 0.701234 0.200555
H37   H     H_    0.907991 0.407426 0.105064 0.236033
C31   C     C_R   0.748297 0.175636 0.555541 -0.475784
C32   C     C_R   0.444199 0.814153 0.457303 -0.366245
C33   C     C_R   0.408481 0.992173 0.435531 -0.134684
C34   C     C_R   0.353902 0.885282 0.420961 0.193893
C35   C     C_R   0.580910 0.847706 0.515389 0.205471
C36   C     C_R   0.637628 0.958003 0.531836 -0.034009
C37   C     C_R   0.549481 0.030828 0.490359 0.022099
C38   C     C_R   0.606244 0.140422 0.503549 0.298021
C39   C     C_R   0.843571 0.105985 0.589429 0.240775
C40   C     C_R   0.784664 0.998082 0.582060 -0.047303
H38   H     H_    0.333946 0.044333 0.407284 0.174876
H39   H     H_    0.859951 0.946276 0.610153 0.195384
H40   H     H_    0.795150 0.257903 0.560528 0.152868
H41   H     H_    0.398850 0.731612 0.446726 0.153454
Cl1   Cl    Cl    0.879135 0.043700 0.374961 -0.705059
Cl2   Cl    Cl    0.749569 0.578748 0.698027 -0.602640
N1    N     N_R   0.839900 0.763443 0.874962 0.281715
O25   O     O_R   0.952787 0.712648 0.903890 -0.369997
O26   O     O_R   0.846407 0.861635 0.904477 -0.308605
N2    N     N_R   0.590245 0.324077 0.234634 0.243396
O27   O     O_R   0.568123 0.419806 0.229339 -0.415917
O28   O     O_R   0.718175 0.290767 0.200351 -0.336272
N3    N     N_R   0.613712 0.994362 0.803732 0.220617
O29   O     O_R   0.770040 0.015950 0.796538 -0.403917
O30   O     O_R   0.548313 0.897833 0.795940 -0.447312
Cl3   Cl    Cl    0.554772 0.080829 0.967408 -0.574826
N4    N     N_R   0.682778 0.358423 0.991530 0.257453
O31   O     O_R   0.542119 0.391703 0.003178 -0.358432
O32   O     O_R   0.710444 0.274136 0.026899 -0.330232
Cl4   Cl    Cl    0.298032 0.675828 0.902646 -0.720866
N5    N     N_R   0.198655 0.800496 0.620099 0.177325
O33   O     O_R   0.236026 0.894078 0.593631 -0.452929
O34   O     O_R   0.136025 0.724558 0.560179 -0.328288

loop_
_geom_bond_atom_site_label_1
_geom_bond_atom_site_label_2
_geom_bond_distance
_ccdc_geom_bond_type
C11   N2    1.440698 S    
O5    C6    1.392102 S    
C10   H19   1.110315 S    
C5    H10   1.104048 S    
C9    N1    1.458981 S    
C7    H14   1.113484 S    
P8    O23   1.541399 D    
O6    C10   1.397919 S    
O7    Ba1   2.891307 S    
C20   C21   1.383655 A    
N4    O31   1.306765 A    
O14   P8    1.754224 S    
C24   C30   1.421308 A    
C15   H31   1.107068 S    
O16   P7    1.811496 S    
P3    O11   1.750845 S    
Ba1   O20   2.920921 S    
C2    H5    1.114288 S    
O11   C2    1.406240 S    
C19   H34   1.083111 S    
C29   N4    1.425739 S    
P5    C39   1.871315 S    
C8    H16   1.094198 S    
C35   C36   1.444817 A    
P1    Ba1   3.400122 S    
P4    C26   1.923843 S    
C37   C38   1.433462 A    
C13   H27   1.104123 S    
P1    O1    1.525055 D    
C12   H23   1.115005 S    
N1    O25   1.301657 A    
O19   C13   1.408601 S    
C11   O22   1.399529 S    
C39   C40   1.415080 A    
C8    Cl2   1.749930 S    
O12   Ba2   2.851970 S    
P4    Ba2   3.400582 S    
P5    O18   1.549708 D    
C27   C28   1.395470 A    
N5    O33   1.304318 A    
P7    O22   1.757512 S    
P2    O10   1.770031 S    
C36   C37   1.437207 A    
C1    C10   1.523783 S    
C1    H2    1.116408 S    
C4    O15   1.395195 S    
C17   C25   1.426713 A    
P2    O20   1.611998 S    
P5    O17   1.760877 S    
O13   Ba2   2.927587 S    
C11   H21   1.111874 S    
C8    C9    1.545527 S    
C5    H11   1.109911 S    
C17   H37   1.072612 S    
C26   C27   1.399840 A    
C17   C23   1.398140 A    
Ba1   O16   2.880428 S    
C14   H30   1.113573 S    
H1    C10   1.106484 S    
C16   N3    1.450488 S    
C33   C34   1.398206 A    
N1    O26   1.304113 A    
P1    C18   1.894643 S    
C11   C12   1.531078 S    
O17   Ba2   2.870339 S    
P1    O5    1.738309 S    
O3    Ba1   2.855019 S    
C6    C7    1.515684 S    
O4    P6    1.545071 D    
C2    C3    1.522888 S    
C14   H29   1.116133 S    
C33   H38   1.078967 S    
C19   C20   1.398055 A    
C4    H8    1.092506 S    
C18   C19   1.398194 A    
O1    Ba1   2.851434 S    
P1    O2    1.584238 S    
C6    H13   1.106443 S    
C30   Cl4   1.737649 S    
C12   H24   1.108586 S    
C32   H41   1.084439 S    
P4    O12   1.525435 D    
C31   H40   1.082554 S    
P4    O13   1.584114 S    
C15   H32   1.120364 S    
Ba2   O20   2.879752 S    
P7    C38   1.864278 S    
C28   C29   1.400687 A    
C24   C26   1.469001 A    
C7    Cl1   1.749342 S    
C40   H39   1.078735 S    
Ba1   Ba2   4.617529 S    
O2    Ba1   2.926817 S    
Ba2   O21   2.891555 S    
C1    H3    1.113601 S    
C3    H25   1.111673 S    
N2    O27   1.289491 A    
P3    C34   1.860720 S    
C9    H17   1.113678 S    
P2    O7    1.523377 D    
P7    O21   1.568751 D    
O3    P6    1.738097 S    
P3    O8    1.740679 S    
P2    Ba1   3.419434 S    
C32   C34   1.397801 A    
C3    H7    1.109091 S    
C31   C39   1.394718 A    
C25   C29   1.405787 A    
C33   C37   1.416575 A    
C13   C14   1.525296 S    
N3    O30   1.292153 A    
C15   O24   1.405078 S    
C7    H15   1.113537 S    
C27   H36   1.084541 S    
C36   C40   1.426528 A    
P8    O24   1.737600 S    
C14   H28   1.114731 S    
N4    O32   1.294261 A    
C18   C23   1.451161 A    
O8    Ba1   2.869752 S    
C4    C5    1.536575 S    
C22   C30   1.422556 A    
C6    H12   1.108452 S    
C2    H4    1.121232 S    
P8    C28   1.854437 S    
P2    C35   1.877738 S    
O2    Ba2   2.840799 S    
P6    C20   1.829886 S    
C15   C16   1.502216 S    
O16   Ba2   2.920130 S    
O14   Ba2   2.854429 S    
C9    H18   1.098233 S    
C24   C25   1.430187 A    
C32   C35   1.403556 A    
C1    H20   1.119174 S    
O10   C8    1.400802 S    
C12   H22   1.108943 S    
C13   H26   1.111730 S    
C16   Cl3   1.771481 S    
N2    O28   1.289599 A    
C21   H35   1.083305 S    
P5    O19   1.753935 S    
C21   C22   1.403980 A    
N5    O34   1.305579 A    
C16   H33   1.089442 S    
Ba1   O13   2.840231 S    
P3    O9    1.541459 D    
C5    H9    1.116463 S    
C3    H6    1.110718 S    
C31   C38   1.394199 A    
O6    P6    1.740341 S    
C22   C23   1.418726 A    
C4    N5    1.455822 S    
P4    O15   1.749173 S    
N3    O29   1.297583 A    
