data_mof_unit_42057.cif
_audit_creation_date              2012-12-10T19:08:08-0500
_audit_creation_method            fapswitch 2.2
_symmetry_space_group_name_H-M    P1
_symmetry_Int_Tables_number       1
_space_group_crystal_system       triclinic
_cell_length_a                    9.078588
_cell_length_b                    10.829374
_cell_length_c                    9.560157
_cell_angle_alpha                 90.214416
_cell_angle_beta                  89.993661
_cell_angle_gamma                 90.088688
_cell_volume                      939.903184358

loop_
_atom_site_label
_atom_site_type_symbol
_atom_type_description
_atom_site_fract_x
_atom_site_fract_y
_atom_site_fract_z
_atom_type_partial_charge
C1    C     C_R   0.497013 0.262392 0.499713 0.794435
C2    C     C_R   0.467386 0.935147 0.372766 -0.219529
C3    C     C_R   0.483006 0.870911 0.499591 -0.097189
C4    C     C_R   0.476967 0.937227 0.624935 0.133184
C5    C     C_3   0.575074 0.932454 0.750208 -0.485011
C6    C     C_3   0.574039 0.072556 0.749852 -0.455450
C7    C     C_R   0.627533 0.518321 0.073689 0.263710
C8    C     C_R   0.377038 0.469464 0.074077 -0.088828
C9    C     C_R   0.377010 0.469536 0.925615 -0.085850
C10   C     C_R   0.627722 0.517770 0.926513 0.262721
C11   C     C_3   0.726196 0.627853 0.921067 -0.508804
C12   C     C_R   0.220711 0.500011 0.499984 0.847048
C13   C     C_3   0.725177 0.628945 0.079940 -0.498080
C14   C     C_R   0.497542 0.737711 0.500084 0.794887
C15   C     C_R   0.779275 0.500119 0.500021 0.847260
C16   C     C_1   0.065543 0.500106 0.500000 -0.199663
C17   C     C_1   0.934430 0.500151 0.500017 -0.202987
C18   C     C_R   0.476423 0.064345 0.624530 0.125815
C19   C     C_R   0.481985 0.129354 0.498962 -0.097313
C20   C     C_R   0.466857 0.063928 0.372455 -0.218252
Cu1   Cu    Cu3+1 0.499990 0.499980 0.640670 0.939208
Cu2   Cu    Cu3+1 0.500010 0.500020 0.359330 0.938515
H1    H     H_    0.462048 0.111512 0.273115 0.166700
H2    H     H_    0.671276 0.709143 0.874404 0.210987
H3    H     H_    0.834416 0.607394 0.126250 0.200564
H4    H     H_    0.669178 0.711068 0.125422 0.211243
H5    H     H_    0.462827 0.886671 0.273548 0.165169
H6    H     H_    0.685096 0.892643 0.726164 0.195368
H7    H     H_    0.516364 0.113141 0.841697 0.198689
H8    H     H_    0.683348 0.113928 0.725924 0.198353
H9    H     H_    0.276653 0.446047 0.870941 0.147852
H10   H     H_    0.835873 0.605383 0.876056 0.200202
N1    N     N_R   0.500920 0.500930 0.147930 -0.186573
N2    N     N_R   0.500930 0.500890 0.852020 -0.185478
O1    O     O_R   0.500000 0.319640 0.618810 -0.579359
O2    O     O_R   0.500020 0.319680 0.381230 -0.584968
O3    O     O_R   0.288380 0.499980 0.618770 -0.587561
O4    O     O_R   0.288400 0.500020 0.381190 -0.587073
O5    O     O_R   0.499980 0.680320 0.618770 -0.576667
O6    O     O_R   0.500000 0.680360 0.381190 -0.585037
O7    O     O_R   0.711600 0.499980 0.618810 -0.580548
O8    O     O_R   0.711620 0.500020 0.381230 -0.577926
H11   H     H_    0.518160 0.892569 0.842595 0.198131
H12   H     H_    0.276712 0.445873 0.128570 0.148104

loop_
_geom_bond_atom_site_label_1
_geom_bond_atom_site_label_2
_ccdc_geom_bond_type
C7    C10   A    
C2    H5    S    
Cu1   O1    S    
C5    H6    S    
C11   C13   S    
C15   O8    A    
C19   C20   A    
Cu1   O5    S    
C20   H1    S    
Cu2   O6    S    
C2    C3    A    
C5    H11   S    
C4    C18   A    
C10   N2    A    
Cu1   Cu2   S    
C7    N1    A    
C13   H3    S    
Cu2   O8    S    
C3    C14   S    
Cu1   O7    S    
C5    C6    S    
C6    H8    S    
C11   H10   S    
C8    N1    A    
C12   O4    A    
C9    N2    A    
C6    C18   S    
C13   H4    S    
C1    C19   S    
C16   C17   T    
C10   C11   S    
C9    H9    S    
C2    C20   A    
C3    C4    A    
Cu2   O4    S    
C8    H12   S    
C11   H2    S    
C7    C13   S    
C6    H7    S    
Cu1   O3    S    
C15   O7    A    
C18   C19   A    
C12   O3    A    
C15   C17   S    
Cu2   N1    S    
C8    C9    A    
Cu1   N2    S    
C1    O1    A    
C14   O5    A    
C14   O6    A    
Cu2   O2    S    
C12   C16   S    
C1    O2    A    
C4    C5    S    
