data_mof_unit_29152.cif
_audit_creation_date              2013-03-05T15:51:07-0500
_audit_creation_method            fapswitch 2.2
_symmetry_space_group_name_H-M    P1
_symmetry_Int_Tables_number       1
_space_group_crystal_system       triclinic
_cell_length_a                    10.609367
_cell_length_b                    12.133096
_cell_length_c                    12.881169
_cell_angle_alpha                 93.72937
_cell_angle_beta                  90.206654
_cell_angle_gamma                 86.364979
_cell_volume                      1651.28137523

loop_
_atom_site_label
_atom_site_type_symbol
_atom_site_description
_atom_site_fract_x
_atom_site_fract_y
_atom_site_fract_z
_atom_type_partial_charge
O1    O     O_R   0.506270 0.421700 0.658830 -0.597072
O2    O     O_R   0.493730 0.578300 0.341170 -0.597072
O3    O     O_R   0.491200 0.609310 0.646410 -0.632588
O4    O     O_R   0.508800 0.390690 0.353590 -0.632587
C1    C     C_R   0.494501 0.522356 0.699938 0.940603
C2    C     C_R   0.505499 0.477644 0.300062 0.940603
O5    O     O_R   0.693580 0.406210 0.506230 -0.559848
O6    O     O_R   0.306420 0.593790 0.493770 -0.559848
O7    O     O_R   0.678510 0.593830 0.493810 -0.627854
O8    O     O_R   0.321490 0.406170 0.506190 -0.627853
C3    C     C_R   0.741589 0.500855 0.499808 1.037298
C4    C     C_R   0.258411 0.499145 0.500192 1.037300
Zn1   Zn    Zn3+2 0.510060 0.374730 0.508290 1.067066
Zn2   Zn    Zn3+2 0.489940 0.625270 0.491710 1.067065
C5    C     C_3   0.959187 0.465315 0.589201 0.140067
C6    C     C_3   0.040813 0.534685 0.410800 0.140066
C7    C     C_3   0.038067 0.565806 0.579405 0.135935
C8    C     C_3   0.961933 0.434195 0.420596 0.135935
C9    C     C_3   0.124869 0.496585 0.500981 -0.398736
C10   C     C_3   0.875131 0.503415 0.499019 -0.398736
C11   C     C_3   0.045128 0.395593 0.510819 0.189169
C12   C     C_3   0.954872 0.604408 0.489182 0.189169
C13   C     C_R   0.509404 0.462803 0.188368 -0.104400
C14   C     C_R   0.490599 0.537197 0.811632 -0.104400
C15   C     C_R   0.556522 0.637641 0.967274 0.318064
C16   C     C_R   0.443487 0.362357 0.032725 0.318061
C17   C     C_R   0.543609 0.628716 0.860371 -0.160518
C18   C     C_R   0.456397 0.371283 0.139628 -0.160521
C19   C     C_R   0.439797 0.457195 0.869496 -0.062464
C20   C     C_R   0.560206 0.542804 0.130504 -0.062469
C21   C     C_R   0.470371 0.453975 0.975044 -0.014712
C22   C     C_R   0.529635 0.546024 0.024956 -0.014713
H1    H     H_    0.428092 0.304789 0.184497 0.197607
H2    H     H_    0.571914 0.695209 0.815502 0.197605
N1    N     N_R   0.523490 0.207800 0.519350 -0.184342
N2    N     N_R   0.476510 0.792200 0.480650 -0.184342
C23   C     C_R   0.376063 0.952408 0.406342 -0.203001
C24   C     C_R   0.623938 0.047591 0.593657 -0.203001
C25   C     C_R   0.388908 0.837404 0.416009 0.415366
C26   C     C_R   0.611092 0.162596 0.583991 0.415368
C27   C     C_R   0.552766 0.857238 0.540124 0.036702
C28   C     C_R   0.447235 0.142762 0.459875 0.036701
C29   C     C_R   0.545171 0.975662 0.534415 -0.021604
C30   C     C_R   0.454829 0.024338 0.465584 -0.021604
N3    N     N_R   0.076768 0.635363 0.669212 0.275717
O9    O     O_R   0.991550 0.686408 0.730287 -0.254836
O10   O     O_R   0.195397 0.640255 0.693479 -0.371726
N4    N     N_R   0.923233 0.364637 0.330789 0.275716
O11   O     O_R   0.008451 0.313593 0.269714 -0.254838
O12   O     O_R   0.804603 0.359745 0.306522 -0.371726
N5    N     N_R   0.913075 0.433120 0.688633 0.286888
O13   O     O_R   0.822014 0.492757 0.736264 -0.340401
O14   O     O_R   0.975718 0.357070 0.737809 -0.234099
N6    N     N_R   0.086925 0.566880 0.311368 0.286888
O15   O     O_R   0.177987 0.507244 0.263737 -0.340400
O16   O     O_R   0.024282 0.642931 0.262192 -0.234098
N7    N     N_R   0.091172 0.281028 0.522118 0.267595
O17   O     O_R   0.049658 0.201641 0.461202 -0.288841
O18   O     O_R   0.167549 0.256552 0.597374 -0.326126
N8    N     N_R   0.908829 0.718973 0.477883 0.267595
O19   O     O_R   0.950343 0.798359 0.538799 -0.288841
O20   O     O_R   0.832451 0.743449 0.402628 -0.326127
C31   C     C_1   0.655734 0.610644 0.177197 0.341306
N9    N     N_1   0.732527 0.664469 0.213720 -0.012087
C32   C     C_1   0.344268 0.389356 0.822805 0.341303
N10   N     N_1   0.267473 0.335532 0.786284 -0.012089
N11   N     N_R   0.588800 0.742223 0.015488 0.203981
O21   O     O_R   0.675418 0.797137 0.974503 -0.300601
O22   O     O_R   0.515756 0.791894 0.087359 -0.311944
N12   N     N_R   0.411215 0.257773 0.984510 0.203984
O23   O     O_R   0.324608 0.202850 0.025497 -0.300608
O24   O     O_R   0.484258 0.208110 0.912634 -0.311943
C33   C     C_1   0.361747 0.199113 0.390900 0.302907
N13   N     N_1   0.292822 0.244615 0.335743 -0.104558
C34   C     C_1   0.638254 0.800886 0.609100 0.302906
N14   N     N_1   0.707179 0.755385 0.664256 -0.104558
N15   N     N_R   0.696416 0.232198 0.638351 0.222297
O25   O     O_R   0.672679 0.265558 0.734693 -0.301650
O26   O     O_R   0.812015 0.230095 0.604807 -0.309222
N16   N     N_R   0.303584 0.767802 0.361648 0.222298
O27   O     O_R   0.327321 0.734442 0.265307 -0.301654
O28   O     O_R   0.187985 0.769906 0.395193 -0.309220
C35   C     C_1   0.279172 0.991024 0.335226 0.355745
N17   N     N_1   0.201239 0.019916 0.278080 -0.011076
C36   C     C_1   0.720829 0.008976 0.664773 0.355745
N18   N     N_1   0.798762 0.980084 0.721918 -0.011075

loop_
_geom_bond_atom_site_label_1
_geom_bond_atom_site_label_2
_geom_bond_distance
_ccdc_geom_bond_type
C20   C22   1.399047 A    
C8    C11   1.536252 S    
C33   N13   1.157755 T    
C15   N11   1.436721 S    
C14   C17   1.389035 A    
C29   C30   1.429605 A    
N15   O25   1.300497 A    
O5    C3    1.292971 A    
O1    C1    1.297875 A    
C9    C11   1.544568 S    
C7    N3    1.460328 S    
Zn1   N1    2.035571 S    
C12   N8    1.460029 S    
N7    O18   1.298373 A    
N8    O20   1.298373 A    
N3    O10   1.299802 A    
O4    Zn1   2.014515 S    
N1    C28   1.364539 A    
C14   C19   1.396997 A    
Zn2   N2    2.035571 S    
C21   C22   1.431331 A    
O6    Zn2   2.008361 S    
N12   O23   1.301537 A    
C5    N5    1.458156 S    
C15   C22   1.420657 A    
N4    O12   1.299802 A    
C16   C21   1.420656 A    
C20   C31   1.450307 S    
C27   C29   1.440636 A    
N2    C27   1.364540 A    
O2    C2    1.297876 A    
C28   C30   1.440635 A    
N15   O26   1.299966 A    
C17   H2    1.080616 S    
C5    C10   1.538996 S    
C23   C25   1.406942 A    
N6    O16   1.299854 A    
C3    C10   1.419190 S    
C24   C36   1.450290 S    
N11   O21   1.301539 A    
C13   C20   1.396996 A    
N16   O28   1.299967 A    
O7    Zn2   2.013173 S    
N3    O9    1.300251 A    
N5    O13   1.300477 A    
N8    O19   1.300171 A    
N11   O22   1.301610 A    
C34   N14   1.157755 T    
C11   N7    1.460030 S    
C27   C34   1.440162 S    
C35   N17   1.157921 T    
C5    C11   1.537560 S    
O6    C4    1.292970 A    
C13   C18   1.389036 A    
O7    C3    1.281259 A    
C36   N18   1.157921 T    
O3    Zn2   2.014517 S    
O8    C4    1.281260 A    
C19   C32   1.450309 S    
O4    C2    1.295952 A    
N4    O11   1.300251 A    
C10   C12   1.544570 S    
C18   H1    1.080618 S    
C16   N12   1.436721 S    
O1    Zn1   1.985076 S    
C5    C7    1.533949 S    
N6    O15   1.300476 A    
C28   C33   1.440162 S    
C6    C12   1.537560 S    
N2    C25   1.359082 A    
N16   O27   1.300496 A    
O3    C1    1.295950 A    
O8    Zn1   2.013173 S    
C8    N4    1.460329 S    
C15   C17   1.381243 A    
C16   C18   1.381243 A    
C7    C12   1.536253 S    
C25   N16   1.427707 S    
C23   C30   1.429535 A    
N1    C26   1.359082 A    
C24   C29   1.429535 A    
C19   C21   1.399044 A    
C24   C26   1.406943 A    
N7    O17   1.300171 A    
C1    C14   1.438719 S    
C6    C9    1.538996 S    
C2    C13   1.438719 S    
C4    C9    1.419189 S    
C7    C9    1.540199 S    
C8    C10   1.540200 S    
O2    Zn2   1.985073 S    
C6    N6    1.458156 S    
C31   N9    1.155997 T    
O5    Zn1   2.008359 S    
C6    C8    1.533950 S    
C32   N10   1.155998 T    
C26   N15   1.427706 S    
C23   C35   1.450290 S    
N12   O24   1.301611 A    
N5    O14   1.299854 A    
