data_mof_unit_28107.cif
_audit_creation_date              2012-12-10T17:17:22-0500
_audit_creation_method            fapswitch 2.2
_symmetry_space_group_name_H-M    P1
_symmetry_Int_Tables_number       1
_space_group_crystal_system       triclinic
_cell_length_a                    10.278777
_cell_length_b                    10.805134
_cell_length_c                    12.223253
_cell_angle_alpha                 90.725758
_cell_angle_beta                  109.081223
_cell_angle_gamma                 95.147551
_cell_volume                      1276.52164887

loop_
_atom_site_label
_atom_site_type_symbol
_atom_type_description
_atom_site_fract_x
_atom_site_fract_y
_atom_site_fract_z
_atom_type_partial_charge
C1    C     C_R   0.053035 0.732537 0.496345 0.942125
C2    C     C_R   0.203858 0.499065 0.839858 -0.159170
C3    C     C_2   0.089429 0.865352 0.507535 -0.389138
C4    C     C_R   0.132749 0.505025 0.714639 0.855498
C5    C     C_2   0.008940 0.936046 0.542068 -0.147558
C6    C     C_2   0.927438 0.137148 0.527131 -0.375123
C7    C     C_2   0.032715 0.068493 0.543556 -0.172745
C8    C     C_2   0.425554 0.523521 0.494621 -0.112201
C9    C     C_2   0.565629 0.503997 0.477865 -0.115032
C10   C     C_R   0.950640 0.268059 0.510779 0.933638
C11   C     C_R   0.865963 0.487821 0.285618 0.867810
C12   C     C_R   0.417189 0.473490 0.994344 0.064387
C13   C     C_R   0.739471 0.344206 0.984263 -0.210762
C14   C     C_R   0.787687 0.463742 0.163328 -0.062281
C15   C     C_R   0.157195 0.564061 0.917583 -0.196472
C16   C     C_R   0.232915 0.574301 0.036111 0.223601
C17   C     C_R   0.363868 0.531267 0.073153 -0.273008
C18   C     C_3   0.683990 0.647750 0.631923 -0.219713
C19   C     C_3   0.819941 0.675060 0.729196 -0.815857
C20   C     C_3   0.319264 0.349342 0.371386 -0.241484
C21   C     C_3   0.194428 0.253016 0.329869 -0.786222
C22   C     C_3   0.543547 0.226893 0.769284 -0.393013
C23   C     C_R   0.328192 0.441405 0.881682 0.028990
C24   C     C_3   0.427590 0.164968 0.665183 -0.916804
C25   C     C_3   0.182704 0.634208 0.126103 -0.403657
C26   C     C_3   0.041904 0.685572 0.079343 -0.882995
C27   C     C_R   0.556203 0.446837 0.024186 0.069875
C28   C     C_R   0.599238 0.369283 0.950088 0.089354
C29   C     C_R   0.501100 0.317316 0.845649 0.119121
C30   C     C_R   0.366213 0.353935 0.813637 -0.185054
C31   C     C_R   0.654817 0.500090 0.125003 -0.241198
C32   C     C_R   0.832009 0.388661 0.091492 -0.203718
H1    H     H_    0.936153 0.361252 0.119313 0.153358
H2    H     H_    0.179492 0.905314 0.487482 0.151734
H3    H     H_    0.417102 0.604505 0.543925 0.144270
H4    H     H_    0.846197 0.588106 0.774872 0.258428
H5    H     H_    0.902400 0.716567 0.697490 0.279361
H6    H     H_    0.807470 0.743722 0.792572 0.207042
H7    H     H_    0.652439 0.735538 0.588968 0.161830
H8    H     H_    0.611598 0.614665 0.678307 0.170980
H9    H     H_    0.192383 0.189980 0.399803 0.250024
H10   H     H_    0.096838 0.295480 0.294552 0.281113
H11   H     H_    0.204783 0.194239 0.258528 0.203908
H12   H     H_    0.917878 0.896897 0.561175 0.185973
H13   H     H_    0.331705 0.393822 0.293306 0.160109
H14   H     H_    0.408323 0.294517 0.411168 0.168515
H15   H     H_    0.349871 0.110293 0.695071 0.260077
H16   H     H_    0.378394 0.235603 0.604265 0.276444
H17   H     H_    0.471015 0.100300 0.618057 0.248564
H18   H     H_    0.621748 0.277146 0.736694 0.212291
H19   H     H_    0.592219 0.150637 0.823206 0.205459
H20   H     H_    0.064069 0.609018 0.885003 0.164140
H21   H     H_    0.046191 0.762368 0.020686 0.254478
H22   H     H_    0.960478 0.611048 0.032403 0.267891
H23   H     H_    0.825122 0.096513 0.522948 0.150106
H24   H     H_    0.013754 0.722916 0.152767 0.254274
H25   H     H_    0.176754 0.564042 0.190455 0.222769
H26   H     H_    0.260420 0.711779 0.172760 0.203714
H27   H     H_    0.567328 0.442242 0.408079 0.143862
H28   H     H_    0.778301 0.287041 0.931022 0.134857
H29   H     H_    0.629355 0.568679 0.177661 0.151349
H30   H     H_    0.421121 0.541540 0.164763 0.122914
H31   H     H_    0.288795 0.312720 0.736170 0.185004
H32   H     H_    0.134931 0.108978 0.548857 0.180734
N1    N     N_2   0.313640 0.446500 0.454900 -0.044441
N2    N     N_2   0.686360 0.553430 0.545150 -0.037701
O1    O     O_R   0.936910 0.692950 0.509080 -0.607295
O2    O     O_R   0.138320 0.658600 0.480130 -0.612444
O3    O     O_R   0.002900 0.525670 0.675280 -0.611275
O4    O     O_R   0.204310 0.491320 0.646330 -0.607477
O5    O     O_R   0.861680 0.341400 0.519870 -0.607398
O6    O     O_R   0.063090 0.307050 0.490920 -0.611649
O7    O     O_R   0.795690 0.508680 0.353670 -0.615945
O8    O     O_R   0.997100 0.474330 0.324720 -0.616121
Zn1   Zn    Zn3+2 0.865520 0.522940 0.519330 0.936492
Zn2   Zn    Zn3+2 0.134480 0.477060 0.480670 0.928490

loop_
_geom_bond_atom_site_label_1
_geom_bond_atom_site_label_2
_ccdc_geom_bond_type
C12   C17   A    
C6    C10   S    
C2    C4    S    
C18   H7    S    
C23   C30   A    
C13   C28   A    
C6    C7    D    
C19   H6    S    
C17   H30   S    
O2    Zn2   S    
C31   H29   S    
C13   C32   A    
C20   H13   S    
O6    Zn2   S    
C6    H23   S    
C22   H18   S    
C10   O5    A    
C4    O4    A    
C8    C9    S    
C8    N1    D    
C13   H28   S    
C21   H11   S    
C15   H20   S    
C32   H1    S    
O5    Zn1   S    
C2    C15   A    
O7    Zn1   S    
C12   C23   A    
C29   C30   A    
N1    Zn2   S    
C25   H25   S    
C21   H9    S    
N2    Zn1   S    
C26   H22   S    
C27   C28   A    
C4    O3    A    
C1    O1    A    
C5    H12   S    
O3    Zn1   S    
C19   H4    S    
O4    Zn2   S    
C26   H24   S    
C11   C14   S    
C22   C24   S    
C7    H32   S    
C18   N2    S    
C25   H26   S    
O8    Zn2   S    
C12   C27   A    
C27   C31   A    
C15   C16   A    
C24   H16   S    
C26   H21   S    
C20   N1    S    
C2    C23   A    
C1    O2    A    
O1    Zn1   S    
C20   C21   S    
C24   H17   S    
C18   C19   S    
C11   O7    A    
C22   C29   S    
C16   C25   S    
C5    C7    S    
C14   C31   A    
C18   H8    S    
C9    N2    D    
C28   C29   A    
C19   H5    S    
C3    H2    S    
C3    C5    D    
C25   C26   S    
C30   H31   S    
C24   H15   S    
C9    H27   S    
C8    H3    S    
C20   H14   S    
C21   H10   S    
C16   C17   A    
C14   C32   A    
C22   H19   S    
C1    C3    S    
C11   O8    A    
C10   O6    A    
