data_mof_unit_7110.cif
_audit_creation_date              2012-12-10T17:50:30-0500
_audit_creation_method            fapswitch 2.2
_symmetry_space_group_name_H-M    P1
_symmetry_Int_Tables_number       1
_space_group_crystal_system       triclinic
_cell_length_a                    15.707948
_cell_length_b                    10.625696
_cell_length_c                    9.932669
_cell_angle_alpha                 90.003548
_cell_angle_beta                  89.835077
_cell_angle_gamma                 91.693
_cell_volume                      1657.11017691

loop_
_atom_site_label
_atom_site_type_symbol
_atom_type_description
_atom_site_fract_x
_atom_site_fract_y
_atom_site_fract_z
_atom_type_partial_charge
C1    C     C_R   0.501933 0.260765 0.500037 0.842964
C2    C     C_R   0.714093 0.074954 0.675511 -0.107579
C3    C     C_R   0.714093 0.943994 0.675601 -0.149763
C4    C     C_R   0.338031 0.499172 0.500184 0.884737
C5    C     C_R   0.646337 0.875279 0.618487 -0.189988
C6    C     C_R   0.576695 0.937447 0.561148 0.092683
C7    C     C_R   0.576646 0.069370 0.561162 0.088434
C8    C     C_R   0.507586 0.128713 0.499809 -0.087832
C9    C     C_R   0.442093 0.061763 0.435533 -0.235279
C10   C     C_R   0.442118 0.933164 0.435605 -0.204675
C11   C     C_R   0.507696 0.872000 0.499780 -0.095493
C12   C     C_3   0.082637 0.494879 0.501431 0.133898
C13   C     C_R   0.391011 0.331266 0.139902 -0.248219
C14   C     C_R   0.339171 0.245413 0.070184 -0.266643
C15   C     C_R   0.340424 0.241319 0.930526 0.560106
C16   C     C_R   0.502203 0.739407 0.499972 0.864089
C17   C     C_R   0.391835 0.330228 0.860657 -0.286143
C18   C     C_R   0.446772 0.416177 0.928102 0.112358
C19   C     C_R   0.446657 0.416383 0.072360 0.180456
C20   C     C_R   0.551085 0.580031 0.071191 -0.105259
C21   C     C_R   0.551023 0.580063 0.928196 -0.097331
C22   C     C_R   0.661951 0.500391 0.499861 0.874755
C23   C     C_3   0.973963 0.589123 0.582499 -0.233563
C24   C     C_3   0.969491 0.387134 0.543902 0.607293
C25   C     C_3   0.026011 0.403684 0.418120 -0.255472
C26   C     C_1   0.248986 0.496979 0.500757 -0.185209
C27   C     C_1   0.750917 0.499752 0.499628 -0.180813
C28   C     C_3   0.027041 0.476132 0.628084 -0.252288
C29   C     C_3   0.323700 0.099488 0.754143 -0.310749
C30   C     C_3   0.992578 0.187575 0.622559 -0.329761
C31   C     C_3   0.917187 0.498210 0.500046 0.126604
C32   C     C_3   0.031456 0.608197 0.456706 -0.125145
C33   C     C_3   0.972946 0.517271 0.374259 -0.221001
C34   C     C_1   0.173584 0.495404 0.501258 -0.045716
C35   C     C_1   0.826258 0.499039 0.499742 -0.018649
C36   C     C_R   0.646284 0.137647 0.618440 -0.166024
H1    H     H_    0.049342 0.327856 0.351878 0.142381
H2    H     H_    0.948636 0.534989 0.271355 0.155738
H3    H     H_    0.059479 0.699326 0.420786 0.139865
H4    H     H_    0.950453 0.665112 0.648376 0.150324
H5    H     H_    0.051198 0.458690 0.731134 0.147906
H6    H     H_    0.389990 0.109360 0.387829 0.138540
H7    H     H_    0.649775 0.239346 0.617880 0.157091
H8    H     H_    0.767159 0.128172 0.718628 0.167911
H9    H     H_    0.391430 0.076372 0.772771 0.172482
H10   H     H_    0.318252 0.160286 0.663789 0.155083
H11   H     H_    0.288816 0.009631 0.731922 0.196122
H12   H     H_    0.767138 0.895486 0.718849 0.134216
H13   H     H_    0.033311 0.223564 0.706355 0.174030
H14   H     H_    0.032313 0.163976 0.533738 0.160954
H15   H     H_    0.960441 0.099077 0.657531 0.192108
H16   H     H_    0.649861 0.773815 0.617918 0.141138
H17   H     H_    0.390068 0.880936 0.387862 0.153837
H18   H     H_    0.592855 0.645501 0.124538 0.146749
H19   H     H_    0.385274 0.328403 0.246616 0.219481
H20   H     H_    0.297547 0.180908 0.125766 0.167335
H21   H     H_    0.386333 0.331493 0.754399 0.214863
H22   H     H_    0.592725 0.645588 0.874385 0.142200
N1    N     N_R   0.499210 0.498800 0.142780 -0.111413
N2    N     N_R   0.499180 0.498720 0.857170 -0.105520
O1    O     O_R   0.500000 0.316780 0.614690 -0.645504
O2    O     O_3   0.929763 0.273826 0.588608 -0.617550
O3    O     O_R   0.499990 0.316750 0.385360 -0.622662
O4    O     O_R   0.376780 0.500000 0.614650 -0.623479
O5    O     O_R   0.376770 0.499980 0.385310 -0.629576
O6    O     O_R   0.500010 0.683250 0.614640 -0.617429
O7    O     O_R   0.500000 0.683220 0.385310 -0.610631
O8    O     O_R   0.623230 0.500020 0.614690 -0.623324
O9    O     O_R   0.623220 0.500000 0.385350 -0.604564
O10   O     O_3   0.285104 0.155964 0.866813 -0.610198
Zn1   Zn    Zn3+2 0.500010 0.500020 0.653130 0.934596
Zn2   Zn    Zn3+2 0.499990 0.499980 0.346870 0.947116

loop_
_geom_bond_atom_site_label_1
_geom_bond_atom_site_label_2
_ccdc_geom_bond_type
C14   H20   S    
C30   H15   S    
C1    C8    S    
C7    C36   A    
C3    H12   S    
C7    C8    A    
C9    H6    S    
C12   C28   S    
C18   C19   A    
C5    C6    A    
O4    Zn1   S    
C23   H4    S    
C28   H5    S    
O7    Zn2   S    
C32   H3    S    
C10   H17   S    
C25   H1    S    
C26   C34   T    
C2    H8    S    
C8    C9    A    
C31   C33   S    
C5    H16   S    
C9    C10   A    
C22   O9    A    
N1    Zn2   S    
O1    Zn1   S    
C30   H14   S    
C13   C14   A    
C12   C32   S    
C1    O3    A    
C13   C19   A    
C24   C25   S    
C21   N2    A    
C20   H18   S    
C6    C11   A    
N2    Zn1   S    
C19   N1    A    
C29   H9    S    
C23   C31   S    
O9    Zn2   S    
C11   C16   S    
O6    Zn1   S    
C17   C18   A    
C16   O7    A    
C23   C28   S    
C20   C21   A    
C20   N1    A    
C22   O8    A    
C18   N2    A    
C30   H13   S    
C29   H11   S    
C22   C27   S    
C30   O2    S    
C31   C35   S    
C16   O6    A    
C12   C34   S    
C29   O10   S    
C2    C36   A    
C15   C17   A    
C15   O10   S    
C4    O4    A    
C24   O2    S    
C24   C28   S    
C3    C5    A    
C1    O1    A    
C4    C26   S    
C6    C7    A    
O5    Zn2   S    
C12   C25   S    
C33   H2    S    
C29   H10   S    
C27   C35   T    
C23   C32   S    
C2    C3    A    
C24   C31   S    
C21   H22   S    
C32   C33   S    
C4    O5    A    
O8    Zn1   S    
C10   C11   A    
O3    Zn2   S    
C17   H21   S    
C14   C15   A    
C36   H7    S    
C25   C33   S    
C13   H19   S    
