data_mof_unit_22376.cif
_audit_creation_date              2013-03-05T16:14:05-0500
_audit_creation_method            fapswitch 2.2
_symmetry_space_group_name_H-M    P1
_symmetry_Int_Tables_number       1
_space_group_crystal_system       triclinic
_cell_length_a                    9.906336
_cell_length_b                    10.78202
_cell_length_c                    16.71886
_cell_angle_alpha                 85.377423
_cell_angle_beta                  90.660245
_cell_angle_gamma                 89.154303
_cell_volume                      1779.59930902

loop_
_atom_site_label
_atom_site_type_symbol
_atom_site_description
_atom_site_fract_x
_atom_site_fract_y
_atom_site_fract_z
_atom_type_partial_charge
O1    O     O_R   0.614620 0.316750 0.500010 -0.570670
O2    O     O_R   0.385380 0.683250 0.499990 -0.562764
O3    O     O_R   0.385290 0.316780 0.500000 -0.570057
O4    O     O_R   0.614710 0.683220 0.500000 -0.567521
C1    C     C_R   0.500888 0.260086 0.502317 1.042143
C2    C     C_R   0.499312 0.740023 0.497990 1.049195
O5    O     O_R   0.627460 0.498830 0.616130 -0.612429
O6    O     O_R   0.372540 0.501170 0.383870 -0.599456
O7    O     O_R   0.398130 0.498850 0.616130 -0.562622
O8    O     O_R   0.601870 0.501150 0.383870 -0.570148
C3    C     C_R   0.513022 0.503531 0.653156 1.022865
C4    C     C_R   0.487158 0.498241 0.346543 1.018759
Zn1   Zn    Zn3+2 0.653130 0.499980 0.500000 1.135053
Zn2   Zn    Zn3+2 0.346870 0.500020 0.500000 1.136624
C5    C     C_R   0.510858 0.504979 0.740148 -0.167473
C6    C     C_R   0.490461 0.509082 0.259063 -0.185464
C7    C     C_R   0.400067 0.559327 0.778948 0.209659
C8    C     C_R   0.610356 0.479557 0.218709 0.206382
C9    C     C_R   0.382419 0.525202 0.861798 0.312827
C10   C     C_R   0.621942 0.515651 0.136559 0.323367
C11   C     C_R   0.490954 0.464717 0.905289 0.180949
C12   C     C_R   0.507152 0.566847 0.094579 0.169871
C13   C     C_R   0.603146 0.420246 0.866737 -0.128051
C14   C     C_R   0.389309 0.594297 0.134711 -0.141956
C15   C     C_R   0.612042 0.438035 0.784471 -0.153588
C16   C     C_R   0.380541 0.565270 0.216423 -0.158216
N1    N     N_2   0.497926 0.462684 0.988934 -0.055139
N2    N     N_2   0.499721 0.570281 0.010970 -0.065591
H1    H     H_    0.684944 0.373136 0.901045 0.224163
H2    H     H_    0.302188 0.634221 0.101812 0.230851
H3    H     H_    0.698263 0.399088 0.755444 0.233057
H4    H     H_    0.288226 0.588414 0.246408 0.242264
C17   C     C_R   0.416048 0.075116 0.447344 0.191040
C18   C     C_R   0.586253 0.925326 0.552750 0.199778
C19   C     C_R   0.416350 0.947127 0.443263 0.280916
C20   C     C_R   0.585127 0.053455 0.557034 0.291708
C21   C     C_R   0.499187 0.872806 0.497925 -0.335607
C22   C     C_R   0.501638 0.127409 0.502688 -0.336034
C23   C     C_R   0.071997 0.568552 0.442603 -0.121371
C24   C     C_R   0.927917 0.429957 0.556750 -0.110485
H5    H     H_    0.127677 0.623398 0.397790 0.243035
H6    H     H_    0.872098 0.380113 0.603750 0.252501
C25   C     C_R   0.929484 0.575506 0.444227 0.490812
C26   C     C_R   0.070644 0.429373 0.558313 0.462921
N3    N     N_R   0.857210 0.499970 0.500020 -0.183356
N4    N     N_R   0.142790 0.500030 0.499980 -0.183337
N5    N     N_R   0.714151 0.403569 0.259513 0.262330
O9    O     O_R   0.686440 0.291238 0.288274 -0.310434
O10   O     O_R   0.828076 0.452010 0.279102 -0.274568
N6    N     N_R   0.317470 0.655705 0.735664 0.258271
O11   O     O_R   0.369727 0.727885 0.678538 -0.353527
O12   O     O_R   0.194670 0.680765 0.756254 -0.211286
S1    S     S_3+6 0.777050 0.492468 0.086366 0.095974
O13   O     O_2   0.774106 0.554016 0.002427 -0.265133
O14   O     O_2   0.890939 0.546467 0.131722 -0.212553
O15   O     O_3   0.804885 0.338802 0.083031 -0.495703
H7    H     H_    0.892451 0.331932 0.055581 0.396669
S2    S     S_3+6 0.227389 0.549593 0.912272 0.121952
O16   O     O_2   0.212537 0.685013 0.926401 -0.219631
O17   O     O_2   0.110145 0.511385 0.862465 -0.177999
O18   O     O_3   0.223120 0.463981 0.000877 -0.543592
H8    H     H_    0.135283 0.485296 0.024424 0.404295
N7    N     N_R   0.330014 0.153293 0.394371 0.261271
O19   O     O_R   0.381726 0.224355 0.336403 -0.347734
O20   O     O_R   0.200113 0.154914 0.405045 -0.265796
N8    N     N_R   0.677662 0.848045 0.603049 0.257955
O21   O     O_R   0.633312 0.780277 0.664721 -0.315481
O22   O     O_R   0.806434 0.848734 0.588839 -0.295260
S3    S     S_3+6 0.319458 0.883378 0.366421 0.107456
O23   O     O_2   0.185359 0.845851 0.400562 -0.207595
O24   O     O_2   0.295456 0.975157 0.294929 -0.185924
O25   O     O_3   0.399135 0.759124 0.334438 -0.598752
H9    H     H_    0.476836 0.793451 0.303677 0.376311
S4    S     S_3+6 0.688090 0.118798 0.630484 0.115472
O26   O     O_2   0.621245 0.232326 0.659362 -0.316480
O27   O     O_2   0.716083 0.028798 0.702385 -0.172912
O28   O     O_3   0.834570 0.158068 0.586497 -0.499968
H10   H     H_    0.884924 0.078748 0.582959 0.415799
S5    S     S_3+6 0.862438 0.705290 0.382621 0.114632
O29   O     O_2   0.719216 0.696048 0.355395 -0.298278
O30   O     O_2   0.874813 0.818671 0.428657 -0.228239
O31   O     O_3   0.957658 0.725909 0.299995 -0.495667
H11   H     H_    0.934534 0.810894 0.276394 0.416091
S6    S     S_3+6 0.143195 0.346119 0.644936 0.093993
O32   O     O_2   0.268884 0.274063 0.629051 -0.257873
O33   O     O_2   0.173426 0.437499 0.705191 -0.269533
O34   O     O_3   0.031566 0.244792 0.686416 -0.500254
H12   H     H_    0.071728 0.214778 0.739110 0.412296

loop_
_geom_bond_atom_site_label_1
_geom_bond_atom_site_label_2
_geom_bond_distance
_ccdc_geom_bond_type
C15   H3    1.083150 S    
N8    O22   1.300301 A    
O34   H12   0.990607 S    
N7    O20   1.301246 A    
C16   H4    1.083472 S    
C18   C21   1.408764 A    
S6    O34   1.681845 S    
C8    N5    1.436240 S    
C18   N8    1.438291 S    
Zn2   N4    2.021680 S    
O28   H10   0.989943 S    
O5    C3    1.300193 A    
S4    O27   1.503310 D    
O1    C1    1.289052 A    
C13   H1    1.083429 S    
C9    C11   1.412405 A    
C14   C16   1.380736 A    
C5    C15   1.396479 A    
S2    O17   1.503076 D    
O15   H7    0.990632 S    
O4    Zn1   2.006498 S    
S3    O24   1.503423 D    
C7    C9    1.417715 A    
C3    C5    1.456158 S    
C4    C6    1.458600 S    
S4    O28   1.678774 S    
N6    O12   1.298575 A    
C8    C10   1.403501 A    
O18   H8    0.990710 S    
C17   N7    1.436080 S    
S2    O18   1.682408 S    
C24   H6    1.078330 S    
N8    O21   1.299441 A    
C11   N1    1.397741 S    
C12   N2    1.396414 S    
C1    C22   1.429945 S    
O2    C2    1.291375 A    
C26   N4    1.398102 A    
S1    O14   1.502570 D    
C9    S2    1.787076 S    
C6    C16   1.397838 A    
C24   N3    1.346743 A    
S4    O26   1.499545 D    
S6    O32   1.495581 D    
N5    O10   1.300070 A    
S5    O30   1.501933 D    
C10   S1    1.783217 S    
C23   C25   1.413354 A    
O3    C1    1.288807 A    
S2    O16   1.503135 D    
S1    O13   1.503005 D    
S5    O29   1.492224 D    
S3    O25   1.672647 S    
O7    Zn2   2.000205 S    
O7    C3    1.292919 A    
N5    O9    1.300937 A    
C24   C26   1.413752 A    
O6    C4    1.303126 A    
N6    O11   1.299734 A    
C2    C21   1.431564 S    
C25   N3    1.398633 A    
C19   S3    1.782586 S    
O3    Zn2   2.006501 S    
O8    C4    1.292148 A    
C23   N4    1.346411 A    
O4    C2    1.287708 A    
C10   C12   1.411037 A    
C11   C13   1.389667 A    
C12   C14   1.392999 A    
O1    Zn1   2.017596 S    
S1    O15   1.681068 S    
C5    C7    1.423882 A    
C20   S4    1.782274 S    
O6    Zn2   1.960120 S    
C19   C21   1.412797 A    
S6    O33   1.495663 D    
O25   H9    0.990363 S    
C26   S6    1.779642 S    
O8    Zn1   2.000205 S    
C7    N6    1.453638 S    
S5    O31   1.683511 S    
C17   C22   1.404671 A    
C20   C22   1.411333 A    
Zn1   N3    2.021680 S    
C17   C19   1.387105 A    
C18   C20   1.388987 A    
C13   C15   1.377313 A    
S3    O23   1.500122 D    
O2    Zn2   2.017593 S    
C14   H2    1.082882 S    
N7    O19   1.300799 A    
O5    Zn1   1.960120 S    
C23   H5    1.078443 S    
C6    C8    1.417424 A    
O31   H11   0.990572 S    
N1    N2    1.245498 D    
C25   S5    1.784550 S    
