data_mof_unit_63916.cif
_audit_creation_date              2013-03-05T16:03:12-0500
_audit_creation_method            fapswitch 2.2
_symmetry_space_group_name_H-M    P1
_symmetry_Int_Tables_number       1
_space_group_crystal_system       triclinic
_cell_length_a                    8.286898
_cell_length_b                    14.574031
_cell_length_c                    18.809132
_cell_angle_alpha                 95.633196
_cell_angle_beta                  92.379861
_cell_angle_gamma                 92.373483
_cell_volume                      2256.3595257

loop_
_atom_site_label
_atom_site_type_symbol
_atom_site_description
_atom_site_fract_x
_atom_site_fract_y
_atom_site_fract_z
_atom_type_partial_charge
P1    P     P_3+3 0.053470 0.419720 0.342720 0.565091
O1    O     O_2   0.878750 0.447310 0.330740 -0.405573
O2    O     O_3   0.131030 0.448880 0.418060 -0.367428
O3    O     O_3   0.627390 0.618170 0.367170 -0.360779
O4    O     O_2   0.761256 0.557991 0.245052 -0.437587
O5    O     O_3   0.026600 0.300040 0.330304 -0.507040
O6    O     O_3   0.561034 0.692795 0.235857 -0.545168
H1    H     H_    0.794215 0.732375 0.276597 0.119802
C1    C     C_3   0.780232 0.734993 0.161677 -0.040635
H2    H     H_    0.832766 0.666087 0.154026 0.137361
P2    P     P_3+3 0.625250 0.715650 0.546950 0.486813
P3    P     P_3+3 0.064538 0.785148 0.400917 0.531583
O7    O     O_2   0.796630 0.729270 0.525320 -0.366637
O8    O     O_3   0.039210 0.666640 0.400620 -0.396662
O9    O     O_2   0.919481 0.828898 0.438243 -0.306343
O10   O     O_3   0.663284 0.739293 0.639404 -0.616058
O11   O     O_3   0.041515 0.813584 0.313194 -0.531207
C2    C     C_3   0.153679 0.767796 0.269804 0.123089
H3    H     H_    0.091271 0.704275 0.242582 0.114487
H4    H     H_    0.263128 0.747240 0.299721 0.076892
C3    C     C_3   0.209630 0.833143 0.215386 -0.066359
H5    H     H_    0.110162 0.878109 0.201776 0.165174
C4    C     C_3   0.017476 0.742672 0.683785 0.085789
H6    H     H_    0.921708 0.702486 0.650892 0.154457
C5    C     C_3   0.972227 0.749387 0.763271 -0.684590
H7    H     H_    0.926231 0.681074 0.776505 0.181699
H8    H     H_    0.870055 0.795590 0.771855 0.208770
Ba1   Ba    Ba6+2 0.841340 0.543980 0.464170 1.627806
C6    C     C_3   0.004297 0.267746 0.396907 0.354149
H9    H     H_    0.903860 0.301792 0.424345 0.044875
H10   H     H_    0.116128 0.279857 0.431303 0.167934
C7    C     C_3   0.967270 0.165261 0.385507 -0.810749
H11   H     H_    0.843822 0.149000 0.362026 0.255157
H12   H     H_    0.977476 0.136769 0.437644 0.230560
H13   H     H_    0.054703 0.133643 0.348555 0.324714
C8    C     C_3   0.521013 0.752495 0.675585 0.316296
H14   H     H_    0.421329 0.712164 0.645950 0.135916
C9    C     C_3   0.483066 0.855091 0.683906 -0.923610
H15   H     H_    0.591657 0.897931 0.705178 0.291714
H16   H     H_    0.383061 0.867371 0.720491 0.278788
H17   H     H_    0.441737 0.877965 0.632270 0.232735
P4    P     P_3+3 0.136230 0.580350 0.657290 0.482644
O12   O     O_2   0.310950 0.552720 0.669300 -0.324072
O13   O     O_3   0.058670 0.551200 0.581940 -0.388185
O14   O     O_3   0.562310 0.381900 0.632830 -0.350482
O15   O     O_3   0.164285 0.700403 0.673154 -0.633967
P5    P     P_3+3 0.136446 0.215183 0.608754 0.487253
O16   O     O_3   0.636050 0.386930 0.468580 -0.364762
O17   O     O_3   0.150490 0.333430 0.599380 -0.402770
O18   O     O_2   0.267895 0.169359 0.563379 -0.388967
O19   O     O_3   0.193301 0.198500 0.696954 -0.472672
Ba2   Ba    Ba6+2 0.348470 0.456100 0.535830 1.628296
P6    P     P_3+3 0.598444 0.590003 0.274174 0.470683
C10   C     C_3   0.703607 0.748789 0.235385 0.082847
H18   H     H_    0.882032 0.786344 0.159712 0.092463
O20   O     O_3   0.553640 0.613150 0.531430 -0.347266
C11   C     C_3   0.591586 0.279733 0.320238 0.784171
H19   H     H_    0.688404 0.330829 0.339408 0.043650
C12   C     C_3   0.641740 0.232328 0.248809 -0.882282
H20   H     H_    0.554593 0.174444 0.229330 0.300765
H21   H     H_    0.646352 0.282904 0.208331 0.208758
H22   H     H_    0.763525 0.204526 0.254721 0.252518
P7    P     P_3+3 0.576812 0.267086 0.457679 0.482112
O21   O     O_2   0.393070 0.270760 0.474720 -0.325254
O22   O     O_3   0.570623 0.214482 0.369071 -0.596428
H23   H     H_    0.310915 0.879003 0.240391 0.176481
C13   C     C_3   0.118269 0.264289 0.742606 0.527496
H24   H     H_    0.176631 0.333803 0.739926 0.113949
H25   H     H_    0.987137 0.266277 0.728419 -0.029523
C14   C     C_3   0.136651 0.239478 0.819105 -0.879573
H26   H     H_    0.266451 0.241614 0.836576 0.265880
H27   H     H_    0.073434 0.289365 0.855318 0.198969
H28   H     H_    0.083082 0.169128 0.822898 0.302080
P8    P     P_3+3 0.579761 0.392623 0.726292 0.512533
C15   C     C_3   0.651552 0.228931 0.752124 0.162963
H29   H     H_    0.742026 0.254936 0.795486 0.068264
O23   O     O_2   0.447235 0.456794 0.753578 -0.339925
O24   O     O_3   0.519315 0.285857 0.753753 -0.519304
H30   H     H_    0.707722 0.225782 0.699244 0.083087
C16   C     C_3   0.592912 0.131407 0.764762 -0.066912
H31   H     H_    0.524255 0.098430 0.716221 0.143953
H32   H     H_    0.510566 0.134620 0.810076 0.159434
N1    N     N_R   0.210602 0.510214 0.948597 -0.033513
N2    N     N_R   0.262914 0.508818 0.016781 -0.021411
C17   C     C_2   0.285271 0.524029 0.289714 -0.294656
C18   C     C_3   0.429140 0.505005 0.245156 0.249910
C19   C     C_2   0.376990 0.502775 0.166159 -0.154301
C20   C     C_2   0.219218 0.482476 0.144510 0.047138
C21   C     C_2   0.102136 0.464084 0.201822 -0.283630
C22   C     C_1   0.152139 0.474404 0.270704 0.379611
N3    N     N_R   0.006251 0.457263 0.046002 -0.075043
N4    N     N_R   0.954177 0.458363 0.977886 -0.070327
C23   C     C_R   0.054632 0.484970 0.927383 0.182645
C24   C     C_R   0.162071 0.482176 0.067225 0.214032
C25   C     C_R   0.088676 0.522763 0.798281 -0.227288
C26   C     C_R   0.028470 0.521331 0.726469 0.240637
C27   C     C_R   0.781516 0.442490 0.757374 0.253324
C28   C     C_R   0.838485 0.445860 0.828920 -0.294779
C29   C     C_R   0.994199 0.484695 0.850604 0.029353
C30   C     C_R   0.877011 0.479514 0.706985 -0.403423
H33   H     H_    0.467732 0.514088 0.127608 0.177614
H34   H     H_    0.976761 0.444034 0.187095 0.170147
H35   H     H_    0.206726 0.554878 0.813368 0.205863
H36   H     H_    0.761853 0.416982 0.867117 0.157240
H37   H     H_    0.289994 0.576216 0.335245 0.120689
H38   H     H_    0.830459 0.478671 0.652310 0.168898
C31   C     C_R   0.704305 0.938406 0.541991 -0.050304
C32   C     C_R   0.512344 0.803422 0.502931 0.230156
C33   C     C_R   0.362452 0.772416 0.471369 -0.536470
C34   C     C_R   0.259856 0.832301 0.441122 0.165967
C35   C     C_R   0.310793 0.924368 0.436901 0.257015
C36   C     C_R   0.457937 0.959382 0.471750 -0.051616
C37   C     C_R   0.560535 0.899482 0.505736 -0.054552
H39   H     H_    0.323077 0.700681 0.471635 0.185833
C38   C     C_R   0.640039 0.093205 0.512050 -0.028605
C39   C     C_R   0.745837 0.033926 0.544419 0.061159
C40   C     C_R   0.679775 0.189644 0.515962 0.220050
C41   C     C_R   0.822493 0.224704 0.552322 -0.509391
C42   C     C_R   0.933638 0.165813 0.578994 0.198386
C43   C     C_R   0.894684 0.070870 0.576258 -0.134534
C44   C     C_R   0.499261 0.054383 0.475344 -0.011003
H40   H     H_    0.982259 0.026066 0.596870 0.207945
H41   H     H_    0.854559 0.297606 0.553483 0.159783
H42   H     H_    0.784049 0.895338 0.569040 0.177534
H43   H     H_    0.417268 0.098968 0.451295 0.196707
C45   C     C_2   0.110463 0.783992 0.814709 1.239597
O25   O     O_2   0.169144 0.732336 0.855137 -0.623181
O26   O     O_R   0.167586 0.875926 0.818038 -0.733786
H44   H     H_    0.259452 0.891046 0.855176 0.356911
C46   C     C_2   0.544453 0.716625 0.747733 1.018038
O27   O     O_2   0.584451 0.637340 0.750790 -0.621904
O28   O     O_R   0.525253 0.773449 0.810953 -0.772899
H45   H     H_    0.545964 0.740618 0.855315 0.363805
C47   C     C_2   0.663182 0.847959 0.256072 1.081312
O29   O     O_2   0.682252 0.906951 0.214949 -0.542020
O30   O     O_R   0.604329 0.873644 0.323280 -0.752297
H46   H     H_    0.593673 0.819877 0.353288 0.288610
N5    N     N_R   0.441747 0.325693 0.311055 0.188490
O31   O     O_R   0.328141 0.289080 0.265930 -0.407786
O32   O     O_R   0.406193 0.387587 0.361554 -0.414755
N6    N     N_R   0.662932 0.743668 0.102923 0.306520
O33   O     O_R   0.566808 0.673518 0.079238 -0.309484
O34   O     O_R   0.674959 0.814106 0.065661 -0.271996
N7    N     N_R   0.729724 0.076053 0.780926 0.237694
O35   O     O_R   0.739340 0.038247 0.840702 -0.321176
O36   O     O_R   0.842919 0.064117 0.735601 -0.380836
N8    N     N_R   0.216753 0.980920 0.394574 0.224046
O37   O     O_R   0.062401 0.985225 0.402585 -0.375214
O38   O     O_R   0.281200 0.018107 0.341707 -0.390797
N9    N     N_R   0.262602 0.785050 0.149106 0.264522
O39   O     O_R   0.314065 0.833333 0.099341 -0.265493
O40   O     O_R   0.248788 0.695672 0.136537 -0.377530
C48   C     C_2   0.032273 0.836268 0.655734 1.040134
O41   O     O_2   0.997886 0.905981 0.692181 -0.540515
O42   O     O_R   0.086794 0.844307 0.587409 -0.800772
H47   H     H_    0.108749 0.782200 0.561586 0.305841

loop_
_geom_bond_atom_site_label_1
_geom_bond_atom_site_label_2
_geom_bond_distance
_ccdc_geom_bond_type
C19   C20   1.364855 D    
P7    O22   1.762632 S    
C45   O25   1.222080 D    
C38   C44   1.399828 A    
C21   H34   1.084724 S    
C2    C3    1.537495 S    
Ba1   Ba2   4.527908 S    
N8    O37   1.297504 A    
C15   H29   1.111737 S    
O26   H44   1.013809 S    
P3    C34   1.835244 S    
C27   C28   1.403061 A    
Ba1   O20   2.915481 S    
P5    O17   1.749070 S    
C17   C18   1.505128 S    
P1    C22   1.840790 S    
P4    C26   1.866279 S    
O4    P6    1.549647 D    
O2    Ba1   2.940867 S    
N8    O38   1.301413 A    
P1    O1    1.532236 D    
C6    C7    1.504913 S    
C8    C46   1.509426 S    
N6    O34   1.301359 A    
C9    H15   1.110960 S    
O3    P6    1.761157 S    
C25   C29   1.422854 A    
O12   Ba2   2.790879 S    
C11   C12   1.530700 S    
C38   C39   1.416822 A    
N1    C23   1.361653 A    
C32   C33   1.392527 A    
C2    H3    1.109928 S    
P4    O15   1.749988 S    
C34   C35   1.400590 A    
C31   C37   1.416641 A    
C19   H33   1.084856 S    
C35   C36   1.411850 A    
C43   H40   1.081171 S    
O28   H45   1.013867 S    
C38   C40   1.424308 A    
P8    O23   1.543315 D    
P3    O11   1.745065 S    
P1    Ba1   3.372416 S    
C4    H6    1.097817 S    
O7    Ba1   2.874188 S    
C14   H26   1.109869 S    
C1    H18   1.108550 S    
P5    O18   1.544847 D    
C15   C16   1.526921 S    
C23   C29   1.508304 S    
O13   Ba2   2.941640 S    
P5    C42   1.843440 S    
C12   H20   1.111003 S    
C4    O15   1.399167 S    
C3    H5    1.111122 S    
C41   C42   1.395825 A    
P4    O13   1.544590 S    
C31   H42   1.076418 S    
C17   H37   1.086423 S    
C36   C37   1.421097 A    
O3    Ba1   2.814024 S    
C25   H35   1.081463 S    
P8    C27   1.843924 S    
C17   C22   1.310908 D    
C20   C24   1.509581 S    
C12   H21   1.111173 S    
C14   H27   1.109486 S    
C40   C41   1.393451 A    
C13   H24   1.110975 S    
C7    H13   1.107699 S    
C9    H17   1.103223 S    
C16   H32   1.112398 S    
Ba2   O21   2.874446 S    
H1    C10   1.106734 S    
N3    N4    1.336659 A    
C1    N6    1.459646 S    
C18   C19   1.526965 S    
C16   H31   1.111920 S    
O16   P7    1.784379 S    
C47   O30   1.396227 S    
O14   Ba2   2.813527 S    
C16   N7    1.457361 S    
C5    H7    1.106152 S    
Ba1   O13   2.787250 S    
C39   C43   1.410796 A    
O14   P8    1.748935 S    
P1    O2    1.544454 S    
C3    H23   1.109707 S    
C7    H12   1.103280 S    
C32   C37   1.435148 A    
C46   O28   1.399450 S    
C5    C45   1.505662 S    
C44   H43   1.075755 S    
C6    H9    1.106742 S    
C35   N8    1.432106 S    
P2    O10   1.752125 S    
N1    N2    1.338947 A    
P3    O9    1.546009 D    
C42   C43   1.403256 A    
O17   Ba2   2.766976 S    
C14   H28   1.110247 S    
O11   C2    1.408118 S    
N2    C24   1.364061 A    
C3    N9    1.462029 S    
P6    C18   1.860262 S    
N5    O32   1.296037 A    
C33   H39   1.082778 S    
N7    O36   1.299143 A    
P3    O8    1.730626 S    
C4    C48   1.512264 S    
N9    O40   1.300273 A    
C48   O42   1.393858 S    
P4    O12   1.532495 D    
O6    P6    1.758326 S    
P2    C32   1.854723 S    
C27   C30   1.393918 A    
C1    H2    1.109851 S    
C13   H25   1.110392 S    
Ba1   O16   2.804699 S    
C12   H22   1.108363 S    
C45   O26   1.397041 S    
P1    O5    1.740678 S    
C11   O22   1.396142 S    
O30   H46   1.012730 S    
P5    O19   1.748448 S    
O2    Ba2   2.787808 S    
C47   O29   1.221421 D    
C5    H8    1.110681 S    
C30   H38   1.082007 S    
N7    O35   1.300733 A    
C13   C14   1.520788 S    
C7    H11   1.104349 S    
C8    C9    1.534996 S    
C46   O27   1.221290 D    
C21   C22   1.336010 D    
C36   C44   1.406860 A    
C6    H10   1.105794 S    
N6    O33   1.300726 A    
O10   C8    1.396382 S    
N3    C24   1.359578 A    
C9    H16   1.108079 S    
P2    O7    1.504130 D    
C11   H19   1.096381 S    
O19   C13   1.405470 S    
P2    Ba1   3.424684 S    
P7    C40   1.857039 S    
C26   C30   1.391278 A    
N4    C23   1.362704 A    
C11   N5    1.447111 S    
C2    H4    1.114552 S    
C41   H41   1.082360 S    
C4    C5    1.551209 S    
C15   O24   1.401142 S    
C31   C39   1.415993 A    
N5    O31   1.301755 A    
P7    O21   1.570979 D    
O16   Ba2   2.914555 S    
O5    C6    1.397447 S    
C20   C21   1.515693 S    
C8    H14   1.093531 S    
C28   C29   1.415015 A    
P8    O24   1.747449 S    
O42   H47   1.011411 S    
N9    O39   1.300321 A    
O1    Ba1   2.790391 S    
C1    C10   1.547456 S    
O6    C10   1.408679 S    
O8    Ba1   2.766350 S    
C48   O41   1.219369 D    
C33   C34   1.388161 A    
C15   H30   1.113253 S    
C28   H36   1.082460 S    
C25   C26   1.418264 A    
P2    O20   1.579714 S    
Ba2   O20   2.804105 S    
P4    Ba2   3.372984 S    
C10   C47   1.514290 S    
