data_mof_unit_48538.cif
_audit_creation_date              2012-12-10T17:37:31-0500
_audit_creation_method            fapswitch 2.2
_symmetry_space_group_name_H-M    P1
_symmetry_Int_Tables_number       1
_space_group_crystal_system       triclinic
_cell_length_a                    11.96912
_cell_length_b                    12.897634
_cell_length_c                    16.64157
_cell_angle_alpha                 90.847501
_cell_angle_beta                  81.664663
_cell_angle_gamma                 93.280273
_cell_volume                      2537.65741021

loop_
_atom_site_label
_atom_site_type_symbol
_atom_type_description
_atom_site_fract_x
_atom_site_fract_y
_atom_site_fract_z
_atom_type_partial_charge
C1    C     C_R   0.522232 0.700452 0.497998 0.918665
C2    C     C_R   0.560930 0.132563 0.502468 -0.240174
C3    C     C_R   0.449086 0.973989 0.489154 -0.007851
C4    C     C_R   0.554297 0.025819 0.497700 -0.008876
C5    C     C_R   0.962306 0.398171 0.427621 -0.328798
C6    C     C_R   0.037642 0.601628 0.572556 -0.324524
C7    C     C_R   0.845207 0.408418 0.434335 0.031277
C8    C     C_R   0.154761 0.591434 0.565792 0.030290
C9    C     C_R   0.854787 0.544462 0.531002 -0.052525
C10   C     C_R   0.145192 0.455493 0.469046 -0.051241
C11   C     C_R   0.972825 0.537060 0.526288 0.087505
C12   C     C_R   0.477932 0.299471 0.500941 0.924603
C13   C     C_R   0.027142 0.462841 0.473806 0.094591
C14   C     C_R   0.484962 0.502446 0.654383 0.900763
C15   C     C_R   0.515978 0.505249 0.346012 0.885532
C16   C     C_R   0.478226 0.519153 0.741497 -0.104796
C17   C     C_R   0.529518 0.542789 0.263064 -0.089083
C18   C     C_R   0.570296 0.498012 0.780474 -0.302283
C19   C     C_R   0.453326 0.613321 0.242609 -0.324140
C20   C     C_R   0.571682 0.526986 0.861731 0.578637
C21   C     C_R   0.466640 0.655786 0.164507 0.564285
C22   C     C_R   0.477362 0.575690 0.903634 0.051774
C23   C     C_R   0.465310 0.188159 0.498862 -0.154002
C24   C     C_R   0.559538 0.627756 0.108277 0.058599
C25   C     C_R   0.383361 0.591975 0.865498 -0.241137
C26   C     C_R   0.640035 0.563511 0.130752 -0.217937
C27   C     C_R   0.383927 0.564574 0.784638 -0.192143
C28   C     C_R   0.625028 0.520901 0.207946 -0.207395
C29   C     C_2   0.470424 0.602296 0.989538 -0.142762
C30   C     C_2   0.559413 0.642802 0.021765 -0.104845
C31   C     C_3   0.280785 0.704137 0.172217 -0.360096
C32   C     C_3   0.764273 0.532417 0.863392 -0.375930
C33   C     C_3   0.825491 0.021238 0.437834 -0.341996
C34   C     C_R   0.536010 0.811580 0.494924 -0.147413
C35   C     C_3   0.227363 0.983738 0.398297 -0.357784
C36   C     C_R   0.651022 0.970020 0.501647 0.555551
C37   C     C_R   0.352740 0.029964 0.484186 0.559141
C38   C     C_R   0.640497 0.862288 0.501834 -0.291297
C39   C     C_R   0.361183 0.137547 0.490686 -0.289855
C40   C     C_R   0.441762 0.867057 0.486774 -0.242692
H1    H     H_    0.204686 0.641302 0.601447 0.134463
H2    H     H_    0.361686 0.826691 0.479991 0.214410
H3    H     H_    0.286840 0.181022 0.488574 0.175828
H4    H     H_    0.713337 0.818848 0.508767 0.176043
H5    H     H_    0.188472 0.399007 0.428977 0.122856
H6    H     H_    0.811492 0.600923 0.571094 0.125572
H7    H     H_    0.640416 0.458345 0.747736 0.168077
H8    H     H_    0.385235 0.636648 0.288113 0.166506
H9    H     H_    0.638511 0.664575 0.983605 0.161938
H10   H     H_    0.392155 0.578873 0.028272 0.156722
H11   H     H_    0.260852 0.734092 0.235285 0.173474
H12   H     H_    0.795270 0.358434 0.398769 0.127013
H13   H     H_    0.257515 0.619427 0.169019 0.152173
H14   H     H_    0.227430 0.744182 0.134575 0.199446
H15   H     H_    0.764778 0.612583 0.839135 0.153317
H16   H     H_    0.794820 0.477383 0.814220 0.186220
H17   H     H_    0.825165 0.534293 0.907764 0.195322
H18   H     H_    0.787673 0.060435 0.389856 0.153425
H19   H     H_    0.847649 0.941270 0.418086 0.165987
H20   H     H_    0.905248 0.065877 0.445695 0.204868
H21   H     H_    0.294604 0.947080 0.355751 0.167953
H22   H     H_    0.218253 0.065014 0.379770 0.161849
H23   H     H_    0.001633 0.340260 0.386794 0.139221
H24   H     H_    0.146299 0.939446 0.393651 0.197225
H25   H     H_    0.998275 0.659398 0.613498 0.150644
H26   H     H_    0.686603 0.469493 0.224102 0.157814
H27   H     H_    0.311838 0.581378 0.755445 0.164096
H28   H     H_    0.310054 0.627389 0.898208 0.159132
H29   H     H_    0.710587 0.541048 0.086788 0.174037
H30   H     H_    0.641136 0.172660 0.509255 0.218171
N1    N     N_R   0.206400 0.519440 0.514690 -0.102315
N2    N     N_R   0.793600 0.480560 0.485310 -0.099594
O1    O     O_R   0.421320 0.658850 0.503920 -0.633416
O2    O     O_3   0.656910 0.497687 0.903733 -0.613215
O3    O     O_3   0.752978 0.020407 0.512601 -0.606389
O4    O     O_3   0.248802 0.979420 0.479246 -0.608778
O5    O     O_R   0.578680 0.341150 0.496080 -0.629410
O6    O     O_R   0.609840 0.646370 0.494500 -0.625006
O7    O     O_R   0.390160 0.353630 0.505500 -0.620342
O8    O     O_R   0.394600 0.506990 0.621070 -0.620193
O9    O     O_R   0.605400 0.493010 0.378930 -0.619736
O10   O     O_R   0.583120 0.494520 0.611640 -0.619232
O11   O     O_R   0.416880 0.505480 0.388360 -0.624290
O12   O     O_3   0.395425 0.728139 0.141311 -0.605825
Zn1   Zn    Zn3+2 0.374120 0.508330 0.506290 0.940482
Zn2   Zn    Zn3+2 0.625880 0.491670 0.493710 0.943821

loop_
_geom_bond_atom_site_label_1
_geom_bond_atom_site_label_2
_ccdc_geom_bond_type
C4    C36   A    
C33   H18   S    
C22   C29   S    
C2    C4    A    
C9    N2    A    
C18   H7    S    
C15   O9    A    
C12   C23   S    
O8    Zn1   S    
C34   C40   A    
C19   C21   A    
C24   C26   A    
C7    H12   S    
C32   O2    S    
C12   O7    A    
C5    H23   S    
N1    Zn1   S    
C33   O3    S    
C6    H25   S    
C22   C25   A    
C35   H24   S    
C14   O8    A    
C32   H15   S    
C5    C13   A    
O9    Zn2   S    
C10   N1    A    
O6    Zn2   S    
C16   C27   A    
C40   H2    S    
C9    H6    S    
C33   H19   S    
C1    O6    A    
C25   H28   S    
C32   H17   S    
C1    C34   S    
C29   H10   S    
C39   H3    S    
C35   O4    S    
C8    H1    S    
C7    N2    A    
C5    C7    A    
C19   H8    S    
C15   O11   A    
O10   Zn2   S    
C31   O12   S    
C28   H26   S    
C38   H4    S    
C29   C30   D    
C36   O3    S    
C21   O12   S    
C12   O5    A    
C10   H5    S    
C20   O2    S    
C35   H21   S    
C31   H13   S    
C9    C11   A    
O1    Zn1   S    
C6    C8    A    
O11   Zn1   S    
C37   O4    S    
C20   C22   A    
O5    Zn2   S    
C33   H20   S    
C6    C11   A    
C14   C16   S    
C14   O10   A    
C3    C4    A    
O7    Zn1   S    
C15   C17   S    
C8    N1    A    
C34   C38   A    
C17   C28   A    
C30   H9    S    
C31   H11   S    
C10   C13   A    
C3    C40   A    
N2    Zn2   S    
C25   C27   A    
C26   C28   A    
C1    O1    A    
C36   C38   A    
C37   C39   A    
C11   C13   A    
C23   C39   A    
C17   C19   A    
C35   H22   S    
C18   C20   A    
C31   H14   S    
C24   C30   S    
C27   H27   S    
C3    C37   A    
C16   C18   A    
C21   C24   A    
C2    C23   A    
C26   H29   S    
C2    H30   S    
C32   H16   S    
