data_mof_unit_44549.cif
_audit_creation_date              2013-03-05T16:08:21-0500
_audit_creation_method            fapswitch 2.2
_symmetry_space_group_name_H-M    P1
_symmetry_Int_Tables_number       1
_space_group_crystal_system       triclinic
_cell_length_a                    6.963106
_cell_length_b                    14.520664
_cell_length_c                    16.086221
_cell_angle_alpha                 89.981954
_cell_angle_beta                  90.008659
_cell_angle_gamma                 89.988383
_cell_volume                      1626.46034168

loop_
_atom_site_label
_atom_site_type_symbol
_atom_site_description
_atom_site_fract_x
_atom_site_fract_y
_atom_site_fract_z
_atom_type_partial_charge
O1    O     O_R   0.505700 0.583890 0.413310 -0.597901
O2    O     O_R   0.175960 0.594920 0.586080 -0.604172
O3    O     O_R   0.005660 0.416110 0.586690 -0.603446
C1    C     C_R   0.344752 0.616955 0.614806 0.927015
O4    O     O_R   0.175980 0.594920 0.413930 -0.604724
O5    O     O_R   0.005680 0.416110 0.413310 -0.590150
C2    C     C_R   0.344753 0.616938 0.385191 0.926401
O6    O     O_R   0.505680 0.583890 0.586690 -0.598930
O7    O     O_3   0.339200 0.441330 0.500000 -0.236102
V1    V     V_3+5 0.064350 0.510880 0.500000 1.155637
O8    O     O_R   0.675960 0.405080 0.413920 -0.584053
C3    C     C_R   0.845030 0.383113 0.385127 0.954232
O9    O     O_R   0.675940 0.405080 0.586070 -0.559242
C4    C     C_R   0.844678 0.382463 0.614317 0.960673
V2    V     V_3+5 0.564340 0.489120 0.500000 1.188955
O10   O     O_3   0.839360 0.558670 0.500000 -0.291256
C5    C     C_R   0.997208 0.245190 0.684634 0.106366
C6    C     C_R   0.851501 0.311653 0.680635 -0.249079
C7    C     C_R   0.703808 0.305403 0.740490 -0.101853
H1    H     H_    0.584342 0.353012 0.738746 0.111267
C8    C     C_R   0.715501 0.241719 0.806699 -0.174480
H2    H     H_    0.603884 0.241658 0.853498 0.125792
C9    C     C_R   0.875985 0.183095 0.815341 -0.207030
C10   C     C_R   0.010267 0.183759 0.750698 0.152666
C11   C     C_3   0.224311 0.185759 0.751131 -0.601768
C12   C     C_3   0.210633 0.251703 0.677239 0.201093
H3    H     H_    0.287890 0.117444 0.736391 0.229852
H4    H     H_    0.281361 0.219004 0.808173 0.175379
H5    H     H_    0.267715 0.321915 0.689423 0.062478
C13   C     C_R   0.728047 0.182340 0.241760 0.169894
C14   C     C_R   0.882010 0.182278 0.185628 -0.229856
C15   C     C_R   0.033477 0.244192 0.201271 -0.159871
H6    H     H_    0.155842 0.246499 0.160049 0.137328
C16   C     C_R   0.022294 0.308365 0.266807 -0.149485
H7    H     H_    0.136960 0.357892 0.274212 0.130219
C17   C     C_R   0.859005 0.312797 0.318523 -0.235119
C18   C     C_R   0.716584 0.246066 0.306392 0.217418
C19   C     C_3   0.505707 0.257924 0.295030 -0.458723
C20   C     C_3   0.518061 0.188130 0.224871 -0.481527
H8    H     H_    0.468609 0.328421 0.273438 0.175976
H9    H     H_    0.422598 0.232748 0.349480 0.233446
H10   H     H_    0.487388 0.217908 0.162603 0.191816
H11   H     H_    0.442729 0.122441 0.238886 0.200585
C21   C     C_R   0.507173 0.682784 0.741340 0.154739
C22   C     C_R   0.352754 0.682474 0.685446 -0.222803
C23   C     C_R   0.201194 0.744343 0.701130 -0.147156
H12   H     H_    0.078671 0.746550 0.659979 0.141796
C24   C     C_R   0.212427 0.808551 0.766637 -0.141063
H13   H     H_    0.097617 0.858007 0.774122 0.137104
C25   C     C_R   0.375859 0.813055 0.818280 -0.228027
C26   C     C_R   0.518719 0.746566 0.805933 0.160751
C27   C     C_3   0.729297 0.758945 0.794015 -0.468364
C28   C     C_3   0.716846 0.689061 0.723960 -0.457117
H14   H     H_    0.813493 0.734033 0.848260 0.190870
H15   H     H_    0.765293 0.829510 0.772264 0.194799
H16   H     H_    0.793077 0.623562 0.737854 0.181399
H17   H     H_    0.746426 0.718855 0.661601 0.197980
C29   C     C_R   0.507273 0.682778 0.258713 0.156418
C30   C     C_R   0.352747 0.682423 0.314528 -0.222368
C31   C     C_R   0.201132 0.744233 0.298772 -0.150454
H18   H     H_    0.078562 0.746400 0.339879 0.141602
C32   C     C_R   0.212397 0.808450 0.233262 -0.149134
H19   H     H_    0.097521 0.857863 0.225706 0.135411
C33   C     C_R   0.375939 0.813030 0.181717 -0.226744
C34   C     C_R   0.518860 0.746583 0.194117 0.162551
C35   C     C_3   0.729378 0.759055 0.206149 -0.470967
C36   C     C_3   0.716895 0.689142 0.276213 -0.457088
H20   H     H_    0.765173 0.829631 0.227902 0.191606
H21   H     H_    0.813744 0.734202 0.151957 0.192332
H22   H     H_    0.746270 0.718929 0.338580 0.196713
H23   H     H_    0.793298 0.623685 0.262380 0.182799
O11   O     O_R   0.229000 0.916070 0.913330 -0.594845
O12   O     O_R   0.558770 0.905070 0.086080 -0.594203
O13   O     O_R   0.729000 0.083900 0.086690 -0.593348
C37   C     C_R   0.389763 0.883208 0.114984 0.936440
O14   O     O_R   0.558720 0.905070 0.913930 -0.592962
O15   O     O_R   0.728960 0.083900 0.913310 -0.592592
C38   C     C_R   0.389686 0.883211 0.885034 0.943531
O16   O     O_R   0.229050 0.916070 0.086710 -0.594938
O17   O     O_3   0.395460 0.058650 0.000020 -0.279445
V3    V     V_3+5 0.670340 0.989120 0.000000 1.143907
O18   O     O_R   0.058670 0.094960 0.913900 -0.593987
C39   C     C_R   0.889525 0.117131 0.885370 0.942464
O19   O     O_R   0.058720 0.094960 0.086050 -0.599753
C40   C     C_R   0.889937 0.116895 0.114867 0.933895
V4    V     V_3+5 0.170330 0.010930 0.999970 1.141024
O20   O     O_3   0.895340 0.941350 0.999980 -0.276398
N1    N     N_R   0.280978 0.210651 0.599878 0.257054
O21   O     O_R   0.414826 0.251845 0.557601 -0.379441
O22   O     O_R   0.213765 0.132306 0.573305 -0.399717

loop_
_geom_bond_atom_site_label_1
_geom_bond_atom_site_label_2
_geom_bond_distance
_ccdc_geom_bond_type
C35   H20   1.111353 S    
C14   C40   1.483494 S    
C4    C6    1.482180 S    
C7    H1    1.081874 S    
C1    O6    1.300314 A    
C22   C23   1.408644 A    
C21   C22   1.401524 A    
C11   H4    1.110422 S    
C32   H19   1.081249 S    
C9    C39   1.481431 S    
C5    C12   1.493882 S    
C17   C18   1.400319 A    
C7    C8    1.412585 A    
O19   V4    2.002794 S    
C16   H7    1.081271 S    
O5    C3    1.298706 A    
C19   C20   1.519519 S    
C35   H21   1.111550 S    
O15   C39   1.298103 A    
V2    O10   2.165157 S    
C31   C32   1.409123 A    
C6    C7    1.411802 A    
O12   V3    2.002522 S    
C32   C33   1.410314 A    
O8    V2    2.002912 S    
C21   C28   1.489349 S    
O17   V4    1.714051 S    
C9    C10   1.398557 A    
O1    V2    2.000875 S    
C3    C17   1.483420 S    
O7    V1    2.163749 S    
C36   H23   1.111721 S    
C27   H15   1.111338 S    
C24   C25   1.410391 A    
C35   C36   1.519137 S    
C30   C31   1.408444 A    
O9    C4    1.301686 A    
O12   C37   1.304637 A    
C25   C38   1.483520 S    
C2    C30   1.482802 S    
C27   H14   1.111547 S    
C25   C26   1.400318 A    
C20   H10   1.111535 S    
C1    C22   1.483295 S    
C23   C24   1.409402 A    
C5    C10   1.390211 A    
C26   C27   1.489702 S    
C10   C11   1.490712 S    
C19   H9    1.111658 S    
O4    C2    1.302778 A    
C28   H17   1.111602 S    
V4    O20   2.165176 S    
C20   H11   1.111710 S    
C29   C30   1.401499 A    
O18   V4    2.002126 S    
C13   C18   1.394345 A    
C31   H18   1.080195 S    
C15   C16   1.409388 A    
O2    C1    1.302828 A    
C18   C19   1.489607 S    
C29   C34   1.394308 A    
C14   C15   1.408681 A    
O15   V3    2.001147 S    
C5    C6    1.401587 A    
O19   C40   1.302945 A    
V3    O20   1.713258 S    
O3    C4    1.301128 A    
C21   C26   1.394437 A    
C24   H13   1.081284 S    
N1    O22   1.302465 A    
C34   C35   1.489647 S    
O6    V2    2.001591 S    
O9    V2    2.002051 S    
O13   V3    2.001720 S    
O2    V1    2.002912 S    
C27   C28   1.519199 S    
C28   H16   1.111717 S    
C23   H12   1.080222 S    
O1    C2    1.300127 A    
O14   C38   1.304692 A    
O17   V3    2.163798 S    
O14   V3    2.002919 S    
O5    V1    2.001636 S    
O11   V4    2.001946 S    
O8    C3    1.304724 A    
C11   H3    1.111857 S    
C36   H22   1.111617 S    
C15   H6    1.080258 S    
C8    C9    1.411442 A    
C11   C12   1.529071 S    
O4    V1    2.002487 S    
O3    V1    2.001146 S    
V1    O10   1.713313 S    
C33   C34   1.400179 A    
C19   H8    1.111251 S    
C13   C14   1.401768 A    
C33   C37   1.483058 S    
C13   C20   1.489494 S    
C16   C17   1.410420 A    
O13   C40   1.300382 A    
O7    V2    1.714526 S    
C29   C36   1.489367 S    
N1    O21   1.299655 A    
C12   H5    1.111793 S    
C12   N1    1.464392 S    
O18   C39   1.304223 A    
O11   C38   1.298769 A    
C8    H2    1.082114 S    
C37   O16   1.298594 A    
O16   V4    2.002447 S    
