data_mof_unit_13761.cif
_audit_creation_date              2012-12-10T20:39:54-0500
_audit_creation_method            fapswitch 2.2
_symmetry_space_group_name_H-M    P1
_symmetry_Int_Tables_number       1
_space_group_crystal_system       triclinic
_cell_length_a                    23.105724
_cell_length_b                    10.698602
_cell_length_c                    9.902369
_cell_angle_alpha                 89.568274
_cell_angle_beta                  89.721965
_cell_angle_gamma                 90.672709
_cell_volume                      2447.58708243

loop_
_atom_site_label
_atom_site_type_symbol
_atom_type_description
_atom_site_fract_x
_atom_site_fract_y
_atom_site_fract_z
_atom_type_partial_charge
C1    C     C_R   0.502343 0.259914 0.499956 0.927907
C2    C     C_R   0.968231 0.258436 0.582879 -0.130390
C3    C     C_R   0.028238 0.249757 0.597742 0.130021
C4    C     C_R   0.061446 0.361070 0.614711 0.003033
C5    C     C_R   0.033146 0.477620 0.622722 -0.121709
C6    C     C_R   0.065630 0.586742 0.648949 -0.201014
C7    C     C_R   0.037560 0.700586 0.670705 0.660561
C8    C     C_R   0.977385 0.709660 0.654327 0.041837
C9    C     C_R   0.122407 0.363518 0.617071 0.536065
C10   C     C_R   0.126087 0.578839 0.645567 0.594006
C11   C     C_R   0.234331 0.597169 0.490712 0.209529
C12   C     C_R   0.389450 0.499112 0.500131 0.907246
C13   C     C_R   0.295233 0.604682 0.490641 0.075058
C14   C     C_R   0.326748 0.492820 0.499165 -0.125581
C15   C     C_R   0.298303 0.376145 0.484302 0.070840
C16   C     C_R   0.237464 0.373202 0.481790 0.218421
C17   C     C_R   0.207374 0.480970 0.524020 0.115994
C18   C     C_R   0.769031 0.459975 0.416484 0.721159
C19   C     C_R   0.708967 0.460711 0.402124 -0.304691
C20   C     C_R   0.674194 0.506439 0.506621 -0.119323
C21   C     C_R   0.700045 0.551935 0.624855 -0.193263
C22   C     C_R   0.759448 0.548716 0.640250 -0.178226
C23   C     C_R   0.502600 0.739766 0.499697 0.944403
C24   C     C_R   0.794255 0.502514 0.536811 0.167787
C25   C     C_R   0.514271 0.062745 0.620670 -0.215101
C26   C     C_R   0.512339 0.128373 0.498966 -0.227656
C27   C     C_R   0.522779 0.064724 0.377154 0.660239
C28   C     C_R   0.523013 0.935346 0.378034 -0.289697
C29   C     C_R   0.513444 0.870794 0.499896 -0.117296
C30   C     C_R   0.515905 0.934870 0.621807 -0.134963
C31   C     C_3   0.478625 0.924542 0.746102 0.564381
C32   C     C_3   0.475303 0.066187 0.741256 1.197023
C33   C     C_R   0.449377 0.493040 0.071854 0.073307
C34   C     C_R   0.611043 0.501267 0.500394 0.888066
C35   C     C_R   0.548421 0.534303 0.068562 0.239236
C36   C     C_R   0.548779 0.526942 0.925407 -0.091042
C37   C     C_R   0.449120 0.496170 0.930240 0.091250
C38   C     C_3   0.401168 0.401579 0.926897 0.530453
C39   C     C_3   0.402758 0.396586 0.080681 -0.509862
C40   C     C_R   0.885550 0.605033 0.581493 0.565241
C41   C     C_R   0.881267 0.382658 0.561695 0.592791
C42   C     C_R   0.940700 0.374533 0.584006 -0.040449
C43   C     C_R   0.972849 0.484745 0.607694 -0.054630
C44   C     C_R   0.944925 0.601822 0.614625 -0.106093
H1    H     H_    0.943018 0.173823 0.566778 0.190360
H2    H     H_    0.689888 0.421755 0.312153 0.184394
H3    H     H_    0.674256 0.588463 0.706893 0.167255
H4    H     H_    0.778576 0.581121 0.733501 0.179326
H5    H     H_    0.526446 0.886756 0.282756 0.190024
H6    H     H_    0.587882 0.548098 0.868894 0.142038
H7    H     H_    0.360336 0.439086 0.884724 0.075878
H8    H     H_    0.362813 0.433061 0.128506 0.165993
H9    H     H_    0.418311 0.306408 0.122787 0.268179
N1    N     N_R   0.855428 0.496659 0.557263 -0.337702
N2    N     N_R   0.151243 0.474201 0.593759 -0.334632
N3    N     N_R   0.499610 0.499140 0.142800 -0.073617
N4    N     N_R   0.499610 0.499180 0.857150 -0.091573
O1    O     O_R   0.500010 0.316790 0.614690 -0.537703
O2    O     O_2   0.849328 0.277481 0.544816 -0.519435
O3    O     O_2   0.152155 0.260354 0.649761 -0.544330
O4    O     O_2   0.159142 0.672295 0.695056 -0.465680
O5    O     O_R   0.500000 0.316760 0.385350 -0.558927
O6    O     O_R   0.416160 0.499980 0.614700 -0.591894
O7    O     O_R   0.416150 0.499940 0.385360 -0.620484
O8    O     O_R   0.500000 0.683240 0.614650 -0.598231
O9    O     O_R   0.499990 0.683210 0.385310 -0.650227
O10   O     O_R   0.583850 0.500060 0.614640 -0.636935
O11   O     O_R   0.583840 0.500020 0.385300 -0.623391
O12   O     O_2   0.857866 0.714798 0.570212 -0.550210
Zn1   Zn    Zn3+2 0.500000 0.500020 0.653130 1.037241
Zn2   Zn    Zn3+2 0.500000 0.499980 0.346870 0.987809
F1    F     F_    0.528063 0.125300 0.256595 -0.620443
F2    F     F_    0.425735 0.866435 0.722772 -0.634917
C45   C     C_3   0.510038 0.870768 0.869044 -0.805252
H10   H     H_    0.553662 0.914110 0.880768 0.230390
H11   H     H_    0.484215 0.887706 0.961837 0.262396
H12   H     H_    0.515132 0.768685 0.857562 0.237689
F3    F     F_    0.420500 0.108339 0.709858 -0.603121
F4    F     F_    0.500713 0.126677 0.849499 -0.613346
C46   C     C_3   0.600639 0.592943 0.131868 -0.805722
H13   H     H_    0.587651 0.658457 0.212393 0.260825
H14   H     H_    0.629801 0.519001 0.167986 0.254946
H15   H     H_    0.625671 0.650094 0.057225 0.200022
C47   C     C_3   0.055052 0.122242 0.585204 -0.705957
H16   H     H_    0.087619 0.122881 0.502396 0.247980
H17   H     H_    0.075481 0.094983 0.682092 0.296697
H18   H     H_    0.022428 0.049033 0.560557 0.218092
F5    F     F_    0.418191 0.291315 0.869741 -0.536430
F6    F     F_    0.069064 0.804989 0.700097 -0.636342
C48   C     C_3   0.949426 0.834021 0.683093 -0.694636
H19   H     H_    0.912873 0.820633 0.755152 0.254826
H20   H     H_    0.979524 0.901750 0.730967 0.252159
H21   H     H_    0.934166 0.877308 0.587677 0.260491
C49   C     C_3   0.199660 0.702357 0.428982 -0.778247
H22   H     H_    0.154343 0.673085 0.408275 0.224907
H23   H     H_    0.199580 0.785514 0.495233 0.284747
H24   H     H_    0.218946 0.729666 0.329966 0.229695
C50   C     C_3   0.327088 0.729006 0.478154 -0.776688
H25   H     H_    0.357598 0.739470 0.563564 0.285314
H26   H     H_    0.351924 0.732520 0.381894 0.228262
H27   H     H_    0.298130 0.810651 0.480891 0.255291
C51   C     C_3   0.331379 0.255543 0.467306 -0.740213
H28   H     H_    0.378210 0.265570 0.487986 0.238341
H29   H     H_    0.314191 0.183829 0.539049 0.281221
H30   H     H_    0.326591 0.220842 0.362584 0.222954
C52   C     C_3   0.207300 0.269841 0.404312 -0.788578
H31   H     H_    0.211206 0.178796 0.457784 0.276849
H32   H     H_    0.161096 0.290429 0.385477 0.227448
H33   H     H_    0.227586 0.261324 0.302966 0.223965
F7    F     F_    0.802533 0.416175 0.314778 -0.634009

loop_
_geom_bond_atom_site_label_1
_geom_bond_atom_site_label_2
_ccdc_geom_bond_type
C22   H4    S    
C41   C42   A    
C19   C20   A    
C47   H18   S    
C1    O5    A    
C19   H2    S    
C7    C8    A    
C39   H9    S    
C26   C27   A    
C29   C30   A    
C45   H11   S    
C18   C24   A    
C23   C29   S    
C23   O9    A    
C28   C29   A    
C47   H17   S    
C30   C31   S    
C12   O7    A    
C31   F2    S    
C52   H31   S    
C24   N1    S    
C15   C16   A    
C7    F6    S    
C35   C46   S    
C51   H30   S    
C18   C19   A    
O7    Zn2   S    
C13   C50   S    
C35   C36   A    
C16   C17   A    
C45   H12   S    
C9    N2    A    
N4    Zn1   S    
C17   N2    S    
C16   C52   S    
C20   C34   S    
C25   C32   S    
C39   H8    S    
C5    C43   A    
C21   C22   A    
C49   H22   S    
C46   H15   S    
C2    H1    S    
C38   C39   S    
C45   H10   S    
C8    C44   A    
C47   H16   S    
C41   O2    S    
C46   H14   S    
C36   N4    A    
C40   O12   S    
C34   O11   A    
C12   O6    A    
O1    Zn1   S    
C31   C45   S    
C38   H7    S    
C49   H24   S    
C25   C26   A    
C33   C37   A    
C38   F5    S    
C51   H29   S    
C43   C44   A    
C37   C38   S    
C28   H5    S    
C48   H20   S    
O9    Zn2   S    
O6    Zn1   S    
C40   C44   A    
N3    Zn2   S    
C33   C39   S    
C49   H23   S    
C10   N2    A    
C11   C49   S    
C12   C14   S    
C50   H26   S    
C1    C26   S    
C22   C24   A    
C10   O4    S    
C8    C48   S    
C42   C43   A    
C3    C4    A    
C3    C47   S    
C36   H6    S    
C48   H21   S    
C25   C30   A    
C11   C17   A    
C35   N3    A    
C31   C32   S    
C18   F7    S    
C46   H13   S    
C34   O10   A    
C6    C10   A    
C6    C7    A    
C50   H27   S    
C40   N1    A    
C9    O3    S    
C23   O8    A    
C2    C3    A    
C1    O1    A    
C32   F4    S    
C11   C13   A    
C33   N3    A    
C48   H19   S    
C5    C6    A    
C52   H32   S    
C2    C42   A    
O11   Zn2   S    
O5    Zn2   S    
C15   C51   S    
C51   H28   S    
C41   N1    A    
C32   F3    S    
C4    C5    A    
C20   C21   A    
C50   H25   S    
C27   C28   A    
C14   C15   A    
O10   Zn1   S    
C4    C9    A    
C13   C14   A    
C37   N4    A    
C27   F1    S    
O8    Zn1   S    
C21   H3    S    
C52   H33   S    
