data_mof_unit_26205.cif
_audit_creation_date              2012-12-10T17:34:26-0500
_audit_creation_method            fapswitch 2.2
_symmetry_space_group_name_H-M    P1
_symmetry_Int_Tables_number       1
_space_group_crystal_system       triclinic
_cell_length_a                    12.330007
_cell_length_b                    13.110164
_cell_length_c                    14.336811
_cell_angle_alpha                 78.813087
_cell_angle_beta                  100.715021
_cell_angle_gamma                 116.154861
_cell_volume                      2027.38723851

loop_
_atom_site_label
_atom_site_type_symbol
_atom_type_description
_atom_site_fract_x
_atom_site_fract_y
_atom_site_fract_z
_atom_type_partial_charge
C1    C     C_R   0.854627 0.286312 0.509187 0.785095
C2    C     C_1   0.000159 0.500073 0.228898 -0.176016
C3    C     C_R   0.272964 0.029765 0.389146 -0.126491
C4    C     C_R   0.226794 0.836032 0.466405 -0.157395
C5    C     C_R   0.809476 0.089850 0.589000 -0.277905
C6    C     C_R   0.725099 0.987166 0.629937 -0.113231
C7    C     C_R   0.600754 0.956922 0.606542 0.407057
C8    C     C_R   0.558790 0.020735 0.527352 -0.011951
C9    C     C_R   0.645702 0.126036 0.486326 0.003612
C10   C     C_R   0.434581 0.984676 0.487540 0.006563
C11   C     C_R   0.396627 0.062374 0.422437 0.044739
C12   C     C_R   0.999819 0.499787 0.668744 0.807868
C13   C     C_R   0.483158 0.167367 0.384674 0.395284
C14   C     C_R   0.606266 0.192724 0.410532 -0.249449
C15   C     C_R   0.349102 0.870735 0.503987 -0.271414
C16   C     C_R   0.188282 0.917286 0.408755 0.378763
C17   C     C_R   0.770460 0.164023 0.523154 -0.080600
C18   C     C_R   0.334277 0.314235 0.637177 -0.236477
C19   C     C_R   0.761027 0.644904 0.375741 -0.106169
C20   C     C_R   0.659270 0.666649 0.337133 0.363339
C21   C     C_R   0.549331 0.601362 0.375979 0.400275
C22   C     C_R   0.545209 0.523769 0.461563 -0.204924
C23   C     C_R   0.144879 0.713676 0.484480 0.805850
C24   C     C_R   0.649868 0.501078 0.494272 0.189493
C25   C     C_R   0.442109 0.466680 0.514967 -0.072885
C26   C     C_R   0.437701 0.375225 0.588364 0.141895
C27   C     C_R   0.537522 0.347807 0.614533 0.341141
C28   C     C_R   0.643550 0.414522 0.571015 -0.227998
C29   C     C_R   0.344883 0.499704 0.502019 0.052717
C30   C     C_R   0.238721 0.346500 0.616265 0.056360
C31   C     C_R   0.000133 0.500161 0.331251 0.798394
C32   C     C_1   0.999617 0.499709 0.771099 -0.182432
C33   C     C_1   0.999585 0.499702 0.856551 0.013173
C34   C     C_1   0.999702 0.499765 0.957262 0.027499
C35   C     C_1   0.999865 0.499856 0.042731 0.029247
C36   C     C_1   0.000060 0.499978 0.143444 0.017339
Cu1   Cu    Cu3+1 0.098280 0.475420 0.520190 0.956813
Cu2   Cu    Cu3+1 0.901720 0.524580 0.479810 0.936087
H1    H     H_    0.346759 0.575384 0.455452 0.176953
H2    H     H_    0.844166 0.690123 0.342601 0.157765
H3    H     H_    0.719557 0.395722 0.599680 0.193012
N1    N     N_R   0.246290 0.438200 0.550780 -0.180026
N2    N     N_R   0.754310 0.561180 0.449760 -0.199774
O1    O     O_R   0.972510 0.318130 0.525390 -0.575997
O2    O     O_R   0.806530 0.359650 0.491290 -0.598480
O3    O     O_R   0.083010 0.479240 0.641000 -0.552216
O4    O     O_R   0.917030 0.520750 0.606900 -0.567613
O5    O     O_R   0.193470 0.640350 0.508710 -0.578301
O6    O     O_R   0.027490 0.681870 0.474610 -0.553805
O7    O     O_R   0.082970 0.479250 0.393100 -0.551648
O8    O     O_R   0.916990 0.520760 0.359000 -0.573577
O9    O     O_3   0.071961 0.888518 0.363501 -0.719545
H4    H     H_    0.049016 0.818374 0.334072 0.316203
O10   O     O_3   0.531690 0.258400 0.686030 -0.733976
H5    H     H_    0.607982 0.247992 0.694061 0.323064
H6    H     H_    0.327178 0.242601 0.691944 0.197244
O11   O     O_3   0.446945 0.607617 0.322431 -0.683432
H7    H     H_    0.382125 0.528413 0.323788 0.320604
O12   O     O_3   0.662284 0.745547 0.257194 -0.657010
H8    H     H_    0.745901 0.783835 0.238227 0.321357
O13   O     O_3   0.446054 0.240268 0.317534 -0.738783
H9    H     H_    0.518158 0.311688 0.300645 0.329229
H10   H     H_    0.242419 0.089152 0.341248 0.211758
H11   H     H_    0.378333 0.805833 0.541371 0.222445
H12   H     H_    0.904616 0.116295 0.616429 0.170851
O14   O     O_3   0.525809 0.873006 0.669071 -0.736011
H13   H     H_    0.461034 0.895647 0.675708 0.332048
H14   H     H_    0.756566 0.936283 0.687562 0.172743
H15   H     H_    0.670741 0.265533 0.370035 0.161985
H16   H     H_    0.158383 0.299048 0.653057 0.129669

loop_
_geom_bond_atom_site_label_1
_geom_bond_atom_site_label_2
_ccdc_geom_bond_type
C4    C16   A    
C4    C23   S    
C9    C14   A    
C21   O11   S    
Cu1   Cu2   S    
C18   C30   A    
C3    H10   S    
C29   N1    A    
C23   O5    A    
C1    O1    A    
C1    C17   S    
C19   C20   A    
C18   C26   A    
C18   H6    S    
C15   H11   S    
C32   C33   T    
C29   H1    S    
Cu1   O1    S    
C6    H14   S    
O14   H13   S    
Cu2   O4    S    
C27   O10   S    
C13   O13   S    
Cu2   N2    S    
Cu2   O6    S    
C21   C22   A    
C20   C21   A    
Cu1   O5    S    
Cu1   O7    S    
C11   C13   A    
C1    O2    A    
C26   C27   A    
C6    C7    A    
C35   C36   S    
C4    C15   A    
C12   O4    A    
C5    C6    A    
C12   O3    A    
C9    C17   A    
C30   H16   S    
C19   N2    A    
C33   C34   S    
O11   H7    S    
C10   C15   A    
C25   C29   A    
O13   H9    S    
C14   H15   S    
C22   C24   A    
C23   O6    A    
Cu1   O3    S    
C3    C11   A    
C10   C11   A    
Cu1   N1    S    
C31   O7    A    
C24   C28   A    
C28   H3    S    
O12   H8    S    
C5    C17   A    
O9    H4    S    
C8    C9    A    
C5    H12   S    
C34   C35   T    
C19   H2    S    
C2    C36   T    
C27   C28   A    
C24   N2    A    
C7    C8    A    
O10   H5    S    
C30   N1    A    
Cu2   O2    S    
Cu2   O8    S    
C25   C26   A    
C13   C14   A    
C8    C10   A    
C12   C32   S    
C3    C16   A    
C16   O9    S    
C31   O8    A    
C2    C31   S    
C20   O12   S    
C22   C25   A    
C7    O14   S    
