data_mof_unit_42301.cif
_audit_creation_date              2012-12-10T17:18:54-0500
_audit_creation_method            fapswitch 2.2
_symmetry_space_group_name_H-M    P1
_symmetry_Int_Tables_number       1
_space_group_crystal_system       triclinic
_cell_length_a                    9.637526
_cell_length_b                    10.820605
_cell_length_c                    13.438112
_cell_angle_alpha                 93.272446
_cell_angle_beta                  71.497299
_cell_angle_gamma                 89.857784
_cell_volume                      1326.45813014

loop_
_atom_site_label
_atom_site_type_symbol
_atom_type_description
_atom_site_fract_x
_atom_site_fract_y
_atom_site_fract_z
_atom_type_partial_charge
C1    C     C_R   0.497852 0.737123 0.504310 0.786059
C2    C     C_R   0.431957 0.486212 0.980074 0.091554
C3    C     C_R   0.471086 0.457659 0.870159 0.078652
C4    C     C_R   0.542123 0.481309 0.030079 0.002730
C5    C     C_R   0.681039 0.426805 0.972518 0.121449
C6    C     C_R   0.708830 0.380279 0.869172 -0.221495
C7    C     C_R   0.605356 0.394669 0.818862 -0.181599
C8    C     C_R   0.522302 0.531015 0.133798 0.280036
C9    C     C_R   0.764081 0.457157 0.123564 -0.191191
C10   C     C_R   0.372273 0.489137 0.815810 -0.078139
C11   C     C_R   0.278575 0.875677 0.673803 -0.195891
C12   C     C_R   0.420862 0.495764 0.700221 0.813373
C13   C     C_R   0.170075 0.940664 0.752664 -0.180138
C14   C     C_R   0.164668 0.068725 0.756510 -0.207183
C15   C     C_R   0.268972 0.134839 0.681405 0.395841
C16   C     C_R   0.379501 0.069729 0.597657 0.060191
C17   C     C_R   0.382571 0.937909 0.594637 0.037471
C18   C     C_R   0.492861 0.871002 0.514155 -0.060870
C19   C     C_R   0.601369 0.931734 0.440679 -0.178174
C20   C     C_R   0.599339 0.058787 0.442430 -0.224386
C21   C     C_R   0.490236 0.129305 0.518058 -0.107877
C22   C     C_R   0.911032 0.291646 0.398853 0.384829
C23   C     C_R   0.496201 0.263207 0.507718 0.900369
C24   C     C_R   0.998823 0.184560 0.379936 -0.203947
C25   C     C_R   0.145695 0.195981 0.366603 -0.243329
C26   C     C_R   0.197322 0.310118 0.387826 -0.112416
C27   C     C_R   0.100308 0.405453 0.445636 0.182755
C28   C     C_R   0.950431 0.401729 0.447747 0.123644
C29   C     C_R   0.903307 0.591396 0.550961 -0.046234
C30   C     C_R   0.050463 0.590638 0.551845 -0.037554
C31   C     C_R   0.579136 0.505278 0.299877 0.887594
C32   C     C_R   0.792056 0.419891 0.018450 -0.206226
C33   C     C_R   0.625075 0.502190 0.184060 -0.111599
C34   C     C_R   0.227634 0.524261 0.873809 -0.221833
C35   C     C_R   0.182162 0.529881 0.983015 -0.152761
C36   C     C_R   0.282591 0.510616 0.035893 -0.086894
Cu1   Cu    Cu3+1 0.359340 0.500010 0.500010 0.988308
Cu2   Cu    Cu3+1 0.640660 0.499990 0.499990 0.980077
H1    H     H_    0.850990 0.448847 0.157330 0.218327
H2    H     H_    0.280940 0.776171 0.677076 0.145029
H3    H     H_    0.090866 0.891333 0.812295 0.159395
H4    H     H_    0.080022 0.117061 0.820088 0.133488
H5    H     H_    0.681819 0.101422 0.381252 0.207022
H6    H     H_    0.829768 0.666238 0.593202 0.141633
H7    H     H_    0.963741 0.098796 0.350531 0.185051
H8    H     H_    0.221090 0.119358 0.331463 0.186870
H9    H     H_    0.313070 0.319815 0.357859 0.196381
H10   H     H_    0.812187 0.333878 0.826330 0.142199
H11   H     H_    0.085871 0.664857 0.594894 0.129460
H12   H     H_    0.899478 0.381980 0.973793 0.146664
H13   H     H_    0.149112 0.546835 0.834766 0.154206
H14   H     H_    0.240230 0.510079 0.120420 0.188645
H15   H     H_    0.069073 0.552172 0.027096 0.152410
H16   H     H_    0.630714 0.351459 0.740544 0.177757
H17   H     H_    0.686189 0.880156 0.379365 0.162063
N1    N     N_R   0.852480 0.498790 0.499000 -0.191515
N2    N     N_R   0.148360 0.498710 0.498970 -0.182987
O1    O     O_R   0.381190 0.680360 0.500010 -0.569019
O2    O     O_R   0.618760 0.680340 0.500000 -0.589512
O3    O     O_R   0.323240 0.499990 0.650990 -0.563738
O4    O     O_R   0.560820 0.499960 0.650980 -0.600395
O5    O     O_R   0.381240 0.319660 0.500000 -0.563836
O6    O     O_R   0.618810 0.319640 0.499990 -0.571377
O7    O     O_R   0.439180 0.500040 0.349020 -0.567493
O8    O     O_R   0.676760 0.500010 0.349010 -0.527517
O9    O     O_3   0.265582 0.261997 0.691851 -0.744946
H18   H     H_    0.180495 0.291370 0.752618 0.314140
Cl1   Cl    Cl    0.829233 0.290958 0.300517 -0.699050
Cl2   Cl    Cl    0.396828 0.655192 0.192529 -0.634549

loop_
_geom_bond_atom_site_label_1
_geom_bond_atom_site_label_2
_ccdc_geom_bond_type
C26   C27   A    
C2    C4    A    
C31   C33   S    
C16   C21   A    
Cu1   Cu2   S    
C29   N1    A    
C13   C14   A    
C35   H15   S    
C31   O7    A    
Cu1   O1    S    
C36   H14   S    
Cu2   O8    S    
C4    C8    A    
C14   H4    S    
C5    C32   A    
C32   H12   S    
Cu2   O4    S    
C19   C20   A    
C13   H3    S    
Cu1   O5    S    
C1    C18   S    
C10   C34   A    
C3    C10   A    
C22   C28   A    
C1    O1    A    
C24   C25   A    
C9    C33   A    
C12   O4    A    
C11   C13   A    
C22   Cl1   S    
C34   H13   S    
C29   C30   A    
C6    H10   S    
C26   H9    S    
C5    C6    A    
C24   H7    S    
C10   C12   S    
C23   O6    A    
C25   C26   A    
C30   H11   S    
C17   C18   A    
C6    C7    A    
C3    C7    A    
C8    C33   A    
C1    O2    A    
C29   H6    S    
C28   N1    A    
C11   H2    S    
C22   C24   A    
C9    C32   A    
Cu1   O3    S    
C16   C17   A    
C2    C36   A    
Cu2   O2    S    
C12   O3    A    
C30   N2    A    
C9    H1    S    
C20   H5    S    
Cu2   N1    S    
C20   C21   A    
C25   H8    S    
C34   C35   A    
C27   N2    A    
C19   H17   S    
O9    H18   S    
C31   O8    A    
C8    Cl2   S    
C14   C15   A    
C18   C19   A    
C2    C3    A    
C7    H16   S    
Cu1   O7    S    
Cu2   O6    S    
C15   O9    S    
C21   C23   S    
C23   O5    A    
Cu1   N2    S    
C15   C16   A    
C4    C5    A    
C27   C28   A    
C35   C36   A    
C11   C17   A    
