data_mof_unit_47527.cif
_audit_creation_date              2013-03-05T16:06:17-0500
_audit_creation_method            fapswitch 2.2
_symmetry_space_group_name_H-M    P1
_symmetry_Int_Tables_number       1
_space_group_crystal_system       triclinic
_cell_length_a                    10.823054
_cell_length_b                    9.64649
_cell_length_c                    27.709016
_cell_angle_alpha                 89.975209
_cell_angle_beta                  90.690235
_cell_angle_gamma                 90.008231
_cell_volume                      2892.73524876

loop_
_atom_site_label
_atom_site_type_symbol
_atom_site_description
_atom_site_fract_x
_atom_site_fract_y
_atom_site_fract_z
_atom_type_partial_charge
O1    O     O_R   0.319640 0.618740 0.500000 -0.558752
O2    O     O_R   0.680360 0.381260 0.500000 -0.533523
O3    O     O_R   0.680360 0.618740 0.500000 -0.560397
O4    O     O_R   0.319640 0.381260 0.500000 -0.532389
C1    C     C_R   0.262709 0.499843 0.505363 0.924296
C2    C     C_R   0.737208 0.499992 0.494572 0.926508
O5    O     O_R   0.500020 0.618770 0.430260 -0.565514
O6    O     O_R   0.499980 0.381230 0.569740 -0.575447
O7    O     O_R   0.499980 0.618770 0.569740 -0.562778
O8    O     O_R   0.500020 0.381230 0.430260 -0.572350
C3    C     C_R   0.498145 0.499754 0.407590 0.873587
C4    C     C_R   0.501575 0.499647 0.592403 0.876345
Cu1   Cu    Cu3+1 0.500000 0.640660 0.500000 1.083350
Cu2   Cu    Cu3+1 0.500000 0.359340 0.500000 1.092200
C5    C     C_R   0.369518 0.530891 0.174598 0.622451
C6    C     C_R   0.613007 0.507823 0.827113 0.610013
O9    O     O_2   0.273237 0.464561 0.194687 -0.490232
O10   O     O_2   0.707492 0.438657 0.806974 -0.487862
N1    N     N_R   0.474816 0.555038 0.201453 -0.444713
N2    N     N_R   0.513166 0.544385 0.798887 -0.450089
C7    C     C_R   0.577051 0.611242 0.180046 0.577642
C8    C     C_R   0.410268 0.601269 0.819321 0.572715
C9    C     C_R   0.575401 0.450452 0.274748 -0.046629
C10   C     C_R   0.416424 0.445903 0.724105 -0.045018
C11   C     C_R   0.585343 0.447161 0.325861 -0.136154
C12   C     C_R   0.409594 0.445117 0.672992 -0.135528
C13   C     C_R   0.379986 0.550254 0.331233 -0.083583
C14   C     C_R   0.615766 0.547438 0.670015 -0.104498
C15   C     C_R   0.380699 0.573971 0.281595 -0.180811
C16   C     C_R   0.612869 0.567263 0.719902 -0.177046
C17   C     C_R   0.476891 0.525105 0.252799 0.280626
C18   C     C_R   0.514244 0.518191 0.747369 0.281376
C19   C     C_R   0.475189 0.597978 0.101948 -0.042092
C20   C     C_R   0.501894 0.576656 0.898828 -0.048507
C21   C     C_R   0.363546 0.569575 0.125476 -0.095819
C22   C     C_R   0.614490 0.536933 0.877303 -0.088653
C23   C     C_R   0.251746 0.581485 0.098990 -0.035132
C24   C     C_R   0.720172 0.517898 0.907295 0.001664
C25   C     C_R   0.582798 0.621151 0.129597 -0.057544
C26   C     C_R   0.398146 0.602861 0.869515 -0.007047
C27   C     C_R   0.487910 0.499109 0.354313 -0.060714
C28   C     C_R   0.508759 0.498233 0.645724 -0.082564
H1    H     H_    0.303324 0.627526 0.264845 0.180304
H2    H     H_    0.690182 0.617494 0.737931 0.175328
C29   C     C_R   0.373053 0.595264 0.971515 0.041648
C30   C     C_R   0.594606 0.616418 0.028016 -0.039338
C31   C     C_R   0.600704 0.585645 0.978187 0.021505
C32   C     C_R   0.367634 0.597561 0.023304 0.036052
C33   C     C_R   0.491795 0.587847 0.949667 0.082003
C34   C     C_R   0.479083 0.603160 0.050896 0.076539
C35   C     C_R   0.267219 0.593739 0.939809 -0.041939
C36   C     C_R   0.698537 0.661544 0.056076 -0.024623
C37   C     C_R   0.282208 0.616538 0.890422 -0.190646
C38   C     C_R   0.691979 0.659215 0.106574 -0.078730
O11   O     O_2   0.318222 0.652048 0.791163 -0.502599
O12   O     O_2   0.673302 0.655603 0.207339 -0.512185
C39   C     C_R   0.256078 0.605181 0.049172 -0.150736
C40   C     C_R   0.711489 0.541584 0.956904 -0.264286
H3    H     H_    0.200829 0.623903 0.867299 0.181445
H4    H     H_    0.772161 0.688896 0.127982 0.223135
H5    H     H_    0.170755 0.635792 0.032124 0.178710
H6    H     H_    0.792485 0.521618 0.979139 0.178484
C41   C     C_R   0.059151 0.374211 0.509837 -0.067713
C42   C     C_R   0.937648 0.628656 0.492825 -0.077667
C43   C     C_R   0.940252 0.374659 0.489275 -0.056274
C44   C     C_R   0.062318 0.628348 0.507279 -0.074203
C45   C     C_R   0.873117 0.500937 0.488981 -0.178462
C46   C     C_R   0.126656 0.500429 0.510644 -0.184213
C47   C     C_R   0.438686 0.074488 0.464691 0.033556
C48   C     C_R   0.557663 0.926857 0.536245 0.019355
C49   C     C_R   0.561624 0.074519 0.535224 0.025597
C50   C     C_R   0.442214 0.926819 0.463812 0.020698
N3    N     N_R   0.500000 0.852070 0.500000 -0.244159
N4    N     N_R   0.500000 0.147930 0.500000 -0.233779
C51   C     C_2   0.262466 0.575554 0.356737 0.436848
H7    H     H_    0.192180 0.641313 0.340350 0.108389
O13   O     O_2   0.239924 0.518725 0.394967 -0.548680
C52   C     C_2   0.734545 0.573715 0.645504 0.439352
H8    H     H_    0.803986 0.638908 0.662693 0.106839
O14   O     O_2   0.759005 0.518123 0.607238 -0.522919
C53   C     C_2   0.365149 0.146837 0.427117 0.914827
O15   O     O_2   0.406263 0.159246 0.386414 -0.537280
O16   O     O_R   0.245022 0.189613 0.436975 -0.713457
H9    H     H_    0.202902 0.234209 0.408019 0.365102
C54   C     C_2   0.614608 0.857891 0.578280 0.900348
O17   O     O_2   0.713770 0.799276 0.574620 -0.553863
O18   O     O_R   0.558023 0.869418 0.623192 -0.696165
H10   H     H_    0.610669 0.830876 0.650494 0.324837
C55   C     C_2   0.636463 0.147035 0.572344 0.919519
O19   O     O_2   0.740979 0.185442 0.563046 -0.536181
O20   O     O_R   0.590958 0.161384 0.619097 -0.703245
H11   H     H_    0.651601 0.209801 0.641600 0.347437
C56   C     C_2   0.384068 0.857762 0.422090 0.899423
O21   O     O_2   0.283870 0.801572 0.426049 -0.554338
O22   O     O_R   0.440109 0.867938 0.377026 -0.700112
H12   H     H_    0.385897 0.831670 0.349823 0.325114
C57   C     C_2   0.129126 0.585616 0.122322 0.978703
O23   O     O_2   0.041473 0.524871 0.103773 -0.529273
O24   O     O_R   0.112758 0.662494 0.164546 -0.719981
H13   H     H_    0.024745 0.658186 0.176593 0.362275
C58   C     C_2   0.843612 0.482077 0.888584 0.907326
O25   O     O_2   0.900303 0.383605 0.905648 -0.539585
O26   O     O_R   0.896946 0.563870 0.852735 -0.726282
H14   H     H_    0.981724 0.529415 0.843220 0.347174
C59   C     C_2   0.297266 0.393314 0.648283 0.937737
O27   O     O_2   0.269336 0.270807 0.651134 -0.492962
O28   O     O_R   0.220501 0.487009 0.623894 -0.730754
H15   H     H_    0.139564 0.443693 0.613105 0.340065
C60   C     C_2   0.699116 0.394744 0.349400 0.936257
O29   O     O_2   0.727405 0.272548 0.345651 -0.492543
O30   O     O_R   0.776306 0.487525 0.374041 -0.732708
H16   H     H_    0.857567 0.444007 0.384366 0.340268
C61   C     C_2   0.323506 0.371187 0.753697 0.922488
O31   O     O_2   0.213236 0.379524 0.743963 -0.529246
O32   O     O_R   0.362944 0.293710 0.793673 -0.740573
H17   H     H_    0.291769 0.249650 0.811531 0.353604
C62   C     C_2   0.665480 0.375873 0.243869 0.933919
O33   O     O_2   0.776325 0.381322 0.252777 -0.524348
O34   O     O_R   0.622681 0.301806 0.203640 -0.737228
H18   H     H_    0.692122 0.257265 0.184933 0.355101
C63   C     C_2   0.142534 0.545281 0.952922 0.389523
H19   H     H_    0.061533 0.599599 0.939310 0.075856
O35   O     O_2   0.129274 0.439279 0.976425 -0.463524
C64   C     C_2   0.806660 0.731362 0.033897 0.389292
H20   H     H_    0.801643 0.767832 0.996896 0.083186
O36   O     O_2   0.901604 0.752382 0.056998 -0.516351
C65   C     C_2   0.096580 0.248438 0.538721 0.938060
O37   O     O_2   0.201259 0.233628 0.554649 -0.553511
O38   O     O_R   0.007001 0.150145 0.550890 -0.680663
H21   H     H_    0.040913 0.072844 0.572023 0.371785
C66   C     C_2   0.878308 0.761118 0.477331 0.960063
O39   O     O_2   0.828220 0.768320 0.437597 -0.537192
O40   O     O_R   0.877452 0.875842 0.508093 -0.688540
H22   H     H_    0.828197 0.956257 0.494302 0.353204
C67   C     C_2   0.900485 0.248675 0.460949 0.913374
O41   O     O_2   0.797610 0.239684 0.442725 -0.557550
O42   O     O_R   0.986187 0.143680 0.451638 -0.703178
H23   H     H_    0.951566 0.067881 0.430035 0.371968
C68   C     C_2   0.121584 0.760101 0.523592 0.961472
O43   O     O_2   0.171924 0.765148 0.563316 -0.532832
O44   O     O_R   0.121805 0.876739 0.493670 -0.686999
H24   H     H_    0.170042 0.956897 0.508169 0.357134

loop_
_geom_bond_atom_site_label_1
_geom_bond_atom_site_label_2
_geom_bond_distance
_ccdc_geom_bond_type
C40   H6    1.082624 S    
C44   C46   1.419451 A    
O18   H10   1.012244 S    
C41   C43   1.401062 A    
C56   O21   1.218410 D    
C13   C15   1.394336 A    
C36   C64   1.489104 S    
C59   O27   1.222527 D    
O22   H12   1.012103 S    
O3    C2    1.309934 A    
N1    C17   1.451544 S    
C23   C57   1.483757 S    
C53   O15   1.223226 D    
C37   H3    1.085225 S    
C32   C39   1.413453 A    
C31   C33   1.411367 A    
C38   H4    1.083817 S    
C54   O17   1.218475 D    
C5    N1    1.373473 A    
C59   O28   1.396442 S    
C58   O25   1.222762 D    
O1    C1    1.311132 A    
Cu2   N4    2.039365 S    
C6    N2    1.372327 A    
N1    C7    1.373131 A    
C10   C12   1.417347 A    
C61   O31   1.223038 D    
C24   C58   1.479901 S    
C62   O34   1.398488 S    
C52   O14   1.220331 D    
C25   C38   1.398560 A    
C29   C35   1.435225 A    
O32   H17   1.013806 S    
C30   C36   1.427734 A    
C67   O42   1.399644 S    
C14   C28   1.414559 A    
C10   C18   1.416474 A    
O7    Cu1   1.943842 S    
C4    C28   1.478644 S    
C60   O30   1.397045 S    
C57   O24   1.398568 S    
C24   C40   1.397857 A    
C44   C68   1.491428 S    
O16   H9    1.013695 S    
C43   C45   1.418445 A    
C49   C55   1.477733 S    
O28   H15   1.012431 S    
C48   C49   1.425339 A    
C55   O20   1.398399 S    
C14   C52   1.482892 S    
O3    Cu1   1.963495 S    
C11   C60   1.475775 S    
C32   C34   1.421336 A    
C10   C61   1.490735 S    
C56   O22   1.398152 S    
Cu1   Cu2   2.713751 S    
C15   H1    1.083583 S    
C16   H2    1.083774 S    
O2    C2    1.309537 A    
C1    C46   1.481527 S    
C13   C51   1.482796 S    
C12   C59   1.475311 S    
C5    C21   1.411920 A    
C53   O16   1.394295 S    
C36   C38   1.402059 A    
C57   O23   1.223060 D    
C54   O18   1.398084 S    
C42   C45   1.419554 A    
C67   O41   1.220118 D    
O8    Cu2   1.943841 S    
C11   C27   1.416052 A    
O20   H11   1.013924 S    
C52   H8    1.085677 S    
C50   N3    1.378753 A    
C19   C34   1.416610 A    
C35   C37   1.397289 A    
C9    C17   1.417550 A    
C47   C50   1.425234 A    
O5    C3    1.308982 A    
C51   H7    1.085744 S    
C65   O38   1.400025 S    
C49   N4    1.372157 A    
C13   C27   1.413738 A    
O24   H13   1.013984 S    
C7    C25   1.403250 A    
C42   C66   1.490870 S    
C29   C33   1.428994 A    
O6    C4    1.303790 A    
C8    C26   1.398664 A    
C48   N3    1.379843 A    
C47   N4    1.372702 A    
C19   C25   1.404254 A    
O34   H18   1.013815 S    
C51   O13   1.219770 D    
C63   H19   1.085079 S    
C43   C67   1.506914 S    
C50   C56   1.469471 S    
C6    O10   1.347805 S    
C2    C45   1.480964 S    
Cu1   N3    2.039364 S    
O40   H22   1.013363 S    
C35   C63   1.477539 S    
C20   C26   1.400840 A    
O1    Cu1   1.963435 S    
C65   O37   1.219309 D    
C12   C28   1.415757 A    
C64   O36   1.221050 D    
O38   H21   1.013982 S    
N2    C18   1.449989 S    
C29   C32   1.437101 A    
C5    O9    1.348569 S    
C30   C34   1.414407 A    
C30   C31   1.414684 A    
C20   C33   1.418410 A    
O6    Cu2   1.944023 S    
O30   H16   1.012681 S    
C21   C23   1.412265 A    
N2    C8    1.370253 A    
O4    C1    1.308750 A    
C66   O40   1.397285 S    
C9    C62   1.490299 S    
C7    O12   1.349607 S    
C68   O43   1.223265 D    
C39   H5    1.073574 S    
C8    O11   1.349910 S    
O42   H23   1.014030 S    
C41   C46   1.419894 A    
C22   C24   1.417630 A    
C15   C17   1.401148 A    
O44   H24   1.013387 S    
C6    C22   1.418791 A    
C31   C40   1.408374 A    
C16   C18   1.400655 A    
C68   O44   1.397351 S    
C14   C16   1.396295 A    
C19   C21   1.406714 A    
C3    C27   1.479085 S    
C20   C22   1.416152 A    
C9    C11   1.419413 A    
O4    Cu2   1.963495 S    
O2    Cu2   1.963435 S    
O7    C4    1.309287 A    
C23   C39   1.400464 A    
C63   O35   1.221443 D    
C47   C53   1.477868 S    
O8    C3    1.304346 A    
O5    Cu1   1.944023 S    
C58   O26   1.398386 S    
C26   C37   1.394700 A    
C60   O29   1.222704 D    
O26   H14   1.013844 S    
C55   O19   1.220676 D    
C62   O33   1.223024 D    
C48   C54   1.470123 S    
C41   C65   1.506039 S    
C66   O39   1.223275 D    
C42   C44   1.402865 A    
C64   H20   1.084557 S    
C61   O32   1.398488 S    
