data_mof_unit_67159.cif
_audit_creation_date              2013-03-05T15:58:58-0500
_audit_creation_method            fapswitch 2.2
_symmetry_space_group_name_H-M    P1
_symmetry_Int_Tables_number       1
_space_group_crystal_system       triclinic
_cell_length_a                    8.206236
_cell_length_b                    12.698331
_cell_length_c                    14.972894
_cell_angle_alpha                 96.591109
_cell_angle_beta                  97.6297
_cell_angle_gamma                 98.575946
_cell_volume                      1514.66813048

loop_
_atom_site_label
_atom_site_type_symbol
_atom_site_description
_atom_site_fract_x
_atom_site_fract_y
_atom_site_fract_z
_atom_type_partial_charge
P1    P     P_3+3 0.998730 0.403530 0.291970 0.454045
O1    O     O_2   0.827880 0.435260 0.277750 -0.371362
O2    O     O_3   0.100280 0.438960 0.391170 -0.409875
O3    O     O_3   0.625580 0.634130 0.333250 -0.384905
O4    O     O_2   0.713256 0.561946 0.176008 -0.367955
O5    O     O_3   0.952061 0.263264 0.269550 -0.572039
O6    O     O_3   0.635927 0.754018 0.187073 -0.521018
H1    H     H_    0.665223 0.867301 0.300450 0.118741
C1    C     C_3   0.508283 0.910660 0.187665 -1.027043
H2    H     H_    0.456716 0.970230 0.231291 0.246385
H3    H     H_    0.613600 0.952767 0.158871 0.273028
P2    P     P_3+3 0.687380 0.751030 0.571310 0.471434
P3    P     P_3+3 0.104669 0.830880 0.386566 0.489428
O7    O     O_2   0.857130 0.766340 0.543890 -0.312542
O8    O     O_3   0.056550 0.691050 0.379010 -0.377234
O9    O     O_2   0.997209 0.882309 0.450427 -0.343479
O10   O     O_3   0.735384 0.784118 0.689222 -0.587105
O11   O     O_3   0.040160 0.874423 0.283522 -0.578736
C2    C     C_3   0.054419 0.796858 0.212204 0.262167
H4    H     H_    0.963122 0.722845 0.211736 0.184014
H5    H     H_    0.182134 0.776710 0.217827 0.020350
C3    C     C_3   0.017035 0.842796 0.123735 -0.105517
H6    H     H_    0.894698 0.870994 0.119486 0.155824
C4    C     C_3   0.385917 0.780955 0.729473 0.330746
H7    H     H_    0.420945 0.764456 0.661251 0.094821
C5    C     C_3   0.409369 0.901129 0.758481 -0.172508
H8    H     H_    0.544938 0.932458 0.777629 0.100713
H9    H     H_    0.346116 0.917427 0.818552 0.143793
Ba1   Ba    Ba6+2 0.843750 0.550210 0.455600 1.586858
C6    C     C_3   0.928814 0.221104 0.349890 0.404100
H10   H     H_    0.827000 0.253699 0.378892 0.090659
H11   H     H_    0.044126 0.240726 0.400201 0.136280
C7    C     C_3   0.883745 0.099674 0.327766 -0.966958
H12   H     H_    0.757042 0.078149 0.287814 0.258749
H13   H     H_    0.886179 0.062011 0.390910 0.239236
C8    C     C_3   0.778937 0.695362 0.727703 0.320168
H14   H     H_    0.879222 0.664571 0.695495 0.140427
H15   H     H_    0.669341 0.630555 0.720329 0.122924
C9    C     C_3   0.841354 0.731482 0.827964 -0.835912
H16   H     H_    0.956615 0.792143 0.836288 0.290425
H17   H     H_    0.868499 0.661715 0.861369 0.256892
H18   H     H_    0.745651 0.767455 0.861233 0.233137
P4    P     P_3+3 0.190990 0.596560 0.708040 0.481431
O12   O     O_2   0.361830 0.564780 0.722310 -0.413822
O13   O     O_3   0.089430 0.561130 0.608830 -0.361862
O14   O     O_3   0.564130 0.365960 0.666760 -0.334274
O15   O     O_3   0.218355 0.737177 0.725834 -0.547473
P5    P     P_3+3 0.088515 0.170392 0.621357 0.540138
O16   O     O_3   0.601940 0.368240 0.453770 -0.397649
O17   O     O_3   0.133170 0.309040 0.621000 -0.405169
O18   O     O_2   0.203963 0.119291 0.562118 -0.283375
O19   O     O_3   0.152533 0.143665 0.731483 -0.458166
Ba2   Ba    Ba6+2 0.346090 0.449880 0.544410 1.585848
P6    P     P_3+3 0.585261 0.624454 0.215211 0.457698
C10   C     C_3   0.567362 0.826847 0.243298 0.442074
H19   H     H_    0.459170 0.788837 0.272520 0.024594
H20   H     H_    0.409623 0.870970 0.130764 0.282633
O20   O     O_3   0.587780 0.631850 0.546230 -0.407359
C11   C     C_3   0.414170 0.283507 0.265842 0.448600
H21   H     H_    0.298478 0.302295 0.290141 0.091598
H22   H     H_    0.512642 0.356048 0.281145 0.120324
C12   C     C_3   0.377739 0.251772 0.163123 -1.013464
H23   H     H_    0.277271 0.180475 0.145418 0.272347
H24   H     H_    0.336910 0.319045 0.129745 0.218044
H25   H     H_    0.491853 0.232180 0.137133 0.264527
P7    P     P_3+3 0.507093 0.233288 0.424343 0.418489
O21   O     O_2   0.332590 0.233690 0.456160 -0.379650
O22   O     O_3   0.467296 0.197551 0.306082 -0.588008
H26   H     H_    0.114780 0.912962 0.121781 0.119255
C13   C     C_3   0.118402 0.226569 0.793321 0.538275
H27   H     H_    0.209882 0.300908 0.795185 0.144177
H28   H     H_    0.990885 0.244241 0.774361 -0.047957
C14   C     C_3   0.132262 0.193421 0.888131 -1.012790
H29   H     H_    0.260550 0.179050 0.910408 0.289954
H30   H     H_    0.103920 0.258262 0.937077 0.217477
H31   H     H_    0.042349 0.118805 0.888102 0.259373
P8    P     P_3+3 0.606189 0.372860 0.785010 0.466309
C15   C     C_3   0.660641 0.187565 0.832504 0.430265
H32   H     H_    0.784061 0.237269 0.855608 0.024028
O23   O     O_2   0.489480 0.445246 0.823308 -0.403856
O24   O     O_3   0.530361 0.246609 0.814255 -0.480650
H33   H     H_    0.669594 0.133696 0.770325 0.120758
H34   H     H_    0.642867 0.174718 0.974506 0.248021
C16   C     C_3   0.625323 0.121533 0.908580 -1.007432
H35   H     H_    0.711995 0.062462 0.914198 0.229705
H36   H     H_    0.495081 0.078571 0.895239 0.274179
C17   C     C_R   0.825083 0.434735 0.830674 0.127392
C18   C     C_R   0.893735 0.444119 0.923724 0.008601
C19   C     C_R   0.037412 0.454938 0.109720 -0.020743
C20   C     C_R   0.873610 0.402481 0.077339 -0.077544
C21   C     C_R   0.800978 0.402164 0.987818 -0.169371
C22   C     C_R   0.108117 0.464860 0.203317 0.246596
H37   H     H_    0.797106 0.362463 0.120660 0.164450
H38   H     H_    0.671332 0.366239 0.969245 0.164042
C23   C     C_R   0.271383 0.518559 0.230831 -0.526400
C24   C     C_R   0.084325 0.531233 0.796085 0.222799
C25   C     C_R   0.155518 0.541241 0.889873 -0.018235
C26   C     C_R   0.061220 0.494428 0.953038 0.074355
C27   C     C_R   0.317627 0.596464 0.923050 -0.012342
C28   C     C_R   0.388942 0.600538 0.013456 -0.126453
C29   C     C_R   0.298732 0.553858 0.076467 -0.030965
C30   C     C_R   0.132506 0.501120 0.046518 0.055952
C31   C     C_R   0.368435 0.560344 0.168997 0.173895
C32   C     C_R   0.923259 0.473886 0.768257 -0.528614
H39   H     H_    0.515679 0.642049 0.033099 0.195129
H40   H     H_    0.393341 0.636954 0.880064 0.134744
H41   H     H_    0.325825 0.525162 0.301553 0.181726
H42   H     H_    0.869732 0.464952 0.697227 0.179261
C33   C     C_R   0.770342 0.181787 0.537023 -0.466763
C34   C     C_R   0.419106 0.810689 0.469569 -0.451522
C35   C     C_R   0.389824 0.987106 0.432209 -0.201884
C36   C     C_R   0.323281 0.879986 0.431275 0.262126
C37   C     C_R   0.580302 0.848782 0.514914 0.239971
C38   C     C_R   0.647611 0.960128 0.522159 -0.033934
C39   C     C_R   0.551003 0.029414 0.478409 -0.006965
C40   C     C_R   0.614905 0.140209 0.485910 0.293037
C41   C     C_R   0.869564 0.114417 0.575680 0.152256
C42   C     C_R   0.806748 0.004962 0.571584 -0.158536
H43   H     H_    0.310895 0.036747 0.399529 0.180262
H44   H     H_    0.884204 0.956297 0.606212 0.220306
H45   H     H_    0.819353 0.266557 0.541612 0.157494
H46   H     H_    0.364741 0.727207 0.467501 0.175489
N1    N     N_R   0.340257 0.954161 0.684847 0.280450
O25   O     O_R   0.432699 0.032817 0.657879 -0.381331
O26   O     O_R   0.185298 0.925226 0.647452 -0.325965
H47   H     H_    0.974684 0.068300 0.287534 0.291967
N2    N     N_R   0.012573 0.760965 0.047029 0.234344
O27   O     O_R   0.126018 0.771051 0.994274 -0.450022
O28   O     O_R   0.894167 0.677791 0.030980 -0.416521
H48   H     H_    0.467151 0.748868 0.781171 0.029145

loop_
_geom_bond_atom_site_label_1
_geom_bond_atom_site_label_2
_geom_bond_distance
_ccdc_geom_bond_type
P7    O22   1.750947 S    
C17   C18   1.416374 A    
C29   C30   1.416505 A    
C19   C30   1.426669 A    
C14   H29   1.109460 S    
C2    H4    1.109840 S    
O6    C10   1.408128 S    
C10   H19   1.111978 S    
C38   C39   1.426233 A    
C20   C21   1.392061 A    
C33   C41   1.387850 A    
N1    O25   1.297715 A    
C9    H17   1.102559 S    
Ba1   O16   2.807368 S    
C28   H39   1.079679 S    
P7    C40   1.837108 S    
P3    O11   1.741454 S    
O1    Ba1   2.863159 S    
C8    H14   1.104888 S    
C2    H5    1.110156 S    
C16   H36   1.106452 S    
P1    O1    1.510722 D    
P3    C36   1.818509 S    
C6    H10   1.102800 S    
P2    Ba1   3.420990 S    
N1    O26   1.299958 A    
C39   C40   1.412456 A    
C25   C26   1.425786 A    
C35   H43   1.079220 S    
O11   C2    1.396490 S    
O2    Ba1   2.910555 S    
C15   H33   1.107714 S    
C7    H47   1.109706 S    
C12   H24   1.109359 S    
C33   C40   1.392357 A    
O12   Ba2   2.863722 S    
P4    Ba2   3.402834 S    
P5    O18   1.542629 D    
C35   C36   1.385905 A    
P2    O10   1.744795 S    
C13   H27   1.110172 S    
C1    C10   1.520456 S    
O10   C8    1.394446 S    
C1    H2    1.110584 S    
C3    H26   1.112290 S    
O3    Ba1   2.800569 S    
C6    C7    1.517976 S    
P2    O20   1.586987 S    
P5    O17   1.744791 S    
P7    O21   1.568570 D    
O13   Ba2   2.911395 S    
C11   H21   1.109044 S    
C29   C31   1.415177 A    
C14   H30   1.110395 S    
H1    C10   1.111142 S    
C25   C27   1.405188 A    
C23   C31   1.398406 A    
O8    Ba1   2.763016 S    
C9    H18   1.110058 S    
C34   C36   1.387051 A    
C11   H22   1.111032 S    
O17   Ba2   2.763597 S    
O16   P7    1.753393 S    
P1    O5    1.748422 S    
P6    C31   1.849130 S    
C2    C3    1.520502 S    
C4    H7    1.103059 S    
C9    H16   1.110361 S    
C15   H32   1.100009 S    
C26   C30   1.431417 A    
C22   C23   1.395074 A    
Ba1   O13   2.821884 S    
P1    O2    1.584020 S    
P4    O12   1.510950 D    
N2    O28   1.300402 A    
C12   H23   1.110826 S    
C15   C16   1.522836 S    
C11   O22   1.402701 S    
P4    O13   1.584175 S    
O4    P6    1.543769 D    
H34   C16   1.109697 S    
C18   C21   1.405197 A    
P8    O24   1.756459 S    
C24   C25   1.431266 A    
C13   C14   1.521145 S    
P1    Ba1   3.402291 S    
P4    C24   1.879651 S    
C5    H8    1.111427 S    
C16   H35   1.110544 S    
C19   C22   1.427675 A    
C1    H3    1.110296 S    
C34   C37   1.392858 A    
C38   C42   1.414962 A    
C23   H41   1.082017 S    
O5    C6    1.395839 S    
P2    O7    1.495408 D    
P1    C22   1.876032 S    
P3    O8    1.747692 S    
C14   H31   1.110617 S    
C5    N1    1.452235 S    
O7    Ba1   2.886269 S    
N2    O27   1.299974 A    
C32   H42   1.081798 S    
C20   H37   1.077843 S    
C37   C38   1.425473 A    
P8    O23   1.542200 D    
C27   H40   1.073107 S    
C11   C12   1.522145 S    
C12   H25   1.110990 S    
O3    P6    1.740966 S    
C4    O15   1.395690 S    
C8    C9    1.514599 S    
C4    C5    1.514084 S    
O14   P8    1.747775 S    
C13   H28   1.109839 S    
Ba2   O20   2.806821 S    
P5    C41   1.839162 S    
C5    H9    1.111095 S    
C27   C28   1.393569 A    
C24   C32   1.395696 A    
C41   C42   1.399874 A    
C34   H46   1.082371 S    
C21   H38   1.079311 S    
C6    H11   1.105571 S    
O2    Ba2   2.822631 S    
C15   O24   1.410078 S    
C33   H45   1.082477 S    
C3    N2    1.450417 S    
Ba1   Ba2   4.510978 S    
O16   Ba2   2.899578 S    
O14   Ba2   2.799920 S    
C8    H15   1.109203 S    
C28   C29   1.404445 A    
C7    H13   1.106624 S    
C7    H12   1.107334 S    
P2    C37   1.842508 S    
C1    H20   1.109931 S    
Ba2   O21   2.886581 S    
C42   H44   1.076059 S    
O19   C13   1.406085 S    
C17   C32   1.398849 A    
C4    H48   1.107245 S    
P5    O19   1.749764 S    
Ba1   O20   2.900326 S    
P8    C17   1.855023 S    
P3    O9    1.539713 D    
C3    H6    1.111574 S    
C35   C39   1.405847 A    
O6    P6    1.748955 S    
C19   C20   1.404069 A    
P4    O15   1.750738 S    
C18   C26   1.415407 A    
