data_mof_unit_23778.cif
_audit_creation_date              2012-10-26T21:10:24-0400
_audit_creation_method            fapswitch 2.2
_symmetry_space_group_name_H-M    P1
_symmetry_Int_Tables_number       1
_space_group_crystal_system       triclinic
_cell_length_a                    10.948867
_cell_length_b                    10.908885
_cell_length_c                    9.83721
_cell_angle_alpha                 90.759737
_cell_angle_beta                  92.026166
_cell_angle_gamma                 90.874239
_cell_volume                      1173.97244551

loop_
_atom_site_label
_atom_site_type_symbol
_atom_type_description
_atom_site_fract_x
_atom_site_fract_y
_atom_site_fract_z
_atom_type_partial_charge
C1    C     C_R   0.498939 0.265786 0.499366 0.562336
C2    C     C_R   0.880804 0.705830 0.931110 0.082824
C3    C     C_R   0.812287 0.620148 0.005974 -0.029346
C4    C     C_R   0.263074 0.504224 0.497404 0.547409
C5    C     C_R   0.803635 0.494918 0.960215 -0.014021
C6    C     C_R   0.850257 0.463581 0.834674 -0.076140
C7    C     C_R   0.900318 0.552570 0.753818 -0.013069
C8    C     C_2   0.509731 0.931882 0.389533 -0.133958
C9    C     C_2   0.510607 0.866769 0.504259 -0.111882
C10   C     C_2   0.517159 0.066038 0.390329 -0.143242
C11   C     C_2   0.492262 0.133483 0.500188 -0.115238
C12   C     C_R   0.203999 0.605694 0.984232 -0.124712
C13   C     C_2   0.436530 0.423417 0.918188 0.015842
C14   C     C_2   0.447489 0.414409 0.072168 0.178472
C15   C     C_R   0.502423 0.734300 0.500828 0.545662
C16   C     C_R   0.737935 0.505431 0.501740 0.552851
C17   C     C_R   0.219923 0.690375 0.091383 -0.089529
C18   C     C_R   0.173174 0.664542 0.218390 -0.025971
C19   C     C_R   0.110689 0.553203 0.238774 0.071229
C20   C     C_R   0.093148 0.469586 0.130191 -0.044569
C21   C     C_R   0.141161 0.495088 0.003984 -0.117739
C22   C     C_2   0.737217 0.665380 0.117120 0.206686
C23   C     C_R   0.931709 0.523647 0.378306 -0.112354
C24   C     C_2   0.744530 0.392586 0.033150 0.529205
C25   C     C_2   0.394731 0.300347 0.125705 0.610887
C26   C     C_2   0.917565 0.829153 0.985956 0.634092
C27   C     C_R   0.873215 0.514242 0.502441 0.010214
C28   C     C_R   0.946694 0.519002 0.622425 -0.025523
C29   C     C_R   0.072262 0.511742 0.616568 -0.148967
C30   C     C_R   0.129840 0.512861 0.492932 -0.002426
C31   C     C_R   0.058526 0.526898 0.371866 -0.027064
C32   C     C_R   0.919751 0.671824 0.802948 -0.131460
Cu1   Cu    Cu3+1 0.500020 0.500020 0.638630 0.983483
Cu2   Cu    Cu3+1 0.499980 0.499980 0.361370 1.006509
H1    H     H_    0.241178 0.625596 0.886368 0.130158
H2    H     H_    0.512629 0.582000 0.108621 0.190568
H3    H     H_    0.185653 0.730889 0.300803 0.110995
H4    H     H_    0.043961 0.383998 0.143959 0.147580
H5    H     H_    0.130004 0.428276 0.922241 0.108817
H6    H     H_    0.879790 0.535318 0.285422 0.175481
H7    H     H_    0.125505 0.511723 0.710946 0.131809
H8    H     H_    0.968748 0.737156 0.742080 0.148505
H9    H     H_    0.706022 0.603774 0.190786 0.179435
H10   H     H_    0.720148 0.303396 0.208108 0.361677
H11   H     H_    0.271360 0.220074 0.244676 0.323102
H12   H     H_    0.844754 0.369652 0.796949 0.166509
H13   H     H_    0.967984 0.933485 0.150045 0.342702
H14   H     H_    0.505708 0.886094 0.290693 0.193067
H15   H     H_    0.521282 0.909491 0.604020 0.124895
H16   H     H_    0.541943 0.109868 0.296624 0.200099
H17   H     H_    0.464309 0.092697 0.594101 0.121356
H18   H     H_    0.377241 0.357371 0.863690 0.153255
H19   H     H_    0.558246 0.557961 0.898248 0.209614
H20   H     H_    0.268600 0.775898 0.076104 0.127535
N1    N     N_2   0.498640 0.498660 0.846910 -0.356645
N2    N     N_2   0.498610 0.498630 0.153040 -0.371948
O1    O     O_R   0.500020 0.321960 0.617040 -0.476293
O2    O     O_2   0.687701 0.312689 0.967998 -0.476147
O3    O     O_R   0.761987 0.379586 0.172777 -0.721457
O4    O     O_2   0.427216 0.201564 0.080589 -0.526732
O5    O     O_R   0.301622 0.304616 0.218810 -0.671861
O6    O     O_2   0.930677 0.914972 0.908733 -0.510895
O7    O     O_R   0.941931 0.846159 0.125538 -0.667741
O8    O     O_R   0.499980 0.321920 0.382900 -0.470209
O9    O     O_R   0.319660 0.500030 0.617070 -0.527239
O10   O     O_R   0.319620 0.499990 0.382930 -0.450239
O11   O     O_R   0.500020 0.678080 0.617100 -0.496791
O12   O     O_R   0.499980 0.678040 0.382960 -0.507302
O13   O     O_R   0.680380 0.500010 0.617070 -0.485235
O14   O     O_R   0.680340 0.499970 0.382930 -0.500364
O15   O     O_2   0.702492 0.771155 0.122145 -0.480553

loop_
_geom_bond_atom_site_label_1
_geom_bond_atom_site_label_2
_ccdc_geom_bond_type
C12   C17   A    
Cu1   N1    S    
C14   N2    D    
C26   O7    S    
C8    H14   S    
C16   O14   A    
Cu2   N2    S    
C6    C7    A    
H2    N2    S    
C25   O4    D    
C23   C27   A    
C13   H18   S    
C20   H4    S    
Cu2   O14   S    
C22   H9    S    
C21   H5    S    
Cu1   O13   S    
C3    C5    A    
C19   C31   S    
Cu2   O10   S    
C16   C27   S    
Cu2   O8    S    
C2    C3    A    
C9    C15   S    
Cu1   O9    S    
C2    C26   S    
C25   O5    S    
C13   C14   S    
C12   H1    S    
C4    O10   A    
C4    O9    A    
C5    C24   S    
C24   O3    S    
C5    C6    A    
C15   O12   A    
C17   H20   S    
C2    C32   A    
C28   C29   A    
C18   H3    S    
Cu1   Cu2   S    
C17   C18   A    
C1    O1    A    
H19   N1    S    
C14   C25   S    
C26   O6    D    
C30   C31   A    
C11   H17   S    
C10   C11   D    
C16   O13   A    
H10   O3    S    
C29   C30   A    
C23   H6    S    
C10   H16   S    
C1    O8    A    
C15   O11   A    
C22   O15   D    
C9    H15   S    
C20   C21   A    
Cu1   O11   S    
C24   O2    D    
C18   C19   A    
H11   O5    S    
C27   C28   A    
C32   H8    S    
C8    C9    D    
C3    C22   S    
Cu1   O1    S    
C7    C32   A    
C6    H12   S    
C29   H7    S    
C12   C21   A    
C8    C10   S    
C4    C30   S    
C7    C28   S    
C19   C20   A    
H13   O7    S    
C23   C31   A    
Cu2   O12   S    
C13   N1    D    
C1    C11   S    
