data_mof_unit_16181.cif
_audit_creation_date              2012-12-10T19:10:24-0500
_audit_creation_method            fapswitch 2.2
_symmetry_space_group_name_H-M    P1
_symmetry_Int_Tables_number       1
_space_group_crystal_system       triclinic
_cell_length_a                    10.721615
_cell_length_b                    9.81234
_cell_length_c                    15.728253
_cell_angle_alpha                 89.574178
_cell_angle_beta                  88.38649
_cell_angle_gamma                 89.302855
_cell_volume                      1653.85709045

loop_
_atom_site_label
_atom_site_type_symbol
_atom_type_description
_atom_site_fract_x
_atom_site_fract_y
_atom_site_fract_z
_atom_type_partial_charge
C1    C     C_R   0.258239 0.500135 0.499905 0.797246
C2    C     C_3   0.629719 0.497531 0.948234 -0.326198
C3    C     C_3   0.629694 0.480721 0.045579 -0.318407
C4    C     C_1   0.494306 0.499916 0.825298 -0.038800
C5    C     C_1   0.497485 0.500787 0.174778 -0.034400
C6    C     C_1   0.499104 0.501233 0.249948 -0.138633
C7    C     C_3   0.069238 0.519390 0.596514 -0.269708
C8    C     C_3   0.075254 0.357053 0.468961 -0.161142
C9    C     C_3   0.925998 0.548176 0.594298 -0.167434
C10   C     C_3   0.932989 0.346168 0.488946 -0.188476
C11   C     C_3   0.070560 0.612280 0.444356 -0.405515
C12   C     C_3   0.121851 0.498363 0.502573 0.010978
C13   C     C_3   0.878766 0.494208 0.507321 -0.038579
C14   C     C_R   0.500341 0.500434 0.338567 0.923686
C15   C     C_3   0.929802 0.593980 0.436895 -0.382634
C16   C     C_3   0.388276 0.081739 0.456223 -0.242233
C17   C     C_3   0.391357 0.921435 0.452645 -0.246159
C18   C     C_3   0.612767 0.080413 0.452059 -0.203149
C19   C     C_3   0.614938 0.917321 0.454553 -0.181247
C20   C     C_3   0.502251 0.079518 0.586766 -0.099020
C21   C     C_3   0.496455 0.917622 0.586763 -0.124413
C22   C     C_R   0.742135 0.498593 0.502834 0.951228
C23   C     C_R   0.498160 0.499628 0.661404 0.953591
C24   C     C_3   0.437117 0.637625 0.050835 -0.267114
C25   C     C_3   0.411899 0.380175 0.051989 -0.201064
C26   C     C_3   0.420080 0.374837 0.952389 -0.255565
C27   C     C_3   0.426201 0.633844 0.951648 -0.205228
C28   C     C_1   0.495803 0.499050 0.750083 -0.135745
C29   C     C_3   0.495121 0.499526 0.083155 0.225105
C30   C     C_3   0.493569 0.501642 0.916968 0.231412
H1    H     H_    0.908178 0.660215 0.594021 0.186527
H2    H     H_    0.886473 0.305163 0.432817 0.222919
H3    H     H_    0.886663 0.696709 0.443982 0.234162
H4    H     H_    0.907991 0.555719 0.372632 0.244538
H5    H     H_    0.300647 0.114469 0.488950 0.224224
H6    H     H_    0.302162 0.879927 0.477735 0.221706
H7    H     H_    0.593488 0.106764 0.613907 0.079940
H8    H     H_    0.581543 0.879508 0.618863 0.105385
H9    H     H_    0.696655 0.112824 0.485683 0.136181
H10   H     H_    0.696915 0.886025 0.492534 0.159765
H11   H     H_    0.694750 0.554621 0.073176 0.212267
H12   H     H_    0.667173 0.378009 0.061685 0.246360
H13   H     H_    0.678695 0.592972 0.930101 0.237923
H14   H     H_    0.684852 0.413622 0.917790 0.216310
H15   H     H_    0.085178 0.421746 0.631245 0.176970
H16   H     H_    0.124198 0.273119 0.502163 0.204546
N1    N     N_3   0.499750 0.138610 0.498180 -0.089535
N2    N     N_3   0.499750 0.861390 0.498180 -0.096590
O1    O     O_R   0.314910 0.616040 0.499980 -0.627989
O2    O     O_R   0.314910 0.383960 0.499980 -0.619900
O3    O     O_R   0.500120 0.616090 0.377110 -0.631819
O4    O     O_R   0.500120 0.383910 0.377110 -0.617266
O5    O     O_R   0.685320 0.616040 0.499960 -0.618516
O6    O     O_R   0.685320 0.383960 0.499960 -0.628835
O7    O     O_R   0.500110 0.615990 0.622830 -0.653977
O8    O     O_R   0.500110 0.384010 0.622830 -0.599675
Zn1   Zn    Zn3+2 0.500150 0.654960 0.499960 0.948569
Zn2   Zn    Zn3+2 0.500150 0.345040 0.499960 0.972152
H17   H     H_    0.325342 0.623130 0.938105 0.090419
H18   H     H_    0.322618 0.384043 0.929906 0.093977
H19   H     H_    0.089467 0.713879 0.472044 0.217648
H20   H     H_    0.116296 0.610077 0.379960 0.179164
H21   H     H_    0.379844 0.124683 0.391189 0.112990
H22   H     H_    0.392179 0.888430 0.385454 0.110240
C31   C     C_2   0.628590 0.139072 0.362842 0.527460
H23   H     H_    0.559206 0.121707 0.315420 0.069890
O9    O     O_2   0.721300 0.203653 0.342234 -0.542442
C32   C     C_2   0.638253 0.855498 0.367032 0.526994
H24   H     H_    0.570587 0.867209 0.317553 0.036780
O10   O     O_2   0.735954 0.796180 0.349342 -0.588108
C33   C     C_2   0.408087 0.142199 0.649908 0.566029
H25   H     H_    0.428499 0.138274 0.717066 0.001983
O11   O     O_2   0.309544 0.193438 0.628529 -0.541385
C34   C     C_2   0.388742 0.863245 0.641846 0.446516
H26   H     H_    0.408131 0.809084 0.700494 0.081066
O12   O     O_2   0.280315 0.888832 0.625778 -0.526100
H27   H     H_    0.340097 0.645271 0.077944 0.092946
H28   H     H_    0.313689 0.407718 0.070302 0.094401
C35   C     C_2   0.432165 0.241825 0.094500 0.486612
H29   H     H_    0.364834 0.162074 0.084885 0.038070
O13   O     O_2   0.521811 0.217307 0.138534 -0.551054
C36   C     C_2   0.502951 0.761977 0.084551 0.427111
H30   H     H_    0.455659 0.825434 0.131941 0.051889
O14   O     O_2   0.608613 0.791139 0.060467 -0.509216
C37   C     C_2   0.468943 0.240340 0.916132 0.408892
H31   H     H_    0.411279 0.183365 0.873718 0.050538
O15   O     O_2   0.571709 0.194903 0.933511 -0.515808
C38   C     C_2   0.461732 0.767413 0.907712 0.489302
H32   H     H_    0.404886 0.857699 0.920309 0.049263
O16   O     O_2   0.552245 0.776599 0.859228 -0.560467
C39   C     C_2   0.136810 0.624858 0.647608 0.429699
H33   H     H_    0.234721 0.609122 0.660554 0.068987
O17   O     O_2   0.082791 0.724189 0.678038 -0.521443
C40   C     C_2   0.111648 0.334979 0.375432 0.349909
H34   H     H_    0.209599 0.324906 0.357044 0.071563
O18   O     O_2   0.034346 0.328585 0.320078 -0.536597
C41   C     C_2   0.862295 0.497939 0.675951 0.376545
H35   H     H_    0.897758 0.530459 0.736381 0.119608
O19   O     O_2   0.771539 0.424375 0.676391 -0.604786
C42   C     C_2   0.903481 0.243854 0.560707 0.423404
H36   H     H_    0.807838 0.223002 0.579140 0.128133
O20   O     O_2   0.984504 0.183126 0.599420 -0.529346

loop_
_geom_bond_atom_site_label_1
_geom_bond_atom_site_label_2
_ccdc_geom_bond_type
C3    H12   S    
C17   N2    S    
C11   H20   S    
C18   N1    S    
C41   H35   S    
C23   O8    A    
C22   O6    A    
C37   H31   S    
C18   C31   S    
C34   O12   D    
C7    H15   S    
C16   H5    S    
C5    C6    T    
C39   O17   D    
O1    Zn1   S    
C18   C19   S    
C3    C29   S    
C9    C13   S    
C24   C29   S    
C24   C36   S    
C41   O19   D    
C11   C15   S    
C14   O4    A    
C21   H8    S    
C2    H14   S    
C16   C17   S    
C31   O9    D    
C24   C27   S    
C20   C33   S    
O3    Zn1   S    
C17   H6    S    
C1    O2    A    
C15   H4    S    
C21   N2    S    
C27   C30   S    
C27   C38   S    
C1    C12   S    
C16   N1    S    
C4    C28   T    
C22   O5    A    
C5    C29   S    
C37   O15   D    
C25   C29   S    
C7    C12   S    
C34   H26   S    
C25   H28   S    
O2    Zn2   S    
N2    Zn1   S    
C8    C40   S    
C39   H33   S    
C35   O13   D    
O5    Zn1   S    
C19   N2    S    
C32   H24   S    
C25   C26   S    
C21   C34   S    
C10   C42   S    
C18   H9    S    
C6    C14   S    
C14   O3    A    
C2    H13   S    
C8    C12   S    
C7    C39   S    
C42   O20   D    
C19   C32   S    
C23   C28   S    
C20   C21   S    
C40   O18   D    
O4    Zn2   S    
C8    C10   S    
C16   H21   S    
C38   O16   D    
C31   H23   S    
C36   O14   D    
O7    Zn1   S    
C33   O11   D    
O6    Zn2   S    
C7    C9    S    
C3    H11   S    
C9    C41   S    
C25   C35   S    
C11   H19   S    
C10   C13   S    
C11   C12   S    
C23   O7    A    
C2    C30   S    
C13   C15   S    
C2    C3    S    
C33   H25   S    
C17   H22   S    
C27   H17   S    
N1    Zn2   S    
C20   H7    S    
C26   H18   S    
C26   C37   S    
C42   H36   S    
O8    Zn2   S    
C13   C22   S    
C40   H34   S    
C8    H16   S    
C20   N1    S    
C19   H10   S    
C9    H1    S    
C35   H29   S    
C10   H2    S    
C24   H27   S    
C38   H32   S    
C32   O10   D    
C36   H30   S    
C1    O1    A    
C15   H3    S    
C4    C30   S    
C26   C30   S    
