data_mof_unit_55377.cif
_audit_creation_date              2012-10-26T19:50:03-0400
_audit_creation_method            fapswitch 2.2
_symmetry_space_group_name_H-M    P1
_symmetry_Int_Tables_number       1
_space_group_crystal_system       triclinic
_cell_length_a                    15.130433
_cell_length_b                    13.9011
_cell_length_c                    10.774619
_cell_angle_alpha                 91.992763
_cell_angle_beta                  94.007006
_cell_angle_gamma                 91.885334
_cell_volume                      2257.89595687

loop_
_atom_site_label
_atom_site_type_symbol
_atom_type_description
_atom_site_fract_x
_atom_site_fract_y
_atom_site_fract_z
_atom_type_partial_charge
C1    C     C_R   0.330533 0.498615 0.511531 0.577373
C2    C     C_R   0.953605 0.503738 0.535019 0.016811
C3    C     C_R   0.556033 0.112720 0.588456 0.216629
C4    C     C_R   0.449827 0.102249 0.407821 0.180273
C5    C     C_R   0.558749 0.214732 0.580805 0.354871
C6    C     C_R   0.444445 0.206052 0.414567 0.342806
C7    C     C_R   0.503093 0.055406 0.499128 -0.003067
C8    C     C_R   0.424312 0.892150 0.518852 0.216804
C9    C     C_R   0.579219 0.894367 0.478616 0.197348
C10   C     C_R   0.424974 0.790529 0.518474 0.012808
C11   C     C_R   0.575062 0.792230 0.475887 -0.000571
C12   C     C_R   0.670401 0.501690 0.502159 0.592664
C13   C     C_R   0.502703 0.946165 0.500852 0.071374
C14   C     C_R   0.504958 0.498700 0.263107 0.536274
C15   C     C_R   0.504515 0.501769 0.738148 0.515814
C16   C     C_R   0.640787 0.614517 0.152077 -0.090884
C17   C     C_R   0.631894 0.631171 0.894611 -0.108247
C18   C     C_R   0.701175 0.676142 0.099816 0.145571
C19   C     C_R   0.695272 0.686383 0.969988 0.159478
C20   C     C_R   0.572037 0.566581 0.946732 -0.035756
C21   C     C_R   0.575338 0.560564 0.077592 -0.009712
C22   C     C_R   0.516141 0.496111 0.130749 0.013419
C23   C     C_R   0.235227 0.496619 0.536545 -0.082169
C24   C     C_R   0.511467 0.504070 0.873112 -0.004215
C25   C     C_R   0.464875 0.429257 0.056274 -0.171965
C26   C     C_R   0.461187 0.433891 0.928911 -0.170049
C27   C     C_R   0.102809 0.589630 0.544893 0.246494
C28   C     C_R   0.907936 0.558256 0.619698 0.256391
C29   C     C_R   0.195125 0.584426 0.562564 0.183271
C30   C     C_R   0.816245 0.568052 0.597627 0.179734
C31   C     C_3   0.327648 0.951152 0.654664 -0.026171
C32   C     C_3   0.230459 0.926017 0.669509 -0.376721
C33   C     C_3   0.680899 0.938677 0.342157 -0.023976
C34   C     C_R   0.767840 0.505464 0.509622 -0.069142
C35   C     C_3   0.778938 0.964700 0.336650 -0.367208
C36   C     C_3   0.835929 0.670004 0.232689 -0.334738
C37   C     C_3   0.718947 0.843964 0.893137 -0.317834
C38   C     C_3   0.087266 0.727274 0.436315 -0.006507
C39   C     C_3   0.046273 0.825835 0.435273 -0.387156
C40   C     C_3   0.932910 0.564964 0.831524 0.001414
C41   C     C_3   0.998470 0.603551 0.936136 -0.388656
C42   C     C_3   0.263042 0.637711 0.747534 0.010401
C43   C     C_3   0.323965 0.714669 0.815177 -0.380719
C44   C     C_3   0.778174 0.725599 0.608948 0.033861
C45   C     C_R   0.184545 0.410240 0.547421 0.183305
C46   C     C_3   0.861949 0.785508 0.651015 -0.354602
C47   C     C_3   0.194427 0.254082 0.474446 0.014164
C48   C     C_3   0.223161 0.156077 0.515834 -0.342118
C49   C     C_3   0.764491 0.290665 0.370004 0.038638
C50   C     C_3   0.689953 0.237071 0.291146 -0.374837
C51   C     C_3   0.061794 0.325441 0.729809 -0.007547
C52   C     C_3   0.988777 0.261696 0.777124 -0.385314
C53   C     C_3   0.967658 0.441589 0.252968 -0.009318
C54   C     C_3   0.030525 0.385232 0.176361 -0.387925
C55   C     C_3   0.554342 0.029574 0.769140 -0.015474
C56   C     C_R   0.813099 0.443218 0.432273 0.183742
C57   C     C_3   0.598294 0.046162 0.900207 -0.411615
C58   C     C_3   0.448646 0.011043 0.225857 -0.017527
C59   C     C_3   0.387178 0.975252 0.114734 -0.384055
C60   C     C_3   0.634153 0.270257 0.767204 0.019854
C61   C     C_3   0.691750 0.356544 0.818846 -0.371589
C62   C     C_3   0.346673 0.217327 0.231145 -0.008129
C63   C     C_3   0.285833 0.287414 0.162988 -0.424401
C64   C     C_R   0.093168 0.416388 0.565714 0.243897
C65   C     C_R   0.906298 0.447204 0.439642 0.236317
C66   C     C_R   0.051238 0.503673 0.546990 0.019436
Cu1   Cu    Cu3+1 0.500000 0.596430 0.500000 0.929310
Cu2   Cu    Cu3+1 0.500000 0.403570 0.500000 1.046648
H1    H     H_    0.426339 0.374409 0.097120 0.135016
H2    H     H_    0.214857 0.940266 0.767489 0.088376
H3    H     H_    0.187517 0.969665 0.607811 0.144308
H4    H     H_    0.641967 0.991632 0.288555 0.110738
H5    H     H_    0.668139 0.865903 0.296580 0.134758
H6    H     H_    0.795743 0.967117 0.238096 0.082359
H7    H     H_    0.819409 0.909818 0.384233 0.148467
H8    H     H_    0.794954 0.036344 0.383078 0.163346
H9    H     H_    0.789386 0.792589 0.148410 0.248387
H10   H     H_    0.879487 0.714379 0.300511 0.134362
H11   H     H_    0.876106 0.641882 0.158081 0.131141
H12   H     H_    0.417855 0.382755 0.873559 0.127928
H13   H     H_    0.807846 0.609008 0.282625 0.158813
H14   H     H_    0.818197 0.752717 0.952234 0.244829
H15   H     H_    0.655800 0.837339 0.833896 0.160094
H16   H     H_    0.766892 0.889061 0.845184 0.147515
H17   H     H_    0.707256 0.880129 0.983830 0.123415
H18   H     H_    0.063146 0.686094 0.349316 0.095919
H19   H     H_    0.160365 0.739458 0.437028 0.177106
H20   H     H_    0.062705 0.865309 0.525572 0.159201
H21   H     H_    0.072241 0.868316 0.359474 0.106347
H22   H     H_    0.973252 0.818457 0.419474 0.121262
H23   H     H_    0.363805 0.752026 0.530989 0.205827
H24   H     H_    0.936337 0.484992 0.826074 0.105101
H25   H     H_    0.865332 0.584467 0.855299 0.186728
H26   H     H_    0.996446 0.683314 0.944174 0.153945
H27   H     H_    0.981113 0.573333 0.025482 0.073136
H28   H     H_    0.066574 0.582601 0.917235 0.141448
H29   H     H_    0.297751 0.568438 0.755119 0.125587
H30   H     H_    0.200834 0.632086 0.796729 0.139201
H31   H     H_    0.288145 0.782099 0.827680 0.131061
H32   H     H_    0.346124 0.689958 0.908868 0.103441
H33   H     H_    0.383389 0.728289 0.762752 0.168007
H34   H     H_    0.632223 0.753769 0.452116 0.133666
H35   H     H_    0.721053 0.766795 0.637463 0.173962
H36   H     H_    0.772609 0.718389 0.505221 0.114770
H37   H     H_    0.918762 0.758848 0.602628 0.209038
H38   H     H_    0.853004 0.861748 0.626807 0.097962
H39   H     H_    0.877277 0.782157 0.752729 0.192233
H40   H     H_    0.221821 0.269991 0.385535 0.171930
H41   H     H_    0.121255 0.249868 0.457143 0.178655
H42   H     H_    0.190405 0.138282 0.601566 0.129805
H43   H     H_    0.204101 0.100372 0.441560 0.127047
H44   H     H_    0.295911 0.156905 0.536725 0.191647
H45   H     H_    0.647913 0.607299 0.251752 0.154489
H46   H     H_    0.752471 0.281245 0.469874 0.180605
H47   H     H_    0.828162 0.257615 0.350261 0.171851
H48   H     H_    0.703078 0.238647 0.191080 0.135794
H49   H     H_    0.684942 0.161186 0.318939 0.091926
H50   H     H_    0.625839 0.271092 0.304887 0.189847
H51   H     H_    0.064502 0.395167 0.784712 0.110472
H52   H     H_    0.125952 0.289662 0.746686 0.167250
H53   H     H_    0.986143 0.190132 0.727580 0.159903
H54   H     H_    0.001983 0.251813 0.878494 0.085481
H55   H     H_    0.923778 0.295730 0.760967 0.150748
H56   H     H_    0.632342 0.637954 0.795257 0.191641
H57   H     H_    0.999463 0.513866 0.277754 0.099761
H58   H     H_    0.904740 0.450468 0.195177 0.159078
H59   H     H_    0.000790 0.312781 0.149204 0.154125
H60   H     H_    0.043864 0.423766 0.090802 0.087243
H61   H     H_    0.094206 0.376990 0.232118 0.141204
H62   H     H_    0.546452 0.950709 0.749612 0.135562
H63   H     H_    0.487030 0.060022 0.769361 0.088353
H64   H     H_    0.671114 0.039191 0.899857 0.163267
H65   H     H_    0.584318 0.119117 0.937465 0.108049
H66   H     H_    0.571473 0.992686 0.963225 0.092877
H67   H     H_    0.340453 0.028266 0.682280 0.124218
H68   H     H_    0.487221 0.948911 0.257269 0.136575
H69   H     H_    0.495058 0.067665 0.194236 0.092967
H70   H     H_    0.349465 0.035616 0.075417 0.125531
H71   H     H_    0.426478 0.943617 0.041262 0.087614
H72   H     H_    0.339813 0.919055 0.143835 0.170454
H73   H     H_    0.668350 0.206148 0.800870 0.178799
H74   H     H_    0.567326 0.273916 0.804171 0.129054
H75   H     H_    0.669229 0.423909 0.776867 0.177922
H76   H     H_    0.688847 0.363426 0.921484 0.105275
H77   H     H_    0.761647 0.346911 0.796966 0.125474
H78   H     H_    0.368716 0.907739 0.720536 0.091768
H79   H     H_    0.302839 0.153864 0.245164 0.191767
H80   H     H_    0.401336 0.199739 0.171418 0.131587
H81   H     H_    0.299937 0.362805 0.198237 0.177440
H82   H     H_    0.293978 0.282205 0.061329 0.097836
H83   H     H_    0.215099 0.269070 0.175353 0.094666
H84   H     H_    0.215961 0.848908 0.643899 0.211486
N1    N     N_R   0.500000 0.258690 0.500000 -0.259184
N2    N     N_R   0.500000 0.741330 0.500000 -0.290023
N3    N     N_2   0.766241 0.728089 0.180036 -0.547915
N4    N     N_2   0.754031 0.749939 0.912896 -0.504079
O1    O     O_R   0.371460 0.581430 0.500010 -0.486887
O2    O     O_3   0.659393 0.942932 0.467643 -0.540277
O3    O     O_3   0.062843 0.677952 0.542131 -0.522416
O4    O     O_3   0.954698 0.606597 0.719397 -0.518281
O5    O     O_3   0.243777 0.661177 0.621472 -0.558940
O6    O     O_3   0.774147 0.635745 0.667111 -0.558332
O7    O     O_3   0.226887 0.324564 0.565251 -0.543462
O8    O     O_3   0.765975 0.388486 0.338556 -0.558159
O9    O     O_3   0.043595 0.337759 0.601042 -0.540759
O10   O     O_3   0.951249 0.389795 0.359726 -0.534882
O11   O     O_3   0.608452 0.070102 0.680340 -0.532850
O12   O     O_R   0.628540 0.581430 0.499990 -0.520017
O13   O     O_3   0.397200 0.045627 0.321707 -0.548931
O14   O     O_3   0.630018 0.269936 0.636051 -0.524132
O15   O     O_3   0.381554 0.259042 0.346610 -0.518862
O16   O     O_R   0.371470 0.418560 0.500010 -0.412563
O17   O     O_R   0.628530 0.418560 0.499990 -0.438866
O18   O     O_R   0.500000 0.581450 0.319650 -0.512514
O19   O     O_R   0.500000 0.581450 0.680350 -0.518133
O20   O     O_R   0.500010 0.418580 0.319650 -0.476708
O21   O     O_R   0.499990 0.418580 0.680350 -0.494246
O22   O     O_3   0.344965 0.937414 0.528146 -0.533698

loop_
_geom_bond_atom_site_label_1
_geom_bond_atom_site_label_2
_ccdc_geom_bond_type
Cu1   O12   S    
C48   H42   S    
C35   H6    S    
C34   C56   A    
C16   C21   A    
C23   C45   A    
C27   C29   A    
C50   H49   S    
C57   H64   S    
C55   O11   S    
C40   H25   S    
C2    C65   A    
C16   H45   S    
C10   N2    A    
C44   H36   S    
C42   O5    S    
C3    O11   S    
C53   C54   S    
C62   O15   S    
C35   H7    S    
C8    C13   A    
C38   H18   S    
Cu1   N2    S    
C23   C29   A    
C37   H17   S    
C43   H31   S    
C38   O3    S    
C3    C7    A    
C42   H30   S    
C38   C39   S    
C52   H55   S    
C41   H28   S    
Cu1   O18   S    
C27   O3    S    
C56   C65   A    
C46   H37   S    
Cu2   O21   S    
C28   O4    S    
C17   C20   A    
C18   C19   A    
C49   C50   S    
C61   H77   S    
C63   H81   S    
C49   O8    S    
C9    C13   A    
C61   H76   S    
C11   N2    A    
C60   H74   S    
C31   H78   S    
C14   O20   A    
C61   H75   S    
C41   H26   S    
Cu1   O19   S    
C22   C25   A    
C51   H51   S    
C5    O14   S    
C37   H16   S    
C39   H22   S    
C33   H4    S    
C47   O7    S    
C49   H46   S    
C62   H80   S    
C21   C22   A    
C19   N4    S    
C37   N4    S    
C57   H65   S    
C44   O6    S    
C39   H20   S    
C4    C7    A    
C44   H35   S    
C44   C46   S    
C32   H3    S    
C6    O15   S    
Cu2   O20   S    
C35   H8    S    
C4    O13   S    
C30   C34   A    
C31   O22   S    
C51   C52   S    
C29   O5    S    
C58   O13   S    
C43   H32   S    
C31   H67   S    
Cu2   N1    S    
C42   H29   S    
C17   C19   A    
C32   H2    S    
C59   H70   S    
C58   H68   S    
C25   C26   A    
C47   H41   S    
C54   H60   S    
C65   O10   S    
C26   H12   S    
Cu1   Cu2   S    
C60   C61   S    
C64   C66   A    
C43   H33   S    
C63   H82   S    
C64   O9    S    
C60   H73   S    
C52   H53   S    
C17   H56   S    
C47   C48   S    
C32   H84   S    
C59   H71   S    
C36   H13   S    
C55   H62   S    
C46   H39   S    
C62   C63   S    
C51   H52   S    
C1    O1    A    
Cu1   O1    S    
C16   C18   A    
C40   H24   S    
C9    C11   A    
C63   H83   S    
C53   H57   S    
C58   H69   S    
C4    C6    A    
C40   C41   S    
C49   H47   S    
C10   H23   S    
C1    C23   S    
C55   H63   S    
C62   H79   S    
C55   C57   S    
C57   H66   S    
C51   O9    S    
C25   H1    S    
C42   C43   S    
C30   O6    S    
C12   C34   S    
C33   O2    S    
C33   H5    S    
C54   H61   S    
C15   C24   S    
C1    O16   A    
C48   H44   S    
C50   H50   S    
C40   O4    S    
C31   C32   S    
C24   C26   A    
C3    C5    A    
C36   H11   S    
C12   O12   A    
C52   H54   S    
Cu2   O17   S    
C2    C66   S    
C54   H59   S    
C56   O8    S    
C45   C64   A    
C15   O19   A    
C38   H19   S    
C60   O14   S    
C14   C22   S    
C15   O21   A    
C58   C59   S    
H14   N4    S    
C14   O18   A    
C27   C66   A    
C36   H10   S    
H9    N3    S    
C9    O2    S    
Cu2   O16   S    
C41   H27   S    
C59   H72   S    
C5    N1    A    
C46   H38   S    
C28   C30   A    
C33   C35   S    
C11   H34   S    
C50   H48   S    
C45   O7    S    
C20   C24   A    
C6    N1    A    
C53   H58   S    
C8    O22   S    
C53   O10   S    
C7    C13   S    
C48   H43   S    
C20   C21   A    
C8    C10   A    
C47   H40   S    
C37   H15   S    
C2    C28   A    
C39   H21   S    
C18   N3    S    
C36   N3    S    
C12   O17   A    
