data_mof_unit_52306.cif
_audit_creation_date              2012-12-11T15:09:43-0500
_audit_creation_method            fapswitch 2.2
_symmetry_space_group_name_H-M    P1
_symmetry_Int_Tables_number       1
_space_group_crystal_system       triclinic
_cell_length_a                    21.02971
_cell_length_b                    7.132917
_cell_length_c                    14.02482
_cell_angle_alpha                 89.584989
_cell_angle_beta                  98.669843
_cell_angle_gamma                 90.634687
_cell_volume                      2079.5679032

loop_
_atom_site_label
_atom_site_type_symbol
_atom_type_description
_atom_site_fract_x
_atom_site_fract_y
_atom_site_fract_z
_atom_type_partial_charge
O1    O     O_R   0.447130 0.507140 0.597350 -0.550724
O2    O     O_R   0.552870 0.007140 0.402650 -0.551490
O3    O     O_R   0.578910 0.181280 0.586990 -0.533468
O4    O     O_R   0.421090 0.681280 0.413010 -0.534562
C1    C     C_R   0.604784 0.344714 0.606531 0.764182
C2    C     C_R   0.395129 0.843757 0.393695 0.758619
O5    O     O_R   0.449230 0.177860 0.608640 -0.522853
O6    O     O_R   0.550770 0.677860 0.391360 -0.522360
O7    O     O_R   0.422260 0.000770 0.424450 -0.544442
O8    O     O_R   0.577740 0.500770 0.575550 -0.543858
C3    C     C_R   0.431989 0.345204 0.633093 0.727154
C4    C     C_R   0.567986 0.847657 0.366830 0.738408
O9    O     O_3   0.491310 0.336980 0.439550 -0.377992
O10   O     O_3   0.508690 0.836980 0.560450 -0.378694
V1    V     V_3+5 0.501610 0.064760 0.511210 1.471155
V2    V     V_3+5 0.498390 0.564760 0.488790 1.472630
C5    C     C_R   0.618953 0.943244 0.126744 -0.151818
C6    C     C_R   0.386700 0.398838 0.879191 -0.151655
H1    H     H_    0.696324 0.927841 0.998342 0.143158
H2    H     H_    0.310132 0.382915 0.008470 0.150056
H3    H     H_    0.596630 0.968175 0.052855 0.168910
H4    H     H_    0.410338 0.407861 0.953388 0.174037
C7    C     C_R   0.609256 0.865209 0.292303 -0.189658
C8    C     C_R   0.392552 0.353961 0.709869 -0.186823
C9    C     C_R   0.918897 0.875281 0.301115 -0.201960
C10   C     C_R   0.086121 0.403276 0.702803 -0.212870
C11   C     C_R   0.885948 0.933420 0.374708 -0.031794
C12   C     C_R   0.121314 0.477138 0.634342 -0.026336
C13   C     C_R   0.819303 0.973654 0.352968 -0.028532
C14   C     C_R   0.188746 0.499831 0.658393 -0.043756
C15   C     C_R   0.784897 0.913884 0.262469 0.052520
C16   C     C_R   0.220125 0.420098 0.746425 0.058306
C17   C     C_R   0.820135 0.879495 0.184950 -0.018465
C18   C     C_R   0.183392 0.384292 0.822712 -0.019007
C19   C     C_R   0.716145 0.903859 0.243893 0.075460
C20   C     C_R   0.288035 0.392500 0.763594 0.073002
C21   C     C_R   0.685530 0.928644 0.147959 0.037697
C22   C     C_R   0.319822 0.395254 0.859202 0.035223
C23   C     C_R   0.721019 0.921862 0.072130 -0.173789
C24   C     C_R   0.284703 0.385267 0.935011 -0.167893
C25   C     C_R   0.785823 0.875921 0.089223 -0.028525
C26   C     C_R   0.217884 0.366738 0.918707 -0.036386
C27   C     C_R   0.677849 0.856975 0.316433 0.361714
C28   C     C_R   0.323850 0.348616 0.688727 0.347291
C29   C     C_R   0.580301 0.915430 0.197928 -0.069450
C30   C     C_R   0.423691 0.384730 0.805324 -0.064974
C31   C     C_R   0.888182 0.861807 0.206130 -0.079186
C32   C     C_R   0.114916 0.372454 0.798096 -0.099858
H5    H     H_    0.970610 0.857015 0.316298 0.127077
H6    H     H_    0.034099 0.394037 0.685115 0.130000
C33   C     C_1   0.165448 0.854854 0.171228 -0.118297
C34   C     C_1   0.833888 0.355763 0.830429 -0.098403
C35   C     C_1   0.217676 0.851052 0.222908 0.046862
C36   C     C_1   0.781515 0.353688 0.779173 0.056180
C37   C     C_1   0.279587 0.849833 0.282494 0.027758
C38   C     C_1   0.719751 0.352990 0.719229 0.016713
C39   C     C_1   0.332270 0.848690 0.332917 -0.192585
C40   C     C_1   0.667326 0.351453 0.668118 -0.201509
O11   O     O_R   0.922300 0.202240 0.924350 -0.528155
O12   O     O_R   0.077700 0.702240 0.075650 -0.500571
O13   O     O_R   0.050780 0.535130 0.891350 -0.529956
O14   O     O_R   0.949220 0.035130 0.108650 -0.540058
C41   C     C_R   0.070596 0.370052 0.869508 0.736377
C42   C     C_R   0.930274 0.867807 0.131577 0.704820
O15   O     O_R   0.921100 0.531560 0.912990 -0.533699
O16   O     O_R   0.078900 0.031560 0.087010 -0.543653
O17   O     O_R   0.947120 0.708470 0.097370 -0.525869
O18   O     O_R   0.052880 0.208470 0.902630 -0.544953
C43   C     C_R   0.896200 0.363013 0.892683 0.762443
C44   C     C_R   0.103652 0.863371 0.107703 0.740566
O19   O     O_3   0.008710 0.375800 0.060400 -0.362612
O20   O     O_3   0.991290 0.875800 0.939600 -0.383868
V3    V     V_3+5 0.998380 0.648080 0.988790 1.551627
V4    V     V_3+5 0.001620 0.148080 0.011210 1.527430
C45   C     C_2   0.509348 0.928748 0.169108 0.789447
O21   O     O_2   0.487337 0.039728 0.106058 -0.546764
O22   O     O_R   0.467701 0.810809 0.211072 -0.666955
H7    H     H_    0.420894 0.831162 0.183390 0.289488
C46   C     C_2   0.494892 0.389747 0.832193 0.786669
O23   O     O_2   0.519648 0.491511 0.897618 -0.544148
O24   O     O_R   0.533567 0.273393 0.786007 -0.664218
H8    H     H_    0.580848 0.285809 0.813442 0.287901
O25   O     O_3   0.708153 0.760173 0.397670 -0.561918
C47   C     C_3   0.693319 0.827560 0.486366 0.057426
H9    H     H_    0.649594 0.757838 0.504631 0.141567
H10   H     H_    0.687490 0.982452 0.486493 0.124635
C48   C     C_3   0.746181 0.770917 0.567361 -0.628295
H11   H     H_    0.792658 0.833005 0.555926 0.277735
H12   H     H_    0.734432 0.819654 0.637647 0.177255
H13   H     H_    0.750934 0.616016 0.569566 0.221658
O26   O     O_3   0.290437 0.251503 0.609981 -0.559459
C49   C     C_3   0.305021 0.309233 0.519096 0.069168
H14   H     H_    0.346083 0.229054 0.500635 0.135837
H15   H     H_    0.315609 0.462099 0.515750 0.125000
C50   C     C_3   0.248456 0.259106 0.441909 -0.610777
H16   H     H_    0.203175 0.319369 0.459013 0.252050
H17   H     H_    0.257484 0.313072 0.370630 0.173595
H18   H     H_    0.242330 0.104351 0.437811 0.222458
C51   C     C_2   0.790562 0.121374 0.408821 0.751777
O27   O     O_2   0.813782 0.158820 0.491763 -0.549869
O28   O     O_R   0.738612 0.226754 0.363824 -0.664423
H19   H     H_    0.723898 0.323729 0.408096 0.310862
C52   C     C_2   0.224722 0.634302 0.603128 0.770551
O29   O     O_2   0.209994 0.654321 0.516000 -0.560378
O30   O     O_R   0.275293 0.741661 0.652115 -0.659204
H20   H     H_    0.296127 0.827290 0.607460 0.309361
C53   C     C_2   0.924777 0.965619 0.470560 0.840296
O31   O     O_2   0.906617 0.903636 0.543396 -0.550539
O32   O     O_R   0.983742 0.060642 0.477057 -0.636564
H21   H     H_    0.006300 0.071763 0.546006 0.326129
C54   C     C_2   0.084463 0.546149 0.542821 0.820626
O33   O     O_2   0.049575 0.438085 0.491097 -0.536764
O34   O     O_R   0.087162 0.735776 0.517809 -0.635550
H22   H     H_    0.060531 0.764276 0.453026 0.308988
C55   C     C_2   0.811579 0.800619 0.005959 0.735834
O35   O     O_2   0.823182 0.633573 0.004215 -0.555065
O36   O     O_R   0.817433 0.915633 0.926657 -0.662340
H23   H     H_    0.833934 0.845614 0.872843 0.293777
C56   C     C_2   0.189837 0.340113 0.007761 0.726857
O37   O     O_2   0.154875 0.458571 0.032856 -0.551178
O38   O     O_R   0.212535 0.196450 0.071423 -0.663392
H24   H     H_    0.198105 0.212131 0.136643 0.290843

loop_
_geom_bond_atom_site_label_1
_geom_bond_atom_site_label_2
_ccdc_geom_bond_type
C22   C24   A    
C48   H11   S    
O28   H19   S    
C7    C29   A    
C11   C13   A    
C27   O25   S    
O12   V3    S    
C35   C37   S    
C54   O33   D    
O1    C3    A    
C47   C48   S    
O2    C4    A    
C2    O7    A    
O24   H8    S    
C50   H18   S    
O15   V3    S    
C23   C25   A    
O22   H7    S    
O5    C3    A    
C4    C7    S    
C1    C40   S    
C16   C20   A    
C19   C21   A    
C5    C29   A    
C10   H6    S    
C30   C46   S    
H2    C24   S    
O15   C43   A    
C26   C56   S    
O18   V4    S    
C55   O35   D    
O16   V4    S    
C3    C8    S    
C7    C27   A    
O13   C41   A    
O14   C42   A    
C34   C43   S    
C54   O34   S    
C50   H16   S    
C55   O36   S    
C18   C26   A    
C14   C52   S    
C53   O31   D    
C15   C17   A    
O17   V3    S    
C33   C44   S    
O12   C44   A    
C19   C27   A    
C9    C31   A    
C10   C32   A    
C24   C26   A    
O6    V2    S    
C53   O32   S    
C2    C39   S    
C25   C55   S    
C6    C30   A    
C34   C36   T    
C56   O38   S    
C12   C54   S    
C36   C38   S    
C13   C51   S    
C42   O17   A    
C47   H9    S    
O20   V4    S    
C31   C42   S    
O19   V3    S    
C32   C41   S    
O5    V1    S    
O13   V3    S    
C49   C50   S    
C5    H3    S    
C33   C35   T    
C16   C18   A    
O4    V2    S    
C45   O21   D    
O25   C47   S    
C11   C53   S    
O6    C4    A    
C49   H15   S    
C52   O30   S    
O1    V2    S    
C5    C21   A    
O2    V1    S    
C45   O22   S    
O11   V4    S    
O38   H24   S    
C28   O26   S    
H1    C23   S    
O11   C43   A    
O4    C2    A    
C51   O28   S    
C37   C39   T    
C8    C28   A    
C15   C19   A    
C20   C28   A    
C18   C32   A    
O26   C49   S    
O3    V1    S    
C46   O24   S    
O34   H22   S    
C41   O18   A    
C6    H4    S    
C47   H10   S    
O20   V3    S    
O3    C1    A    
O19   V4    S    
C56   O37   D    
C50   H17   S    
O9    V2    S    
C9    C11   A    
O30   H20   S    
C10   C12   A    
C51   O27   D    
C29   C45   S    
C8    C30   A    
C20   C22   A    
C6    C22   A    
C17   C25   A    
C1    O8    A    
C13   C15   A    
O8    V2    S    
O36   H23   S    
C14   C16   A    
O16   C44   A    
C17   C31   A    
C12   C14   A    
C49   H14   S    
C38   C40   T    
O7    V1    S    
C9    H5    S    
C46   O23   D    
C21   C23   A    
C48   H13   S    
C52   O29   D    
C48   H12   S    
O10   V1    S    
O14   V4    S    
O32   H21   S    
