data_mof_unit_7324.cif
_audit_creation_date              2012-12-11T14:17:58-0500
_audit_creation_method            fapswitch 2.2
_symmetry_space_group_name_H-M    P1
_symmetry_Int_Tables_number       1
_space_group_crystal_system       triclinic
_cell_length_a                    10.982948
_cell_length_b                    11.042214
_cell_length_c                    18.879258
_cell_angle_alpha                 89.947476
_cell_angle_beta                  90.00166
_cell_angle_gamma                 120.193084
_cell_volume                      1978.98329979

loop_
_atom_site_label
_atom_site_type_symbol
_atom_type_description
_atom_site_fract_x
_atom_site_fract_y
_atom_site_fract_z
_atom_type_partial_charge
C1    C     C_R   0.520695 0.453657 0.145519 0.575854
C2    C     C_R   0.955319 0.390187 0.542185 -0.147921
C3    C     C_R   0.409939 0.988461 0.537050 -0.131720
C4    C     C_R   0.619405 0.529642 0.551470 -0.164752
C5    C     C_R   0.652960 0.842432 0.539553 -0.109198
C6    C     C_R   0.028994 0.758343 0.556937 -0.098599
C7    C     C_R   0.231357 0.279532 0.554172 -0.084021
C8    C     C_R   0.106298 0.756335 0.417498 -0.077977
C9    C     C_R   0.612922 0.851559 0.395252 -0.087055
C10   C     C_R   0.266780 0.376848 0.416442 -0.076325
C11   C     C_R   0.737307 0.823046 0.491375 -0.142003
C12   C     C_R   0.546067 0.067066 0.145511 0.569363
C13   C     C_R   0.075201 0.877013 0.515025 -0.154852
C14   C     C_R   0.118122 0.220389 0.507092 -0.147878
C15   C     C_R   0.114137 0.876482 0.445277 -0.120975
C16   C     C_R   0.712624 0.819896 0.419392 -0.106263
C17   C     C_R   0.135490 0.271214 0.438437 -0.120528
C18   C     C_R   0.539978 0.430793 0.361775 0.542492
C19   C     C_R   0.540727 0.058439 0.352370 0.518311
C20   C     C_R   0.938118 0.480981 0.353874 0.512973
C21   C     C_R   0.456729 0.513503 0.647649 0.546774
C22   C     C_R   0.060336 0.544821 0.646157 0.546148
C23   C     C_R   0.932865 0.479274 0.145579 0.570155
C24   C     C_R   0.455038 0.875894 0.638292 0.558563
C25   C     C_R   0.494149 0.002414 0.922943 -0.022756
C26   C     C_R   0.997785 0.491737 0.923115 -0.021491
C27   C     C_R   0.508902 0.506549 0.923037 -0.020399
C28   C     C_R   0.972430 0.494063 0.070752 -0.032775
C29   C     C_R   0.521342 0.028220 0.070607 -0.031119
C30   C     C_R   0.506380 0.478354 0.070653 -0.032765
C31   C     C_R   0.373909 0.970326 0.965726 -0.006245
C32   C     C_R   0.030583 0.405039 0.966132 -0.005372
C33   C     C_R   0.595822 0.626217 0.966067 -0.003932
C34   C     C_R   0.459939 0.520924 0.852723 0.581202
C35   C     C_R   0.032425 0.419356 0.040710 -0.008401
C36   C     C_R   0.386053 0.968889 0.040366 -0.007930
C37   C     C_R   0.581421 0.613305 0.040654 -0.007587
C38   C     C_R   0.640760 0.083700 0.026086 0.371498
C39   C     C_R   0.916421 0.556622 0.026119 0.371072
C40   C     C_R   0.444046 0.359913 0.025981 0.370567
C41   C     C_R   0.931933 0.558121 0.953682 0.380075
C42   C     C_R   0.626947 0.067979 0.953640 0.379402
C43   C     C_R   0.442550 0.374136 0.953538 0.380423
C44   C     C_R   0.243399 0.944033 0.937315 0.009119
C45   C     C_R   0.061212 0.540416 0.852734 0.579598
C46   C     C_R   0.057013 0.301424 0.938076 0.010167
C47   C     C_R   0.699728 0.756914 0.937985 0.007429
C48   C     C_R   0.085969 0.351266 0.083220 -0.059367
C49   C     C_R   0.263529 0.916175 0.082670 -0.059414
C50   C     C_R   0.649797 0.734846 0.083205 -0.061099
C51   C     C_R   0.126809 0.903943 0.980750 -0.076114
C52   C     C_R   0.097433 0.226182 0.981788 -0.077698
C53   C     C_R   0.775083 0.872677 0.981703 -0.079608
C54   C     C_R   0.114767 0.253038 0.053958 -0.088147
C55   C     C_R   0.135950 0.887253 0.053039 -0.086203
C56   C     C_R   0.479412 0.939016 0.852691 0.589867
C57   C     C_R   0.748207 0.862529 0.053912 -0.090181
C58   C     C_R   0.472974 0.914620 0.563082 0.005940
C59   C     C_R   0.003243 0.519903 0.573866 0.001936
C60   C     C_R   0.483352 0.472602 0.578090 0.010288
C61   C     C_R   0.990744 0.498607 0.426194 -0.007363
C62   C     C_R   0.492889 0.984037 0.419247 -0.002536
C63   C     C_R   0.522334 0.467972 0.433038 0.009324
C64   C     C_R   0.555530 0.882455 0.516467 0.017775
C65   C     C_R   0.026890 0.636872 0.530774 0.031183
C66   C     C_R   0.366130 0.389750 0.532249 0.035684
C67   C     C_R   0.427084 0.029671 0.466904 -0.150616
C68   C     C_R   0.047653 0.631378 0.457906 0.022824
C69   C     C_R   0.548651 0.901288 0.442944 0.026096
C70   C     C_R   0.385889 0.417749 0.460051 0.026849
C71   C     C_R   0.937713 0.378214 0.469239 -0.147703
C72   C     C_R   0.637729 0.516761 0.479390 -0.159316
Cr1   Cr    Cr6+3 0.768550 0.541320 0.250660 1.023140
Cr2   Cr    Cr6+3 0.458680 0.227230 0.250660 1.025084
Cr3   Cr    Cr6+3 0.772770 0.231450 0.250660 1.024081
Cr4   Cr    Cr6+3 0.541320 0.768550 0.749340 1.017945
Cr5   Cr    Cr6+3 0.227230 0.458680 0.749340 1.027357
Cr6   Cr    Cr6+3 0.231450 0.772770 0.749340 1.026815
F1    F     F_    0.773160 0.155615 0.052492 -0.617559
F2    F     F_    0.843936 0.615893 0.052394 -0.617699
F3    F     F_    0.384673 0.228138 0.052260 -0.617879
F4    F     F_    0.882793 0.625685 0.912942 -0.630381
F5    F     F_    0.744348 0.116540 0.912999 -0.630485
F6    F     F_    0.374835 0.257513 0.912739 -0.629773
H1    H     H_    0.230935 0.963435 0.882552 0.177992
H2    H     H_    0.147358 0.195292 0.087728 0.170165
H3    H     H_    0.044889 0.855043 0.086601 0.170305
H4    H     H_    0.806166 0.952896 0.087695 0.170640
H5    H     H_    0.392516 0.101604 0.450455 0.140395
H6    H     H_    0.881352 0.274099 0.446654 0.149139
H7    H     H_    0.742351 0.550505 0.459276 0.143005
H8    H     H_    0.928229 0.298295 0.573947 0.134888
H9    H     H_    0.354955 0.022814 0.571925 0.146324
H10   H     H_    0.709931 0.583516 0.585973 0.116000
H11   H     H_    0.673852 0.831894 0.593847 0.168703
H12   H     H_    0.037202 0.268828 0.883448 0.179859
H13   H     H_    0.987668 0.761705 0.608357 0.139382
H14   H     H_    0.212751 0.230898 0.605721 0.143300
H15   H     H_    0.138828 0.759254 0.363073 0.121955
H16   H     H_    0.594563 0.847390 0.338722 0.119797
H17   H     H_    0.276470 0.417283 0.363196 0.134354
H18   H     H_    0.814828 0.799350 0.510532 0.121937
H19   H     H_    0.078796 0.968483 0.537101 0.105972
H20   H     H_    0.015856 0.137327 0.524301 0.106644
H21   H     H_    0.149778 0.968880 0.412607 0.120963
H22   H     H_    0.771338 0.793855 0.382466 0.136187
H23   H     H_    0.732412 0.770252 0.883310 0.177486
H24   H     H_    0.048072 0.227454 0.401716 0.119308
H25   H     H_    0.102269 0.370105 0.139542 0.109195
H26   H     H_    0.265712 0.900394 0.139074 0.108703
H27   H     H_    0.631033 0.731807 0.139568 0.108766
H28   H     H_    0.028942 0.885838 0.957948 0.158008
H29   H     H_    0.115328 0.146590 0.959328 0.159165
H30   H     H_    0.854922 0.970687 0.959223 0.160414
O1    O     O_R   0.910960 0.572410 0.171010 -0.473570
O2    O     O_R   0.528530 0.639750 0.824400 -0.534562
O3    O     O_R   0.111220 0.471470 0.824400 -0.533090
O4    O     O_R   0.360250 0.888780 0.824400 -0.529930
O5    O     O_R   0.909330 0.572400 0.331540 -0.540529
O6    O     O_R   0.427600 0.336930 0.331540 -0.540741
O7    O     O_R   0.663070 0.090670 0.331540 -0.532579
O8    O     O_R   0.572400 0.909330 0.668460 -0.529503
O9    O     O_R   0.336930 0.427600 0.668460 -0.528790
O10   O     O_R   0.090670 0.663070 0.668460 -0.538375
O11   O     O_R   0.638240 0.528520 0.324410 -0.519933
O12   O     O_R   0.427590 0.338550 0.171010 -0.471745
O13   O     O_R   0.471480 0.109720 0.324410 -0.526511
O14   O     O_R   0.890280 0.361760 0.324410 -0.517746
O15   O     O_R   0.528520 0.638240 0.675590 -0.529315
O16   O     O_R   0.109720 0.471480 0.675590 -0.493961
O17   O     O_R   0.361760 0.890280 0.675590 -0.496182
O18   O     O_3   0.666667 0.333333 0.250630 -0.260679
O19   O     O_3   0.333333 0.666667 0.749370 -0.281403
O20   O     O_R   0.661450 0.089040 0.171010 -0.474753
O21   O     O_R   0.572410 0.910960 0.828990 -0.461507
O22   O     O_R   0.338550 0.427590 0.828990 -0.466110
O23   O     O_R   0.089040 0.661450 0.828990 -0.466591
O24   O     O_R   0.639750 0.528530 0.175600 -0.469343
O25   O     O_R   0.471470 0.111220 0.175600 -0.473428
O26   O     O_R   0.888780 0.360250 0.175600 -0.471473

loop_
_geom_bond_atom_site_label_1
_geom_bond_atom_site_label_2
_ccdc_geom_bond_type
C25   C31   A    
C26   C32   A    
C51   H28   S    
Cr1   O5    S    
C7    H14   S    
Cr2   O18   S    
C12   C29   S    
C61   C68   A    
C25   C56   S    
Cr3   O20   S    
C39   C41   A    
Cr2   O12   S    
C52   H29   S    
C27   C33   A    
C48   C54   A    
C29   C36   A    
C62   C67   A    
Cr6   O4    S    
C8    H15   S    
C9    C69   A    
C20   O14   A    
Cr5   O3    S    
Cr3   O26   S    
C18   O11   A    
C18   C63   S    
C38   F1    S    
C19   C62   S    
C34   O2    A    
C46   C52   A    
C67   H5    S    
Cr3   O14   S    
C11   C16   A    
C20   C61   S    
Cr3   O18   S    
C50   H27   S    
C26   C45   S    
C7    C14   A    
C28   C35   A    
C29   C38   A    
Cr5   O22   S    
C13   H19   S    
Cr6   O10   S    
C16   H22   S    
C47   C53   A    
C61   C71   A    
C48   H25   S    
Cr1   O18   S    
C60   C66   A    
C12   O20   A    
C22   O16   A    
C43   F6    S    
C14   C17   A    
C4    C60   A    
Cr5   O19   S    
C35   C48   A    
C24   O8    A    
C5    H11   S    
Cr4   O21   S    
C52   C54   A    
C6    C65   A    
C27   C34   S    
C58   C64   A    
C31   C44   A    
C22   O10   A    
C6    H13   S    
C23   O26   A    
C1    O12   A    
C21   C60   S    
C17   H24   S    
C22   C59   S    
C54   H2    S    
C72   H7    S    
C53   C57   A    
C2    C59   A    
C28   C39   A    
C49   C55   A    
C33   C37   A    
C30   C37   A    
C21   O9    A    
Cr6   O17   S    
C32   C35   A    
Cr5   O9    S    
Cr4   O15   S    
C14   H20   S    
Cr2   O13   S    
C63   C70   A    
C34   O22   A    
C65   C68   A    
C40   C43   A    
C45   O23   A    
C12   O25   A    
C30   C40   A    
C3    H9    S    
C23   C28   S    
C2    H8    S    
C21   O15   A    
C4    H10   S    
C10   C70   A    
C44   C51   A    
C8    C68   A    
C8    C15   A    
C47   H23   S    
C13   C15   A    
C33   C47   A    
C44   H1    S    
Cr6   O23   S    
C18   O6    A    
C4    C72   A    
C56   O21   A    
C53   H30   S    
C45   O3    A    
C19   O7    A    
Cr3   O7    S    
C50   C57   A    
C32   C46   A    
C40   F3    S    
C9    C16   A    
C10   H17   S    
C3    C67   A    
C42   F5    S    
C25   C42   A    
Cr4   O19   S    
C5    C11   A    
C9    H16   S    
Cr2   O6    S    
Cr2   O25   S    
Cr1   O1    S    
C57   H4    S    
C5    C64   A    
Cr4   O8    S    
C39   F2    S    
C15   H21   S    
C59   C65   A    
C7    C66   A    
C56   O4    A    
C37   C50   A    
C24   O17   A    
C66   C70   A    
C71   H6    S    
Cr1   O11   S    
C41   F4    S    
C19   O13   A    
C1    C30   S    
Cr4   O2    S    
C11   H18   S    
C51   C55   A    
Cr5   O16   S    
C55   H3    S    
C64   C69   A    
Cr6   O19   S    
C38   C42   A    
C36   C49   A    
C23   O1    A    
C3    C58   A    
C27   C43   A    
C46   H12   S    
C63   C72   A    
C62   C69   A    
C24   C58   S    
Cr1   O24   S    
C31   C36   A    
C10   C17   A    
C20   O5    A    
C1    O24   A    
C2    C71   A    
C26   C41   A    
C49   H26   S    
C6    C13   A    
