data_mof_unit_55961.cif
_audit_creation_date              2012-10-26T21:25:52-0400
_audit_creation_method            fapswitch 2.2
_symmetry_space_group_name_H-M    P1
_symmetry_Int_Tables_number       1
_space_group_crystal_system       triclinic
_cell_length_a                    10.825352
_cell_length_b                    10.870199
_cell_length_c                    12.717402
_cell_angle_alpha                 92.985496
_cell_angle_beta                  93.204154
_cell_angle_gamma                 90.284421
_cell_volume                      1492.09017679

loop_
_atom_site_label
_atom_site_type_symbol
_atom_type_description
_atom_site_fract_x
_atom_site_fract_y
_atom_site_fract_z
_atom_type_partial_charge
C1    C     C_R   0.261920 0.496382 0.500378 0.539186
C2    C     C_R   0.808350 0.742664 0.369731 -0.065438
C3    C     C_R   0.129998 0.365485 0.661175 0.049218
C4    C     C_R   0.870002 0.634517 0.338826 0.049219
C5    C     C_R   0.124725 0.399378 0.768894 -0.092489
C6    C     C_R   0.875281 0.600630 0.231106 -0.092492
C7    C     C_R   0.181771 0.326523 0.844653 -0.117109
C8    C     C_R   0.818236 0.673487 0.155347 -0.117109
C9    C     C_R   0.242656 0.218741 0.813376 -0.100059
C10   C     C_R   0.757347 0.781265 0.186627 -0.100060
C11   C     C_R   0.938094 0.447532 0.579833 -0.155173
C12   C     C_R   0.738080 0.503618 0.499622 0.539184
C13   C     C_R   0.061906 0.552468 0.420167 -0.155172
C14   C     C_R   0.871788 0.505781 0.499433 -0.000528
C15   C     C_R   0.128212 0.494219 0.500567 -0.000527
C16   C     C_R   0.503806 0.261890 0.500945 0.536965
C17   C     C_R   0.496194 0.738110 0.499055 0.536964
C18   C     C_R   0.933978 0.560410 0.419212 -0.030971
C19   C     C_R   0.066022 0.439591 0.580788 -0.030972
C20   C     C_2   0.471740 0.460423 0.030574 -0.170586
C21   C     C_2   0.528261 0.539577 0.969426 -0.170586
C22   C     C_1   0.522809 0.526824 0.852983 0.139725
C23   C     C_R   0.494028 0.871706 0.497438 -0.009250
C24   C     C_1   0.477191 0.473176 0.147017 0.139725
C25   C     C_R   0.760126 0.255166 0.787774 -0.099654
C26   C     C_R   0.239872 0.744835 0.212226 -0.099654
C27   C     C_R   0.709263 0.200498 0.692791 -0.051424
C28   C     C_R   0.290736 0.799503 0.307210 -0.051424
C29   C     C_R   0.601386 0.127837 0.692056 0.057506
C30   C     C_R   0.398613 0.872163 0.307944 0.057506
C31   C     C_R   0.548289 0.107680 0.788233 -0.094726
C32   C     C_R   0.451710 0.892319 0.211767 -0.094726
C33   C     C_R   0.598355 0.163899 0.882491 -0.115789
C34   C     C_R   0.505972 0.128294 0.502562 -0.009249
C35   C     C_R   0.401643 0.836101 0.117508 -0.115788
C36   C     C_R   0.703994 0.237943 0.882208 -0.099824
C37   C     C_R   0.296004 0.762058 0.117792 -0.099824
C38   C     C_R   0.540627 0.938163 0.588447 -0.162222
C39   C     C_R   0.459372 0.061837 0.411553 -0.162222
C40   C     C_R   0.451934 0.934214 0.407394 -0.038437
C41   C     C_R   0.548065 0.065786 0.592606 -0.038436
C42   C     C_R   0.247014 0.183950 0.706227 -0.094088
C43   C     C_R   0.752983 0.816052 0.293777 -0.094087
C44   C     C_R   0.191646 0.257335 0.630272 -0.065441
Cu1   Cu    Cu3+1 0.492140 0.492110 0.395880 0.986314
Cu2   Cu    Cu3+1 0.507860 0.507890 0.604120 0.986314
H1    H     H_    0.743167 0.280916 0.955340 0.108343
H2    H     H_    0.420070 0.382705 0.992968 0.121082
H3    H     H_    0.843597 0.310252 0.788952 0.097705
H4    H     H_    0.156401 0.689750 0.211049 0.097704
H5    H     H_    0.753954 0.213988 0.620135 0.093984
H6    H     H_    0.246046 0.786013 0.379865 0.093984
H7    H     H_    0.468283 0.048025 0.790368 0.089406
H8    H     H_    0.531716 0.951975 0.209631 0.089406
H9    H     H_    0.555832 0.149139 0.955890 0.097042
H10   H     H_    0.444166 0.850861 0.044110 0.097043
H11   H     H_    0.575032 0.890153 0.656671 0.137189
H12   H     H_    0.256831 0.719085 0.044660 0.108342
H13   H     H_    0.424968 0.109847 0.343329 0.137190
H14   H     H_    0.285706 0.161903 0.872225 0.097544
H15   H     H_    0.714298 0.838106 0.127778 0.097544
H16   H     H_    0.292274 0.099642 0.681681 0.106882
H17   H     H_    0.707720 0.900357 0.318324 0.106883
H18   H     H_    0.195165 0.229026 0.547551 0.094916
H19   H     H_    0.804826 0.770969 0.452453 0.094916
H20   H     H_    0.076689 0.482055 0.793977 0.100190
H21   H     H_    0.923321 0.517955 0.206021 0.100189
H22   H     H_    0.177991 0.353132 0.927610 0.098757
H23   H     H_    0.822021 0.646882 0.072389 0.098758
H24   H     H_    0.889510 0.403962 0.639930 0.117066
H25   H     H_    0.110490 0.596038 0.360070 0.117066
H26   H     H_    0.579931 0.617295 0.007032 0.121083
N1    N     N_1   0.480320 0.480250 0.239400 -0.183183
N2    N     N_1   0.519680 0.519750 0.760600 -0.183183
O1    O     O_R   0.313000 0.493330 0.412070 -0.509554
O2    O     O_R   0.687000 0.506670 0.587930 -0.509555
O3    O     O_R   0.326280 0.506660 0.587930 -0.484468
O4    O     O_R   0.673720 0.493340 0.412070 -0.484468
O5    O     O_R   0.493370 0.312980 0.412070 -0.511089
O6    O     O_R   0.506630 0.687020 0.587930 -0.511089
O7    O     O_R   0.506650 0.326310 0.587930 -0.482959
O8    O     O_R   0.493350 0.673690 0.412070 -0.482960

loop_
_geom_bond_atom_site_label_1
_geom_bond_atom_site_label_2
_ccdc_geom_bond_type
C33   H9    S    
Cu2   O6    S    
C27   C29   A    
C1    O3    A    
C14   C18   A    
Cu1   O8    S    
C2    H19   S    
Cu2   O2    S    
C11   H24   S    
C43   H17   S    
Cu1   Cu2   S    
C44   H18   S    
C15   C19   A    
C11   C19   A    
C9    C42   A    
C17   C23   S    
C13   C18   A    
C35   C37   A    
C26   H4    S    
C11   C14   A    
C24   N1    T    
C23   C40   A    
C38   H11   S    
C33   C36   A    
C36   H1    S    
Cu1   N1    S    
C17   O8    A    
C16   C34   S    
C7    H22   S    
C20   C24   S    
C12   O4    A    
C31   C33   A    
C3    C19   S    
Cu1   O4    S    
C1    C15   S    
C42   H16   S    
C37   H12   S    
C4    C18   S    
C35   H10   S    
C21   C22   S    
C34   C41   A    
C42   C44   A    
C32   H8    S    
C27   H5    S    
C3    C44   A    
C21   H26   S    
C34   C39   A    
C1    O1    A    
C32   C35   A    
C38   C41   A    
C4    C6    A    
C39   C40   A    
C5    C7    A    
C6    C8    A    
C13   H25   S    
C17   O6    A    
C2    C4    A    
Cu2   O7    S    
C2    C43   A    
C39   H13   S    
C8    H23   S    
C30   C40   S    
Cu1   O5    S    
C31   H7    S    
C20   H2    S    
C6    H21   S    
C12   C14   S    
C13   C15   A    
C12   O2    A    
C10   H15   S    
C22   N2    T    
Cu2   N2    S    
C7    C9    A    
C29   C41   S    
C10   C43   A    
C5    H20   S    
C3    C5    A    
Cu2   O3    S    
C26   C37   A    
C25   C27   A    
C23   C38   A    
C26   C28   A    
Cu1   O1    S    
C9    H14   S    
C16   O5    A    
C28   C30   A    
C29   C31   A    
C30   C32   A    
C28   H6    S    
C16   O7    A    
C25   H3    S    
C25   C36   A    
C20   C21   D    
C8    C10   A    
