data_mof_unit_16134.cif
_audit_creation_date              2012-10-26T18:27:28-0400
_audit_creation_method            fapswitch 2.2
_symmetry_space_group_name_H-M    P1
_symmetry_Int_Tables_number       1
_space_group_crystal_system       triclinic
_cell_length_a                    10.771078
_cell_length_b                    11.034455
_cell_length_c                    9.837785
_cell_angle_alpha                 111.225694
_cell_angle_beta                  98.241429
_cell_angle_gamma                 91.003644
_cell_volume                      1075.61635103

loop_
_atom_site_label
_atom_site_type_symbol
_atom_type_description
_atom_site_fract_x
_atom_site_fract_y
_atom_site_fract_z
_atom_type_partial_charge
C1    C     C_R   0.489316 0.254240 0.440711 0.552919
C2    C     C_2   0.458971 0.930092 0.482653 0.235289
C3    C     C_2   0.513256 0.508212 0.081903 0.022756
C4    C     C_R   0.262716 0.501300 0.501399 0.564237
C5    C     C_2   0.488855 0.491156 0.920340 0.077741
C6    C     C_R   0.505240 0.745906 0.558902 0.538383
C7    C     C_R   0.737289 0.503336 0.499570 0.536067
C8    C     C_R   0.157832 0.734499 0.684405 -0.121229
C9    C     C_R   0.106085 0.846998 0.768042 -0.126458
C10   C     C_R   0.976366 0.849748 0.761356 -0.126454
C11   C     C_R   0.897831 0.739661 0.671843 -0.095196
C12   C     C_R   0.079936 0.621118 0.593694 -0.014796
C13   C     C_R   0.948438 0.623502 0.589189 0.020534
C14   C     C_3   0.085414 0.261353 0.167028 -0.290058
C15   C     C_3   0.662272 0.749033 0.963027 0.075749
C16   C     C_3   0.739232 0.833468 0.111776 -0.291464
C17   C     C_3   0.745458 0.977429 0.131956 -0.489142
C18   C     C_3   0.285358 0.854127 0.299887 0.001633
C19   C     C_3   0.212448 0.736636 0.306070 -0.235937
C20   C     C_3   0.071358 0.737762 0.259917 -0.491074
C21   C     C_R   0.129136 0.506602 0.503927 0.019221
C22   C     C_R   0.049338 0.397041 0.410290 0.105221
C23   C     C_R   0.920736 0.399557 0.409989 -0.143292
C24   C     C_R   0.870783 0.510474 0.498973 -0.021298
C25   C     C_2   0.476061 0.115274 0.407446 -0.128368
C26   C     C_2   0.474495 0.070075 0.516076 -0.158370
C27   C     C_2   0.501492 0.885096 0.589560 -0.106435
Cu1   Cu    Cu3+1 0.521920 0.521810 0.644910 0.961158
Cu2   Cu    Cu3+1 0.478080 0.478190 0.355090 0.931976
H1    H     H_    0.464673 0.049713 0.292553 0.132334
H2    H     H_    0.487928 0.136023 0.631072 0.118311
H3    H     H_    0.535460 0.952451 0.701594 0.035447
H4    H     H_    0.067289 0.199415 0.338106 0.235845
H5    H     H_    0.135869 0.175498 0.109140 0.129156
H6    H     H_    0.126195 0.347883 0.151832 0.172347
H7    H     H_    0.984399 0.243011 0.116596 0.126760
H8    H     H_    0.565200 0.783052 0.959141 0.143472
H9    H     H_    0.706634 0.762205 0.873950 0.164472
H10   H     H_    0.696031 0.821097 0.202488 0.182272
H11   H     H_    0.836228 0.801432 0.118537 0.168659
H12   H     H_    0.408800 0.426775 0.850226 0.086344
H13   H     H_    0.790570 0.992388 0.043949 0.137264
H14   H     H_    0.802082 0.035745 0.240840 0.147468
H15   H     H_    0.649456 0.012527 0.128077 0.152916
H16   H     H_    0.268012 0.851310 0.184642 0.140638
H17   H     H_    0.248443 0.946164 0.369654 0.118464
H18   H     H_    0.245812 0.645462 0.231291 0.199673
H19   H     H_    0.230372 0.738150 0.420502 0.167054
H20   H     H_    0.035327 0.827402 0.334201 0.146813
H21   H     H_    0.021843 0.651583 0.266961 0.164363
H22   H     H_    0.051227 0.733325 0.144204 0.150603
H23   H     H_    0.588984 0.576917 0.155560 0.197907
H24   H     H_    0.372534 0.381772 0.066269 0.188498
H25   H     H_    0.258826 0.738536 0.690238 0.126250
H26   H     H_    0.166830 0.932971 0.836757 0.099666
H27   H     H_    0.936355 0.937892 0.824577 0.097875
H28   H     H_    0.797456 0.747184 0.665734 0.111250
H29   H     H_    0.859510 0.313529 0.341555 0.118882
N1    N     N_2   0.445130 0.445430 0.137370 -0.383036
N2    N     N_2   0.554930 0.554500 0.862630 -0.053333
N3    N     N_2   0.099243 0.281259 0.322270 -0.504213
O1    O     O_R   0.511700 0.332330 0.577400 -0.498845
O2    O     O_3   0.416054 0.845932 0.338180 -0.548490
O3    O     O_R   0.474680 0.295500 0.332650 -0.488557
O4    O     O_R   0.338160 0.518420 0.622400 -0.526223
O5    O     O_R   0.301140 0.481590 0.377650 -0.494948
O6    O     O_R   0.525320 0.704500 0.667350 -0.552069
O7    O     O_R   0.488300 0.667670 0.422600 -0.441194
O8    O     O_R   0.698860 0.518410 0.622350 -0.468485
O9    O     O_R   0.661840 0.481580 0.377600 -0.504027
O10   O     O_3   0.663355 0.617227 0.948331 -0.500896

loop_
_geom_bond_atom_site_label_1
_geom_bond_atom_site_label_2
_ccdc_geom_bond_type
C7    O8    A    
C23   H29   S    
C4    O5    A    
C23   C24   A    
C17   H14   S    
C15   H9    S    
C14   H5    S    
C20   H20   S    
C9    H26   S    
C7    C24   S    
Cu2   O7    S    
C15   O10   S    
C9    C10   A    
Cu1   O8    S    
N2    O10   S    
C8    C12   A    
C1    O1    A    
C19   C20   S    
C6    O7    A    
Cu1   O4    S    
H24   N1    S    
C17   H15   S    
C26   H2    S    
C2    C26   S    
C21   C22   A    
C2    O2    S    
C22   N3    S    
C1    C25   S    
C4    C21   S    
C11   C13   A    
C2    C27   D    
C7    O9    A    
C18   H17   S    
Cu1   Cu2   S    
C16   H11   S    
Cu2   O9    S    
C20   H22   S    
Cu1   N2    S    
C14   H7    S    
C4    O4    A    
C3    H23   S    
C19   H18   S    
C18   O2    S    
Cu2   O3    S    
C15   C16   S    
C27   H3    S    
C16   H10   S    
Cu2   O5    S    
C12   C21   A    
C18   H16   S    
Cu2   N1    S    
C14   H6    S    
Cu1   O6    S    
C10   H27   S    
C12   C13   A    
C8    C9    A    
H4    N3    S    
C18   C19   S    
C10   C11   A    
C17   H13   S    
C8    H25   S    
C25   H1    S    
C5    H12   S    
C22   C23   A    
C6    O6    A    
C20   H21   S    
C19   H19   S    
C5    N2    D    
C25   C26   D    
C11   H28   S    
C14   N3    S    
C1    O3    A    
C15   H8    S    
C6    C27   S    
C13   C24   A    
C3    N1    D    
C16   C17   S    
C3    C5    S    
Cu1   O1    S    
