data_mof_unit_66632.cif
_audit_creation_date              2013-03-05T15:41:51-0500
_audit_creation_method            fapswitch 2.2
_symmetry_space_group_name_H-M    P1
_symmetry_Int_Tables_number       1
_space_group_crystal_system       triclinic
_cell_length_a                    7.863677
_cell_length_b                    8.529236
_cell_length_c                    10.54168
_cell_angle_alpha                 91.710004
_cell_angle_beta                  84.800413
_cell_angle_gamma                 93.708131
_cell_volume                      702.45451064

loop_
_atom_site_label
_atom_site_type_symbol
_atom_site_description
_atom_site_fract_x
_atom_site_fract_y
_atom_site_fract_z
_atom_type_partial_charge
O1    O     O_R   0.389250 0.738570 0.508410 -0.588183
O2    O     O_R   0.610750 0.261430 0.491590 -0.588196
O3    O     O_R   0.678390 0.711620 0.486450 -0.582363
O4    O     O_R   0.321610 0.288380 0.513550 -0.582419
C1    C     C_R   0.544295 0.794101 0.503317 0.904157
C2    C     C_R   0.455707 0.205895 0.496702 0.904147
O5    O     O_R   0.355460 0.513510 0.697030 -0.576652
O6    O     O_R   0.644540 0.486490 0.302970 -0.576621
O7    O     O_R   0.644600 0.486560 0.675070 -0.595894
O8    O     O_R   0.355400 0.513440 0.324930 -0.595903
C3    C     C_R   0.501235 0.502313 0.741769 0.989250
C4    C     C_R   0.498766 0.497691 0.258230 0.989247
Zn1   Zn    Zn3+2 0.306940 0.517990 0.514670 1.193744
Zn2   Zn    Zn3+2 0.693060 0.482010 0.485330 1.193766
N1    N     N_2   0.950320 0.457950 0.465730 0.036204
N2    N     N_2   0.049680 0.542050 0.534270 0.036154
C5    C     C_3   0.433187 0.630553 0.967970 0.229100
C6    C     C_3   0.566825 0.369456 0.032027 0.229098
C7    C     C_3   0.593325 0.628454 0.042410 -0.263908
C8    C     C_3   0.406686 0.371556 0.957587 -0.263937
H1    H     H_    0.668588 0.732150 0.078840 0.264348
H2    H     H_    0.331425 0.267859 0.921157 0.264331
C9    C     C_3   0.497453 0.497147 0.124088 -0.294967
C10   C     C_3   0.502555 0.502862 0.875910 -0.294947
C11   C     C_3   0.339447 0.502242 0.049957 0.260056
C12   C     C_3   0.660563 0.497768 0.950039 0.260099
C13   C     C_2   0.555971 0.957634 0.527912 0.055779
C14   C     C_2   0.444045 0.042359 0.472129 0.055746
N3    N     N_R   0.359128 0.774739 0.934600 0.279811
O9    O     O_R   0.308292 0.873963 0.023865 -0.209453
O10   O     O_R   0.352873 0.810074 0.816138 -0.314078
N4    N     N_R   0.640887 0.225273 0.065398 0.279820
O11   O     O_R   0.691707 0.126040 0.976136 -0.209431
O12   O     O_R   0.647184 0.189958 0.183860 -0.314031
N5    N     N_R   0.163496 0.504712 0.106689 0.260170
O13   O     O_R   0.057439 0.383153 0.093513 -0.273890
O14   O     O_R   0.112588 0.626787 0.172863 -0.261194
N6    N     N_R   0.836508 0.495301 0.893292 0.260162
O15   O     O_R   0.942531 0.616902 0.906381 -0.273959
O16   O     O_R   0.887416 0.373216 0.827132 -0.261233
N7    N     N_R   0.989066 0.302198 0.451507 0.308620
O17   O     O_R   0.990777 0.219250 0.552991 -0.260896
O18   O     O_R   0.957246 0.229069 0.345540 -0.230722
N8    N     N_R   0.011045 0.697846 0.548334 0.308684
O19   O     O_R   0.009046 0.780550 0.446759 -0.260886
O20   O     O_R   0.043266 0.771218 0.654093 -0.230765
N9    N     N_R   0.638574 0.014132 0.639313 0.236347
O21   O     O_R   0.772709 0.948289 0.670341 -0.224145
O22   O     O_R   0.561596 0.107171 0.722841 -0.341217
N10   N     N_R   0.361484 0.985838 0.360719 0.236227
O23   O     O_R   0.227176 0.051481 0.329782 -0.223938
O24   O     O_R   0.438588 0.892954 0.277130 -0.341238

loop_
_geom_bond_atom_site_label_1
_geom_bond_atom_site_label_2
_geom_bond_distance
_ccdc_geom_bond_type
C7    C9    1.547479 S    
O7    Zn2   2.001641 S    
N3    O9    1.299829 A    
N7    O18   1.299379 A    
N7    O17   1.301620 A    
N2    N8    1.382872 S    
N10   O24   1.302056 A    
N9    O21   1.298105 A    
C6    C12   1.524696 S    
O6    C4    1.288585 A    
C5    C11   1.524691 S    
N4    O11   1.299827 A    
O3    C1    1.301138 A    
N10   O23   1.298118 A    
C6    N4    1.459759 S    
N3    O10   1.299324 A    
N6    O16   1.300360 A    
O7    C3    1.285955 A    
C4    C9    1.414925 S    
O2    C2    1.276184 A    
O3    Zn2   1.968849 S    
O8    C4    1.285963 A    
C11   N5    1.457930 S    
O1    C1    1.276200 A    
O4    C2    1.301163 A    
N5    O14   1.300359 A    
C10   C12   1.530167 S    
O5    C3    1.288588 A    
C6    C8    1.544266 S    
C9    C11   1.530167 S    
N6    O15   1.300122 A    
O2    Zn2   1.950652 S    
C5    C10   1.530798 S    
O1    Zn1   1.950652 S    
C8    C11   1.545421 S    
C8    H2    1.110503 S    
C6    C9    1.530809 S    
C8    C10   1.547467 S    
C3    C10   1.414916 S    
O5    Zn1   1.995445 S    
C5    N3    1.459757 S    
N8    O19   1.301527 A    
N1    N7    1.382851 S    
N9    O22   1.302035 A    
Zn1   N2    2.037837 S    
C13   N9    1.448191 S    
C13   C14   1.357977 D    
C7    C12   1.545424 S    
Zn2   N1    2.037836 S    
C12   N6    1.457937 S    
O6    Zn2   1.995443 S    
N5    O13   1.300137 A    
C5    C7    1.544265 S    
C1    C13   1.409718 S    
C14   N10   1.448161 S    
C2    C14   1.409713 S    
N1    N2    1.282949 D    
O4    Zn1   1.968849 S    
N8    O20   1.299172 A    
C7    H1    1.110502 S    
O8    Zn1   2.001641 S    
N4    O12   1.299325 A    
