data_mof_unit_26886.cif
_audit_creation_date              2012-12-11T19:58:19-0500
_audit_creation_method            fapswitch 2.2
_symmetry_space_group_name_H-M    P1
_symmetry_Int_Tables_number       1
_space_group_crystal_system       triclinic
_cell_length_a                    8.367127
_cell_length_b                    16.433824
_cell_length_c                    22.680299
_cell_angle_alpha                 107.773332
_cell_angle_beta                  89.789467
_cell_angle_gamma                 83.817977
_cell_volume                      2950.31157953

loop_
_atom_site_label
_atom_site_type_symbol
_atom_type_description
_atom_site_fract_x
_atom_site_fract_y
_atom_site_fract_z
_atom_type_partial_charge
Ba1   Ba    Ba6+2 0.335320 0.541410 0.478120 1.635794
Ba2   Ba    Ba6+2 0.854470 0.458670 0.521900 1.633774
C1    C     C_3   0.045825 0.852766 0.361309 -0.025737
C2    C     C_3   0.035186 0.764515 0.369988 0.427715
C3    C     C_3   0.186935 0.312690 0.315568 0.258615
C4    C     C_3   0.198848 0.274566 0.244414 0.059805
C5    C     C_3   0.782332 0.258571 0.652266 0.375056
C6    C     C_3   0.788965 0.234204 0.714408 0.437754
C7    C     C_3   0.225402 0.267979 0.649053 0.368547
C8    C     C_3   0.266402 0.193542 0.676199 -0.205795
C9    C     C_R   0.836766 0.516986 0.334290 -0.276110
C10   C     C_R   0.587105 0.573400 0.946452 -0.009519
C11   C     C_R   0.539990 0.572414 0.886583 0.560401
C12   C     C_3   0.518105 0.717274 0.335005 0.330069
C13   C     C_R   0.433373 0.437904 0.871245 0.611086
C14   C     C_R   0.477800 0.436665 0.931746 -0.066288
C15   C     C_R   0.556405 0.505355 0.969153 -0.083114
C16   C     C_R   0.662504 0.642076 0.984548 -0.093119
C17   C     C_R   0.704982 0.644165 0.044343 -0.085395
C18   C     C_R   0.676306 0.576864 0.067781 -0.006415
C19   C     C_R   0.603828 0.506788 0.029792 -0.056423
C20   C     C_R   0.446854 0.369085 0.956004 0.193386
C21   C     C_R   0.500116 0.370544 0.015302 -0.091789
C22   C     C_R   0.578488 0.438525 0.052446 -0.056546
C23   C     C_3   0.475856 0.738051 0.275627 -0.350160
C24   C     C_R   0.630889 0.439581 0.112114 0.591035
C25   C     C_R   0.717311 0.579018 0.128672 0.567384
C26   C     C_2   0.250884 0.505577 0.773861 0.192950
C27   C     C_3   0.198706 0.508644 0.709642 -0.068838
C28   C     C_1   0.479624 0.526866 0.688742 0.039886
C29   C     C_2   0.527957 0.517471 0.742119 -0.190054
C30   C     C_2   0.409005 0.508208 0.788790 0.206318
C31   C     C_R   0.888173 0.544779 0.237488 -0.115020
C32   C     C_R   0.930192 0.550150 0.298206 -0.025406
C33   C     C_R   0.698669 0.480001 0.311366 -0.021870
C34   C     C_3   0.634998 0.721692 0.625067 0.307010
C35   C     C_R   0.647505 0.481965 0.252459 -0.128143
C36   C     C_R   0.743519 0.512552 0.213660 0.206573
C37   C     C_2   0.338492 0.506497 0.666874 -0.294199
C38   C     C_2   0.417844 0.238892 0.477192 -0.265379
C39   C     C_R   0.808527 0.743325 0.502394 -0.310601
C40   C     C_2   0.242414 0.127249 0.432239 -0.121246
C41   C     C_2   0.270183 0.209480 0.445335 0.034317
C42   C     C_2   0.537178 0.183238 0.487472 0.013228
C43   C     C_3   0.526752 0.086980 0.458365 -0.038908
C44   C     C_3   0.351585 0.065808 0.455156 -0.020966
C45   C     C_3   0.655602 0.817229 0.657631 -0.248019
C46   C     C_2   0.625907 0.028873 0.487405 -0.098915
C47   C     C_2   0.637928 0.943046 0.461861 -0.098964
C48   C     C_R   0.872723 0.911025 0.520126 -0.058978
C49   C     C_R   0.736843 0.883640 0.488382 -0.070197
C50   C     C_R   0.974622 0.857622 0.544810 0.128348
C51   C     C_R   0.943361 0.772023 0.535638 0.068615
C52   C     C_R   0.701344 0.799611 0.481217 -0.001750
C53   C     C_3   0.740638 0.272790 0.300214 0.465022
C54   C     C_3   0.731205 0.276139 0.233249 -0.350192
C55   C     C_3   0.138435 0.720770 0.692724 0.362076
C56   C     C_3   0.220738 0.803026 0.723639 -0.034025
H1    H     H_    0.086368 0.766448 0.415470 0.029523
H2    H     H_    0.646755 0.831173 0.708705 0.138358
H3    H     H_    0.776892 0.831346 0.647235 0.100692
H4    H     H_    0.844928 0.304681 0.322258 0.022626
H5    H     H_    0.604989 0.290776 0.221607 0.158859
H6    H     H_    0.780803 0.214022 0.199223 0.103646
H7    H     H_    0.804500 0.325187 0.226710 0.059587
H8    H     H_    0.229241 0.666912 0.667498 -0.001487
H9    H     H_    0.168792 0.870874 0.372657 0.102581
H10   H     H_    0.330162 0.801195 0.696074 0.099030
H11   H     H_    0.139987 0.860726 0.722340 0.077913
H12   H     H_    0.907095 0.752820 0.370675 -0.107501
H13   H     H_    0.960517 0.902473 0.394301 0.030803
H14   H     H_    0.111314 0.376004 0.329946 -0.005138
H15   H     H_    0.309090 0.319678 0.332655 0.101351
H16   H     H_    0.083695 0.248586 0.228551 0.087064
H17   H     H_    0.524221 0.683702 0.235155 0.117950
H18   H     H_    0.904792 0.263933 0.637705 0.064356
H19   H     H_    0.711076 0.322454 0.661416 0.005060
H20   H     H_    0.158711 0.243430 0.606070 0.039454
H21   H     H_    0.314578 0.218095 0.722829 0.158063
H22   H     H_    0.478585 0.653782 0.331853 0.092928
H23   H     H_    0.154262 0.167568 0.682058 0.130993
H24   H     H_    0.475501 0.319595 0.033759 0.118190
H25   H     H_    0.761221 0.698827 0.072159 0.116035
H26   H     H_    0.968734 0.565976 0.209247 0.124985
H27   H     H_    0.687637 0.695208 0.968445 0.112939
H28   H     H_    0.651841 0.523191 0.754648 0.139306
H29   H     H_    0.535480 0.457967 0.236528 0.125149
H30   H     H_    0.874357 0.518093 0.380109 0.085268
H31   H     H_    0.650816 0.713788 0.339110 -0.058678
H32   H     H_    0.315265 0.494762 0.618088 0.093763
H33   H     H_    0.134967 0.105578 0.408607 0.080774
H34   H     H_    0.426521 0.307475 0.493437 0.083430
H35   H     H_    0.781457 0.678510 0.496497 0.075221
H36   H     H_    0.683935 0.055812 0.530218 0.118061
H37   H     H_    0.574303 0.916388 0.420041 0.109210
H38   H     H_    0.343859 0.748586 0.271912 0.174496
H39   H     H_    0.526885 0.797283 0.274867 0.097782
H40   H     H_    0.753403 0.686809 0.606395 0.034385
H41   H     H_    0.552730 0.714703 0.585929 0.067031
N1    N     N_R   0.462384 0.505776 0.849798 -0.418888
N2    N     N_R   0.696017 0.510446 0.150804 -0.419119
O1    O     O_2   0.414630 0.451750 0.353890 -0.466127
O2    O     O_3   0.021781 0.740633 0.653739 -0.675567
O3    O     O_3   0.438315 0.781367 0.385385 -0.608916
O4    O     O_2   0.775060 0.548280 0.646150 -0.462573
O5    O     O_3   0.534950 0.547420 0.574950 -0.485050
O6    O     O_3   0.073530 0.388570 0.588510 -0.474957
O7    O     O_3   0.574214 0.686913 0.668615 -0.656654
O8    O     O_3   0.168220 0.394330 0.455930 -0.474191
O9    O     O_3   0.678190 0.343400 0.553390 -0.476991
O10   O     O_2   0.872740 0.194260 0.502002 -0.492739
O11   O     O_3   0.716914 0.197947 0.603342 -0.674217
O12   O     O_3   0.654720 0.452660 0.425060 -0.463227
O13   O     O_3   0.021450 0.605740 0.544090 -0.479581
O14   O     O_2   0.953100 0.285520 0.441860 -0.435767
O15   O     O_3   0.117882 0.255567 0.339663 -0.681473
O16   O     O_2   0.895708 0.443428 0.694130 -0.509957
O17   O     O_3   0.129696 0.332395 0.694484 -0.592365
O18   O     O_2   0.565906 0.631911 0.867544 -0.633172
O19   O     O_2   0.370018 0.378258 0.837281 -0.594065
O20   O     O_2   0.620832 0.376391 0.128940 -0.627222
O21   O     O_2   0.770221 0.642939 0.162168 -0.627979
O22   O     O_3   0.116150 0.611500 0.411510 -0.479377
O23   O     O_2   0.263242 0.544834 0.299947 -0.499006
O24   O     O_3   0.597967 0.313311 0.335271 -0.629745
O25   O     O_3   0.123248 0.700160 0.321899 -0.589115
O26   O     O_2   0.236590 0.714510 0.558180 -0.464078
O27   O     O_3   0.511480 0.656670 0.446630 -0.479476
O28   O     O_2   0.371738 0.808452 0.502995 -0.467337
P1    P     P_3+3 0.594550 0.425840 0.359090 0.977179
P2    P     P_3+3 0.065650 0.701630 0.573510 0.972871
P3    P     P_3+3 0.506286 0.764110 0.453803 0.940631
P4    P     P_3+3 0.595130 0.574230 0.640920 0.992313
P5    P     P_3+3 0.706730 0.229912 0.535279 0.922464
P6    P     P_3+3 0.108041 0.600097 0.332358 0.955164
P7    P     P_3+3 0.132272 0.286197 0.420148 0.948848
P8    P     P_3+3 0.072595 0.421929 0.670070 0.959959
C57   C     C_3   0.534425 0.880629 0.639085 -0.485032
H42   H     H_    0.417456 0.855397 0.627476 0.163110
H43   H     H_    0.514708 0.941721 0.677802 0.122542
H44   H     H_    0.581621 0.895290 0.598317 0.135728
N3    N     N_2   0.766742 0.182597 0.297570 -0.422256
H45   H     H_    0.882603 0.154209 0.283991 0.182347
C58   C     C_3   0.697520 0.157154 0.346772 -0.144399
H46   H     H_    0.564148 0.166713 0.346352 0.100434
H47   H     H_    0.735207 0.087847 0.339772 0.067890
H48   H     H_    0.738711 0.195126 0.392057 0.135686
C59   C     C_3   0.044210 0.694244 0.740559 -0.344743
H49   H     H_    0.976691 0.639744 0.716873 0.125414
H50   H     H_    0.125742 0.674910 0.773343 0.060670
H51   H     H_    0.954636 0.748146 0.767009 0.109063
N4    N     N_2   0.261259 0.815455 0.787894 -0.457698
H52   H     H_    0.165958 0.826647 0.819360 0.196982
C60   C     C_3   0.403439 0.765569 0.799786 -0.163036
H53   H     H_    0.413666 0.778374 0.850517 0.133679
H54   H     H_    0.512193 0.784769 0.782056 0.133422
H55   H     H_    0.397106 0.695919 0.777781 0.119691
C61   C     C_3   0.221895 0.345049 0.214845 -0.354390
H56   H     H_    0.124843 0.399031 0.231497 0.080778
H57   H     H_    0.339577 0.369337 0.226762 0.148146
H58   H     H_    0.214979 0.320530 0.163734 0.116778
N5    N     N_2   0.330869 0.205132 0.226137 -0.407937
H59   H     H_    0.339810 0.166337 0.254483 0.212231
C62   C     C_3   0.344961 0.154728 0.161271 -0.234038
H60   H     H_    0.441222 0.100220 0.154404 0.107411
H61   H     H_    0.379550 0.194160 0.132410 0.129579
H62   H     H_    0.229990 0.128427 0.145796 0.097714
N6    N     N_2   0.015317 0.852375 0.298257 -0.401599
H63   H     H_    0.057871 0.903406 0.288127 0.189602
C63   C     C_3   0.852964 0.840726 0.278425 -0.169886
H64   H     H_    0.841582 0.846463 0.231050 0.117184
H65   H     H_    0.765250 0.890418 0.310349 0.071457
H66   H     H_    0.825165 0.775542 0.276554 0.151998
N7    N     N_2   0.860884 0.304297 0.759420 -0.414249
H67   H     H_    0.788747 0.362420 0.772162 0.181250
C64   C     C_3   0.958850 0.291199 0.809221 -0.172340
H68   H     H_    0.896312 0.258925 0.837294 0.064661
H69   H     H_    0.986265 0.354284 0.840418 0.120919
H70   H     H_    0.075241 0.253085 0.790407 0.134107
N8    N     N_2   0.626347 0.231666 0.736963 -0.430922
H71   H     H_    0.551643 0.286732 0.740035 0.199713
C65   C     C_3   0.607031 0.206296 0.792355 -0.180612
H72   H     H_    0.482292 0.191166 0.796235 0.127854
H73   H     H_    0.627699 0.259779 0.834216 0.134876
H74   H     H_    0.688251 0.147976 0.791236 0.088652
N9    N     N_2   0.885834 0.150598 0.705027 -0.425692
H75   H     H_    0.934625 0.140922 0.744258 0.183730
C66   C     C_3   0.825292 0.072371 0.667586 -0.229074
H76   H     H_    0.903080 0.015676 0.672229 0.083711
H77   H     H_    0.829671 0.067889 0.618138 0.154811
H78   H     H_    0.702172 0.067471 0.683165 0.123766
C67   C     C_3   0.375813 0.301636 0.632746 -0.298679
H79   H     H_    0.352105 0.340846 0.601381 0.050918
H80   H     H_    0.432230 0.339720 0.674451 0.071130
H81   H     H_    0.453391 0.246585 0.605963 0.097726
C68   C     C_3   0.380446 0.118301 0.636380 -0.534856
H82   H     H_    0.378158 0.063472 0.654961 0.132013
H83   H     H_    0.504962 0.133816 0.638887 0.202120
H84   H     H_    0.345706 0.100766 0.587380 0.133716
N10   N     N_2   0.354374 0.302958 0.922092 -0.398447
H85   H     H_    0.235596 0.324036 0.917853 0.217626
C69   C     C_3   0.380535 0.218533 0.930144 -0.270780
H86   H     H_    0.326634 0.171683 0.891423 0.109193
H87   H     H_    0.321483 0.219088 0.974220 0.101218
H88   H     H_    0.511382 0.197294 0.929452 0.113162
N11   N     N_2   0.131938 0.504218 0.818871 -0.395628
H89   H     H_    0.032837 0.474885 0.800613 0.223843
C70   C     C_3   0.086450 0.584976 0.866741 -0.266821
H90   H     H_    0.020949 0.572619 0.905241 0.120056
H91   H     H_    0.004912 0.628308 0.848151 0.110826
H92   H     H_    0.193446 0.617147 0.885686 0.125147
N12   N     N_2   0.108881 0.890139 0.578389 -0.392064
H93   H     H_    0.112346 0.889125 0.623539 0.169739
C71   C     C_3   0.173184 0.961691 0.565764 -0.171070
H94   H     H_    0.302425 0.958479 0.575353 0.127224
H95   H     H_    0.109754 0.023481 0.595091 0.092982
H96   H     H_    0.164157 0.957678 0.516074 0.118785

loop_
_geom_bond_atom_site_label_1
_geom_bond_atom_site_label_2
_ccdc_geom_bond_type
C53   C54   S    
Ba2   O8    S    
C21   H24   S    
C34   O7    S    
C26   N11   S    
O13   P2    S    
C17   C18   A    
C59   H51   S    
C55   H8    S    
C71   H96   S    
C2    H12   S    
C5    C6    S    
C43   C44   S    
C50   C51   A    
C50   N12   S    
C10   C11   A    
C69   H87   S    
C66   H78   S    
C20   N10   S    
C26   C27   S    
C33   C35   A    
C22   C24   A    
Ba1   Ba2   S    
C36   N2    S    
C68   H84   S    
C24   N2    Am   
C28   C29   D    
Ba2   O12   S    
C71   H95   S    
C14   C15   A    
O14   P7    D    
C54   H7    S    
O26   P2    D    
C53   H4    S    
Ba2   O6    S    
Ba2   O9    S    
C5    O11   S    
C45   C57   S    
C34   C45   S    
C66   H77   S    
C16   C17   A    
C40   C44   S    
N7    H67   S    
C61   H58   S    
Ba1   O8    S    
C45   H2    S    
C65   H72   S    
N6    H63   S    
O24   P1    S    
C38   C41   S    
C39   H35   S    
C4    N5    S    
C40   C41   D    
N8    C65   S    
N10   H85   S    
C47   C49   S    
C69   H88   S    
C10   C15   A    
C48   C50   A    
C21   C22   A    
C54   H6    S    
C51   P2    S    
C24   O20   D    
C12   H22   S    
O17   P8    S    
C7    C8    S    
C13   N1    Am   
C37   H32   S    
C60   H54   S    
Ba1   O5    S    
C5    H19   S    
O28   P3    D    
N6    C63   S    
C53   N3    S    
O8    P7    S    
C61   H57   S    
C7    O17   S    
C55   C59   S    
Ba1   O12   S    
C58   H48   S    
C17   H25   S    
O27   P3    S    
C20   C21   A    
C11   O18   D    
C25   O21   D    
C56   N4    S    
C1    N6    S    
C4    H16   S    
N5    C62   S    
C64   H70   S    
C42   P5    S    
C55   O2    S    
O16   P8    D    
Ba2   P4    S    
O12   P1    S    
C16   H27   S    
C67   H81   S    
C53   O24   S    
C26   C30   D    
C59   H49   S    
C60   H55   S    
C68   H83   S    
Ba1   P1    S    
C69   H86   S    
O11   P5    S    
C56   H11   S    
C71   H94   S    
C70   H90   S    
C6    N9    S    
Ba2   O5    S    
C15   C19   A    
C30   N1    S    
O22   P6    S    
C66   H76   S    
C23   H17   S    
C65   H74   S    
C67   H80   S    
O6    P8    S    
C1    H13   S    
Ba1   O22   S    
C12   H31   S    
C45   H3    S    
C35   C36   A    
C8    C68   S    
C58   H47   S    
Ba2   O14   S    
C6    N8    S    
C12   O3    S    
C29   C30   S    
C9    H30   S    
C28   P4    S    
C27   C37   S    
C31   C32   A    
C54   H5    S    
C48   C49   A    
C47   H37   S    
C33   P1    S    
C39   C51   A    
C60   H53   S    
C57   H43   S    
Ba1   O27   S    
C56   H10   S    
C64   H68   S    
N4    C60   S    
O25   P6    S    
C46   H36   S    
C3    O15   S    
O3    P3    S    
C61   H56   S    
N3    C58   S    
O9    P5    S    
Ba1   O13   S    
N9    C66   S    
C1    C2    S    
C7    C67   S    
C27   P8    S    
N8    H71   S    
O4    P4    D    
N5    H59   S    
C43   C46   S    
C23   H39   S    
C62   H60   S    
C14   C20   A    
Ba2   O4    S    
O23   P6    D    
C18   C19   A    
N11   H89   S    
C35   H29   S    
C9    C32   A    
C1    H9    S    
C42   C43   S    
Ba1   O26   S    
C59   H50   S    
C68   H82   S    
Ba1   P2    S    
C57   H44   S    
C4    C61   S    
C8    H21   S    
O10   P5    D    
C5    H18   S    
O15   P7    S    
C18   C25   A    
C3    H14   S    
C52   P3    S    
C8    H23   S    
C13   O19   D    
C31   C36   A    
C2    O25   S    
C58   H46   S    
C49   C52   A    
C67   H79   S    
O5    P4    S    
C11   N1    Am   
C62   H61   S    
O7    P4    S    
Ba2   O13   S    
C55   C56   S    
C3    C4    S    
C63   H65   S    
C32   P6    S    
C70   H92   S    
C46   C47   D    
C13   C14   A    
C2    H1    S    
C9    C33   A    
N7    C64   S    
C25   N2    Am   
C28   C37   D    
C34   H41   S    
C6    N7    S    
C7    H20   S    
C62   H62   S    
C12   C23   S    
C3    H15   S    
C41   P7    S    
C31   H26   S    
C65   H73   S    
C39   C52   A    
C38   H34   S    
C57   H42   S    
N12   C71   S    
C38   C42   D    
N12   H93   S    
C23   H38   S    
C70   H91   S    
C63   H64   S    
C19   C22   A    
C10   C16   A    
C29   H28   S    
N3    H45   S    
C34   H40   S    
N4    H52   S    
N9    H75   S    
N11   C70   S    
O2    P2    S    
Ba1   O1    S    
N10   C69   S    
C40   H33   S    
C64   H69   S    
C63   H66   S    
O1    P1    D    
