data_mof_unit_36901.cif
_audit_creation_date              2012-12-11T14:38:31-0500
_audit_creation_method            fapswitch 2.2
_symmetry_space_group_name_H-M    P1
_symmetry_Int_Tables_number       1
_space_group_crystal_system       triclinic
_cell_length_a                    19.453086
_cell_length_b                    11.155845
_cell_length_c                    19.648835
_cell_angle_alpha                 89.952919
_cell_angle_beta                  96.632103
_cell_angle_gamma                 89.975063
_cell_volume                      4235.56743504

loop_
_atom_site_label
_atom_site_type_symbol
_atom_type_description
_atom_site_fract_x
_atom_site_fract_y
_atom_site_fract_z
_atom_type_partial_charge
C1    C     C_R   0.724653 0.954406 0.360621 0.580195
C2    C     C_3   0.176287 0.473731 0.467358 -0.213443
C3    C     C_3   0.316883 0.971978 0.526266 -0.233596
C4    C     C_3   0.676592 0.983094 0.469220 -0.216409
C5    C     C_3   0.763150 0.291634 0.554027 0.213070
C6    C     C_3   0.237832 0.283515 0.445382 0.213050
C7    C     C_3   0.263492 0.781454 0.561247 0.222143
C8    C     C_3   0.736935 0.791580 0.446126 0.212881
C9    C     C_3   0.762593 0.426623 0.566702 0.073624
C10   C     C_3   0.238342 0.419229 0.431932 0.074727
C11   C     C_3   0.260015 0.917979 0.568224 0.070015
C12   C     C_R   0.275476 0.954461 0.639401 0.576791
C13   C     C_3   0.737427 0.926548 0.433279 0.073919
C14   C     C_3   0.746524 0.390615 0.435402 0.003840
C15   C     C_3   0.253673 0.386305 0.563664 0.008206
C16   C     C_3   0.237454 0.861295 0.439371 0.002155
C17   C     C_3   0.753465 0.890714 0.564606 0.003865
C18   C     C_3   0.806205 0.479298 0.452500 -0.273813
C19   C     C_3   0.192662 0.471759 0.545419 -0.274569
C20   C     C_3   0.292594 0.962056 0.449318 -0.251631
C21   C     C_3   0.693759 0.979444 0.547375 -0.274136
C22   C     C_3   0.765942 0.274191 0.477145 -0.179538
C23   C     C_R   0.225626 0.451036 0.359532 0.583410
C24   C     C_3   0.235796 0.267863 0.523040 -0.178751
C25   C     C_3   0.265198 0.754466 0.485012 -0.201627
C26   C     C_3   0.734084 0.774262 0.523013 -0.179335
C27   C     C_3   0.555123 0.229737 0.953221 -0.245481
C28   C     C_3   0.571993 0.230124 0.031110 -0.221420
C29   C     C_3   0.967390 0.801107 0.965788 -0.227992
C30   C     C_3   0.983761 0.800965 0.042344 -0.231440
C31   C     C_3   0.427733 0.242170 0.969302 -0.221203
C32   C     C_3   0.502983 0.040684 0.040257 -0.235147
C33   C     C_3   0.932658 0.583434 0.969179 -0.222989
C34   C     C_R   0.775371 0.454493 0.639351 0.580693
C35   C     C_3   0.072645 0.636782 0.031684 -0.222325
C36   C     C_3   0.485611 0.040836 0.961868 -0.233391
C37   C     C_3   0.444588 0.241133 0.047350 -0.246039
C38   C     C_3   0.055936 0.639488 0.953546 -0.244696
C39   C     C_3   0.949619 0.584212 0.048107 -0.245889
C40   C     C_R   0.536128 0.180362 0.338562 0.535969
C41   C     C_R   0.463785 0.180398 0.661382 0.533909
C42   C     C_R   0.036023 0.680330 0.338501 0.528640
C43   C     C_R   0.963807 0.680397 0.661386 0.533960
C44   C     C_3   0.483744 0.171946 0.934431 0.050927
C45   C     C_3   0.678835 0.442171 0.458208 -0.249743
C46   C     C_3   0.512545 0.171745 0.066614 0.053491
C47   C     C_3   0.979732 0.674712 0.935714 0.048296
C48   C     C_3   0.008699 0.674467 0.067766 0.057355
C49   C     C_1   0.757476 0.414064 0.900778 -0.012674
C50   C     C_1   0.221356 0.470750 0.086101 -0.022535
C51   C     C_1   0.257158 0.913257 0.900589 -0.011837
C52   C     C_1   0.742955 0.913092 0.099441 -0.011688
C53   C     C_1   0.736331 0.365336 0.026982 -0.051856
C54   C     C_1   0.242780 0.432616 0.958954 -0.047122
C55   C     C_1   0.235489 0.863603 0.026625 -0.048403
C56   C     C_3   0.320838 0.439855 0.540944 -0.253322
C57   C     C_1   0.764665 0.862378 0.973507 -0.053705
C58   C     C_1   0.745867 0.389530 0.958128 -0.046688
C59   C     C_1   0.231945 0.454161 0.027628 -0.048906
C60   C     C_1   0.245249 0.888122 0.957804 -0.046050
C61   C     C_1   0.754903 0.887487 0.042291 -0.047222
C62   C     C_1   0.729926 0.343880 0.086099 -0.021537
C63   C     C_1   0.251768 0.406503 0.901168 -0.013999
C64   C     C_1   0.229238 0.842451 0.085839 -0.019468
C65   C     C_1   0.770920 0.841147 0.914286 -0.023218
C66   C     C_R   0.738567 0.359227 0.362423 0.563583
C67   C     C_3   0.169494 0.907499 0.464316 -0.254248
C68   C     C_R   0.261663 0.357881 0.637121 0.556394
C69   C     C_R   0.226690 0.819295 0.368016 0.556130
C70   C     C_R   0.761407 0.859329 0.637601 0.564062
C71   C     C_R   0.722870 0.952678 0.163875 0.538385
C72   C     C_R   0.277125 0.952586 0.836088 0.542051
C73   C     C_R   0.206212 0.494659 0.154497 0.531832
C74   C     C_R   0.777158 0.452672 0.836095 0.536927
C75   C     C_R   0.533259 0.178973 0.140506 0.532154
C76   C     C_R   0.464606 0.179118 0.860346 0.539009
C77   C     C_R   0.031308 0.679392 0.141408 0.525261
C78   C     C_3   0.821149 0.942185 0.541763 -0.250120
C79   C     C_R   0.961977 0.679919 0.861321 0.531281
C80   C     C_R   0.722952 0.312687 0.155889 0.550009
C81   C     C_R   0.263161 0.360509 0.835340 0.546853
C82   C     C_R   0.222764 0.812198 0.155916 0.538367
C83   C     C_R   0.777346 0.811659 0.844068 0.549303
C84   C     C_1   0.485158 0.172983 0.594236 -0.021780
C85   C     C_1   0.514586 0.172887 0.405641 -0.021715
C86   C     C_1   0.985131 0.672977 0.594204 -0.025936
C87   C     C_1   0.014299 0.672734 0.405515 -0.025521
C88   C     C_1   0.504217 0.169753 0.464837 -0.065831
C89   C     C_3   0.823392 0.483053 0.530650 -0.216458
C90   C     C_1   0.495452 0.169797 0.535023 -0.065905
C91   C     C_1   0.003918 0.669556 0.464716 -0.067541
C92   C     C_1   0.995301 0.669705 0.534948 -0.067153
C93   C     C_3   0.689759 0.470290 0.534931 -0.287649
C94   C     C_3   0.311385 0.461855 0.463645 -0.292720
C95   C     C_3   0.185319 0.954869 0.537872 -0.284852
C96   C     C_3   0.810240 0.970207 0.465007 -0.287786
Cr1   Cr    Cr6+3 0.765780 0.160710 0.267420 1.018671
Cr2   Cr    Cr6+3 0.383970 0.323720 0.751490 1.039167
Cr3   Cr    Cr6+3 0.116030 0.823720 0.248510 1.037801
Cr4   Cr    Cr6+3 0.883970 0.823720 0.751490 1.035624
Cr5   Cr    Cr6+3 0.234220 0.160710 0.732580 1.022618
Cr6   Cr    Cr6+3 0.265780 0.660710 0.267420 1.019531
Cr7   Cr    Cr6+3 0.734220 0.660710 0.732580 1.018495
Cr8   Cr    Cr6+3 0.612200 0.009560 0.248850 1.048045
Cr9   Cr    Cr6+3 0.387800 0.009560 0.751150 1.054251
Cr10  Cr    Cr6+3 0.112200 0.509560 0.248850 1.041594
Cr11  Cr    Cr6+3 0.887800 0.509560 0.751150 1.045135
Cr12  Cr    Cr6+3 0.616030 0.323720 0.248510 1.038842
F1    F     F_    0.819293 0.235329 0.590635 -0.660502
F2    F     F_    0.181051 0.227369 0.409697 -0.650875
F3    F     F_    0.321492 0.731946 0.598540 -0.654443
F4    F     F_    0.680850 0.735264 0.409548 -0.660446
H1    H     H_    0.682195 0.565557 0.543429 0.158010
H2    H     H_    0.129757 0.416307 0.454377 0.194650
H3    H     H_    0.365143 0.918024 0.537078 0.186338
H4    H     H_    0.629111 0.928152 0.455967 0.190185
H5    H     H_    0.853063 0.451761 0.428791 0.135100
H6    H     H_    0.145971 0.442053 0.568731 0.136023
H7    H     H_    0.338294 0.943443 0.421777 0.150753
H8    H     H_    0.646904 0.952007 0.571119 0.135211
H9    H     H_    0.555549 0.323482 0.933755 0.142971
H10   H     H_    0.621051 0.179907 0.045262 0.105850
H11   H     H_    0.912686 0.829231 0.952370 0.135086
H12   H     H_    0.322187 0.555262 0.452025 0.151901
H13   H     H_    0.024500 0.870147 0.055319 0.156655
H14   H     H_    0.595444 0.178808 0.929499 0.122505
H15   H     H_    0.580663 0.324577 0.048209 0.147238
H16   H     H_    0.000794 0.869413 0.944297 0.148615
H17   H     H_    0.937206 0.828051 0.066747 0.131369
H18   H     H_    0.424590 0.337144 0.951741 0.150908
H19   H     H_    0.551262 0.988022 0.053846 0.150563
H20   H     H_    0.877179 0.606912 0.955278 0.110359
H21   H     H_    0.117079 0.697142 0.047051 0.101907
H22   H     H_    0.449339 0.335114 0.066329 0.146788
H23   H     H_    0.179389 0.052452 0.537808 0.159288
H24   H     H_    0.524996 0.987677 0.938108 0.133379
H25   H     H_    0.902883 0.609978 0.072448 0.124002
H26   H     H_    0.090127 0.705330 0.931298 0.126484
H27   H     H_    0.434476 0.996848 0.948434 0.148271
H28   H     H_    0.401650 0.198132 0.071263 0.125383
H29   H     H_    0.065856 0.549801 0.931847 0.129940
H30   H     H_    0.965290 0.492723 0.066441 0.139768
H31   H     H_    0.460780 0.995996 0.064467 0.131578
H32   H     H_    0.375803 0.201393 0.955070 0.118025
H33   H     H_    0.088496 0.544239 0.047475 0.131977
H34   H     H_    0.817767 0.065463 0.456368 0.157889
H35   H     H_    0.940536 0.491321 0.949804 0.149845
H36   H     H_    0.648610 0.425263 0.560617 0.112268
H37   H     H_    0.352019 0.411451 0.440022 0.111936
H38   H     H_    0.146438 0.918588 0.569840 0.117990
H39   H     H_    0.851418 0.925115 0.439399 0.112568
H40   H     H_    0.636374 0.375275 0.448284 0.135143
H41   H     H_    0.364671 0.376380 0.553609 0.140499
H42   H     H_    0.131221 0.833224 0.463032 0.116170
H43   H     H_    0.863636 0.875271 0.551794 0.135669
H44   H     H_    0.662519 0.524073 0.428694 0.225561
H45   H     H_    0.820125 0.250902 0.469681 0.174862
H46   H     H_    0.334533 0.524694 0.568425 0.223248
H47   H     H_    0.146120 0.980777 0.430817 0.209403
H48   H     H_    0.837414 0.024123 0.571163 0.225281
H49   H     H_    0.336084 0.061644 0.541166 0.089857
H50   H     H_    0.659269 0.072443 0.450600 0.092732
H51   H     H_    0.840711 0.572404 0.549108 0.093189
H52   H     H_    0.156637 0.561484 0.447415 0.090569
H53   H     H_    0.269543 0.046993 0.429066 0.181097
H54   H     H_    0.709306 0.067550 0.568135 0.151147
H55   H     H_    0.790629 0.567383 0.431588 0.151580
H56   H     H_    0.182345 0.241384 0.531335 0.175016
H57   H     H_    0.205971 0.560683 0.565894 0.138478
H58   H     H_    0.714999 0.253520 0.570017 0.103683
H59   H     H_    0.285432 0.242052 0.429546 0.107255
H60   H     H_    0.216867 0.743719 0.580665 0.107224
H61   H     H_    0.785137 0.753414 0.430263 0.103710
H62   H     H_    0.731932 0.201790 0.457920 0.086708
H63   H     H_    0.270814 0.198092 0.543704 0.083384
H64   H     H_    0.235776 0.675039 0.471386 0.078569
H65   H     H_    0.768059 0.701811 0.542400 0.086961
H66   H     H_    0.319878 0.738463 0.476228 0.170565
H67   H     H_    0.679885 0.751105 0.530463 0.174990
H68   H     H_    0.870893 0.428083 0.543973 0.189905
O1    O     O_R   0.783100 0.287550 0.345460 -0.528204
O2    O     O_R   0.454350 0.284910 0.836260 -0.522883
O3    O     O_R   0.045650 0.784910 0.163740 -0.530841
O4    O     O_R   0.954350 0.784910 0.836260 -0.531056
O5    O     O_R   0.677950 0.374280 0.185410 -0.484800
O6    O     O_R   0.322050 0.374280 0.814590 -0.495145
O7    O     O_R   0.177950 0.874280 0.185410 -0.472794
O8    O     O_R   0.822050 0.874280 0.814590 -0.486223
O9    O     O_3   0.664670 0.164660 0.254930 -0.291650
O10   O     O_3   0.335330 0.164660 0.745070 -0.273457
O11   O     O_3   0.164670 0.664660 0.254930 -0.321354
O12   O     O_R   0.216900 0.287550 0.654540 -0.532643
O13   O     O_3   0.835330 0.664660 0.745070 -0.293143
O14   O     O_R   0.760020 0.037400 0.337700 -0.533948
O15   O     O_R   0.239980 0.037400 0.662300 -0.534929
O16   O     O_R   0.260020 0.537400 0.337700 -0.537628
O17   O     O_R   0.739980 0.537400 0.662300 -0.533565
O18   O     O_R   0.666600 0.921990 0.332020 -0.439716
O19   O     O_R   0.333400 0.921990 0.667980 -0.434960
O20   O     O_R   0.166600 0.421990 0.332020 -0.441532
O21   O     O_R   0.833400 0.421990 0.667980 -0.439728
O22   O     O_R   0.557260 0.082670 0.312540 -0.496082
O23   O     O_R   0.283100 0.787550 0.345460 -0.518722
O24   O     O_R   0.442740 0.082670 0.687460 -0.496095
O25   O     O_R   0.057260 0.582670 0.312540 -0.497512
O26   O     O_R   0.942740 0.582670 0.687460 -0.496318
O27   O     O_R   0.548410 0.285740 0.316480 -0.506867
O28   O     O_R   0.451590 0.285740 0.683520 -0.508117
O29   O     O_R   0.048410 0.785740 0.316480 -0.511727
O30   O     O_R   0.951590 0.785740 0.683520 -0.506909
O31   O     O_R   0.680500 0.375040 0.327000 -0.485309
O32   O     O_R   0.319500 0.375040 0.673000 -0.487886
O33   O     O_R   0.180500 0.875040 0.327000 -0.470729
O34   O     O_R   0.716900 0.787550 0.654540 -0.528029
O35   O     O_R   0.819500 0.875040 0.673000 -0.484806
O36   O     O_R   0.780350 0.286720 0.192720 -0.497027
O37   O     O_R   0.219650 0.286720 0.807280 -0.505193
O38   O     O_R   0.280350 0.786720 0.192720 -0.494574
O39   O     O_R   0.719650 0.786720 0.807280 -0.495724
O40   O     O_R   0.757470 0.036630 0.196110 -0.511601
O41   O     O_R   0.242530 0.036630 0.803890 -0.496311
O42   O     O_R   0.257470 0.536630 0.196110 -0.499499
O43   O     O_R   0.742530 0.536630 0.803890 -0.511742
O44   O     O_R   0.663840 0.921160 0.179280 -0.504602
O45   O     O_R   0.554710 0.081900 0.170950 -0.510141
O46   O     O_R   0.336160 0.921160 0.820720 -0.508113
O47   O     O_R   0.163840 0.421160 0.179280 -0.488169
O48   O     O_R   0.836160 0.421160 0.820720 -0.505480
O49   O     O_R   0.445290 0.081900 0.829050 -0.509427
O50   O     O_R   0.054710 0.581900 0.170950 -0.521946
O51   O     O_R   0.945290 0.581900 0.829050 -0.509306
O52   O     O_R   0.545650 0.284910 0.163740 -0.528062

loop_
_geom_bond_atom_site_label_1
_geom_bond_atom_site_label_2
_ccdc_geom_bond_type
Cr1   O14   S    
Cr7   O34   S    
C39   H25   S    
Cr4   O35   S    
C8    C13   S    
C87   C91   T    
C8    C26   S    
C14   C18   S    
C95   H38   S    
C1    O18   A    
C34   O17   A    
C47   C79   S    
Cr2   O10   S    
Cr5   O12   S    
C45   C93   S    
C35   H21   S    
Cr10  O25   S    
Cr3   O7    S    
C27   H9    S    
Cr8   O45   S    
C80   O36   A    
C26   H67   S    
C94   H37   S    
C15   C19   S    
C20   H53   S    
C28   C46   S    
C77   O50   A    
C33   C39   S    
C23   O20   A    
C73   O42   A    
C63   C81   S    
C67   H42   S    
C17   C26   S    
C32   C36   S    
C30   C48   S    
C24   H56   S    
Cr11  O21   S    
C21   H8    S    
Cr11  O51   S    
C52   C61   T    
C8    F4    S    
C35   H33   S    
C27   H14   S    
C28   H10   S    
C78   H43   S    
C65   C83   S    
C89   H51   S    
C54   C63   T    
C10   C94   S    
C34   O21   A    
C45   H44   S    
Cr6   O38   S    
C4    C13   S    
C79   O4    A    
C93   H36   S    
Cr7   O17   S    
C89   H68   S    
C31   H32   S    
C44   C76   S    
C43   O30   A    
C32   H31   S    
C56   H46   S    
C33   H35   S    
Cr7   O43   S    
C27   C44   S    
C5    C22   S    
C19   H6    S    
C78   C96   S    
Cr11  O26   S    
C37   H28   S    
C23   O16   A    
C64   C82   S    
Cr4   O4    S    
C74   O48   A    
C5    H58   S    
Cr3   O3    S    
C28   H15   S    
C50   C59   T    
C54   C59   S    
C27   C28   S    
Cr1   O9    S    
C30   H13   S    
C6    C24   S    
C17   C70   S    
C72   O46   A    
C7    H60   S    
Cr11  O48   S    
C43   O26   A    
C67   C95   S    
C6    F2    S    
Cr2   O28   S    
C84   C90   T    
Cr10  O11   S    
Cr12  O27   S    
C76   O2    A    
C35   C48   S    
C36   H24   S    
C46   C75   S    
C22   H62   S    
C7    C11   S    
C14   C45   S    
C6    H59   S    
C14   C66   S    
C31   C44   S    
C13   C96   S    
C70   O34   A    
Cr12  O5    S    
C75   O45   A    
C35   C38   S    
C69   O33   A    
Cr5   O10   S    
C50   C73   S    
C2    H52   S    
C91   C92   S    
C73   O47   A    
C3    H49   S    
C8    H61   S    
Cr9   O24   S    
Cr3   O33   S    
Cr4   O13   S    
C41   C84   S    
Cr2   O32   S    
C74   O43   A    
Cr1   O36   S    
C17   C21   S    
C21   H54   S    
C31   C37   S    
Cr6   O16   S    
Cr9   O49   S    
C40   C85   S    
Cr2   O2    S    
C56   C94   S    
Cr6   O23   S    
C3    H3    S    
C5    C9    S    
C29   C30   S    
C29   C47   S    
C83   O39   A    
C53   C62   T    
C82   O38   A    
C39   H30   S    
C16   C20   S    
C81   O37   A    
C55   C64   T    
C48   C77   S    
C95   H23   S    
Cr6   O11   S    
C38   H26   S    
Cr1   O40   S    
C3    C20   S    
C16   C67   S    
C93   H1    S    
Cr9   O46   S    
C41   O24   A    
C57   C61   S    
C18   H5    S    
C79   O51   A    
C38   C47   S    
C42   O29   A    
C33   H20   S    
C78   H48   S    
C15   C24   S    
C66   O1    A    
C88   C90   S    
C62   C80   S    
C2    H2    S    
C9    C34   S    
C33   C47   S    
C12   O15   A    
C4    H50   S    
Cr12  O9    S    
C36   C44   S    
C1    C13   S    
C51   C72   S    
C70   O35   A    
Cr10  O47   S    
C9    C89   S    
C2    C10   S    
C9    C93   S    
C81   O6    A    
Cr11  O13   S    
Cr12  O31   S    
C42   O25   A    
Cr6   O42   S    
C18   C89   S    
Cr10  O20   S    
Cr3   O29   S    
C26   H65   S    
C11   C95   S    
C16   C25   S    
C94   H12   S    
C25   H66   S    
C71   O44   A    
Cr4   O8    S    
C2    C19   S    
C49   C74   S    
C43   C86   S    
C32   C46   S    
Cr9   O10   S    
C4    H4    S    
C16   C69   S    
C19   H57   S    
C40   O22   A    
C56   H41   S    
Cr12  O52   S    
C18   H55   S    
C6    C10   S    
C53   C58   S    
Cr10  O50   S    
Cr1   O1    S    
C51   C60   T    
C22   H45   S    
C10   C23   S    
C31   H18   S    
C30   H17   S    
C96   H34   S    
C15   C68   S    
C7    C25   S    
C82   O7    A    
C80   O5    A    
C15   C56   S    
C45   H40   S    
C41   O28   A    
C1    O14   A    
C66   O31   A    
Cr5   O15   S    
Cr2   O6    S    
C52   C71   S    
C86   C92   T    
Cr3   O11   S    
C4    C21   S    
C96   H39   S    
C25   H64   S    
C14   C22   S    
C5    F1    S    
C72   O41   A    
C29   H11   S    
Cr4   O30   S    
C17   C78   S    
C38   H29   S    
C12   O19   A    
C7    F3    S    
C85   C88   T    
C32   H19   S    
Cr5   O41   S    
C75   O52   A    
C83   O8    A    
C36   H27   S    
Cr8   O18   S    
C40   O27   A    
C3    C11   S    
C49   C58   T    
Cr5   O37   S    
Cr9   O19   S    
C71   O40   A    
C69   O23   A    
C29   H16   S    
Cr7   O39   S    
C76   O49   A    
C68   O12   A    
C37   H22   S    
C67   H47   S    
C42   C87   S    
Cr7   O13   S    
C37   C46   S    
C55   C60   S    
C24   H63   S    
Cr8   O9    S    
Cr8   O44   S    
C20   H7    S    
C77   O3    A    
C11   C12   S    
Cr8   O22   S    
C39   C48   S    
C57   C65   T    
C68   O32   A    
