data_mof_unit_19087.cif
_audit_creation_date              2012-12-11T15:17:36-0500
_audit_creation_method            fapswitch 2.2
_symmetry_space_group_name_H-M    P1
_symmetry_Int_Tables_number       1
_space_group_crystal_system       triclinic
_cell_length_a                    6.909005
_cell_length_b                    20.107943
_cell_length_c                    22.534459
_cell_angle_alpha                 89.999843
_cell_angle_beta                  89.999426
_cell_angle_gamma                 89.155018
_cell_volume                      3130.27907687

loop_
_atom_site_label
_atom_site_type_symbol
_atom_type_description
_atom_site_fract_x
_atom_site_fract_y
_atom_site_fract_z
_atom_type_partial_charge
O1    O     O_R   0.620180 0.810610 0.187990 -0.538713
O2    O     O_R   0.379820 0.189390 0.812010 -0.527304
O3    O     O_R   0.379820 0.189390 0.687990 -0.538705
O4    O     O_R   0.620180 0.810610 0.312010 -0.527305
O5    O     O_R   0.120180 0.689390 0.312010 -0.546615
O6    O     O_R   0.879820 0.310610 0.687990 -0.561161
O7    O     O_R   0.879820 0.310610 0.812010 -0.546622
O8    O     O_R   0.120180 0.689390 0.187990 -0.561151
O9    O     O_R   0.290420 0.818570 0.311590 -0.545386
O10   O     O_R   0.709580 0.181430 0.688410 -0.560350
O11   O     O_R   0.709580 0.181430 0.811590 -0.545363
O12   O     O_R   0.290420 0.818570 0.188410 -0.560355
O13   O     O_R   0.790420 0.681430 0.188410 -0.540174
O14   O     O_R   0.209580 0.318570 0.811590 -0.519185
O15   O     O_R   0.209580 0.318570 0.688410 -0.540175
O16   O     O_R   0.790420 0.681430 0.311590 -0.519179
H1    H     H_    0.567212 0.519163 0.586575 0.172857
H2    H     H_    0.423830 0.474869 0.409369 0.184181
H3    H     H_    0.432779 0.480827 0.086576 0.172849
H4    H     H_    0.576177 0.525136 0.909369 0.184183
H5    H     H_    0.939856 0.963513 0.919901 0.182913
H6    H     H_    0.053404 0.031810 0.076879 0.169394
H7    H     H_    0.060137 0.036498 0.419900 0.182936
H8    H     H_    0.946511 0.968176 0.576887 0.169413
C1    C     C_R   0.458303 0.836114 0.331211 0.704236
C2    C     C_R   0.541933 0.164071 0.668552 0.691428
C3    C     C_R   0.541695 0.163886 0.831211 0.704261
C4    C     C_R   0.458068 0.835930 0.168553 0.691418
C5    C     C_R   0.961369 0.663741 0.169002 0.687282
C6    C     C_R   0.038904 0.336141 0.831002 0.701903
C7    C     C_R   0.038632 0.336260 0.669003 0.687256
C8    C     C_R   0.961095 0.663859 0.331002 0.701913
H9    H     H_    0.558318 0.595833 0.504515 0.140804
H10   H     H_    0.438325 0.401724 0.493526 0.130692
H11   H     H_    0.441672 0.404157 0.004516 0.140796
H12   H     H_    0.561679 0.598278 0.993527 0.130688
H13   H     H_    0.914774 0.890002 0.003479 0.126353
H14   H     H_    0.084315 0.108723 0.995473 0.138240
H15   H     H_    0.085244 0.110012 0.503471 0.126345
H16   H     H_    0.915631 0.891274 0.495475 0.138241
H17   H     H_    0.298241 0.356732 0.583210 0.117390
H18   H     H_    0.704336 0.644205 0.417483 0.147570
H19   H     H_    0.701749 0.643262 0.083214 0.117376
H20   H     H_    0.295661 0.355793 0.917482 0.147567
H21   H     H_    0.263045 0.152520 0.912496 0.139158
H22   H     H_    0.740353 0.848496 0.088380 0.119497
H23   H     H_    0.736930 0.847478 0.412498 0.139137
H24   H     H_    0.259717 0.151526 0.588362 0.119505
O17   O     O_3   0.453640 0.707610 0.250000 -0.369175
O18   O     O_3   0.546360 0.292390 0.750000 -0.369199
O19   O     O_3   0.953640 0.792390 0.250000 -0.366212
O20   O     O_3   0.046360 0.207610 0.750000 -0.366187
V1    V     V_3+5 0.178800 0.757860 0.250000 1.425685
V2    V     V_3+5 0.821200 0.242140 0.750000 1.425711
V3    V     V_3+5 0.678800 0.742140 0.250000 1.472864
V4    V     V_3+5 0.321200 0.257860 0.750000 1.472855
C9    C     C_R   0.174684 0.390340 0.579135 -0.215244
C10   C     C_R   0.827481 0.610381 0.421259 -0.134536
C11   C     C_R   0.825311 0.609657 0.079137 -0.215242
C12   C     C_R   0.172516 0.389618 0.921259 -0.134535
C13   C     C_R   0.376647 0.115372 0.918790 -0.125687
C14   C     C_R   0.626437 0.885476 0.081859 -0.215561
C15   C     C_R   0.623336 0.884627 0.418791 -0.125680
C16   C     C_R   0.373597 0.114535 0.581850 -0.215567
C17   C     C_R   0.023559 0.386995 0.620652 -0.135625
C18   C     C_R   0.975960 0.612830 0.378999 -0.151147
C19   C     C_R   0.976443 0.613007 0.120650 -0.135613
C20   C     C_R   0.024038 0.387170 0.878999 -0.151148
C21   C     C_R   0.534618 0.113169 0.879668 -0.159951
C22   C     C_R   0.464961 0.886396 0.119810 -0.138734
C23   C     C_R   0.465376 0.886832 0.379668 -0.159954
C24   C     C_R   0.535042 0.113606 0.619808 -0.138763
C25   C     C_R   0.861742 0.431464 0.614830 -0.051209
C26   C     C_R   0.138828 0.568917 0.384564 -0.085266
C27   C     C_R   0.138272 0.568543 0.114822 -0.051225
C28   C     C_R   0.861172 0.431084 0.884563 -0.085249
C29   C     C_R   0.683667 0.064377 0.888444 -0.077107
C30   C     C_R   0.316211 0.935279 0.110579 -0.053553
C31   C     C_R   0.316326 0.935624 0.388443 -0.077124
C32   C     C_R   0.683757 0.064717 0.610581 -0.053537
C33   C     C_R   0.852755 0.476849 0.566375 0.067949
C34   C     C_R   0.150636 0.524066 0.433587 0.069371
C35   C     C_R   0.147248 0.523152 0.066372 0.067912
C36   C     C_R   0.849365 0.475935 0.933587 0.069366
C37   C     C_R   0.672869 0.019791 0.937625 0.069544
C38   C     C_R   0.331102 0.981057 0.062617 0.065169
C39   C     C_R   0.327129 0.980212 0.437624 0.069567
C40   C     C_R   0.668867 0.018939 0.562620 0.065147
C41   C     C_R   0.006269 0.478458 0.524758 0.042438
C42   C     C_R   0.998600 0.523162 0.475880 0.034731
C43   C     C_R   0.993731 0.521541 0.024757 0.042454
C44   C     C_R   0.001400 0.476838 0.975880 0.034725
C45   C     C_R   0.511004 0.023346 0.976348 0.030605
C46   C     C_R   0.494928 0.978408 0.024771 0.045260
C47   C     C_R   0.488987 0.976654 0.476347 0.030608
C48   C     C_R   0.505066 0.021593 0.524770 0.045274
C49   C     C_R   0.166490 0.434955 0.531422 0.099851
C50   C     C_R   0.836794 0.565998 0.468959 0.088478
C51   C     C_R   0.833509 0.565044 0.031423 0.099851
C52   C     C_R   0.163204 0.434000 0.968958 0.088486
C53   C     C_R   0.362752 0.070831 0.966171 0.103983
C54   C     C_R   0.641792 0.930420 0.034718 0.102418
C55   C     C_R   0.637225 0.929167 0.466172 0.104002
C56   C     C_R   0.358228 0.069588 0.534712 0.102424
C57   C     C_R   0.691556 0.519720 0.557464 -0.144326
C58   C     C_R   0.306658 0.478542 0.440885 -0.145326
C59   C     C_R   0.308440 0.480276 0.057463 -0.144368
C60   C     C_R   0.693346 0.521461 0.940885 -0.145310
C61   C     C_R   0.815654 0.970215 0.948408 -0.143268
C62   C     C_R   0.184090 0.028680 0.050545 -0.148539
C63   C     C_R   0.184350 0.029792 0.448405 -0.143239
C64   C     C_R   0.815853 0.971313 0.550551 -0.148592
C65   C     C_R   0.684737 0.563802 0.509804 -0.178067
C66   C     C_R   0.315164 0.435427 0.489337 -0.207841
C67   C     C_R   0.315258 0.436193 0.009804 -0.178050
C68   C     C_R   0.684838 0.564574 0.989338 -0.207843
C69   C     C_R   0.801225 0.926967 0.996543 -0.213703
C70   C     C_R   0.200560 0.073000 0.003335 -0.162910
C71   C     C_R   0.198794 0.073043 0.496537 -0.213696
C72   C     C_R   0.799396 0.926996 0.503337 -0.162923
C73   C     C_2   0.705748 0.432522 0.660060 0.320571
H25   H     H_    0.619083 0.388924 0.667786 0.087320
O21   O     O_2   0.671479 0.483032 0.688468 -0.525422
C74   C     C_2   0.287974 0.568232 0.337089 0.408193
H26   H     H_    0.242917 0.569419 0.291066 0.092331
O22   O     O_2   0.460196 0.570354 0.348704 -0.538447
C75   C     C_2   0.294317 0.567510 0.160038 0.320664
H27   H     H_    0.381024 0.611111 0.167725 0.087266
O23   O     O_2   0.328589 0.517018 0.188474 -0.525436
C76   C     C_2   0.712026 0.431769 0.837089 0.408193
H28   H     H_    0.757081 0.430578 0.791066 0.092272
O24   O     O_2   0.539803 0.429652 0.848706 -0.538455
C77   C     C_2   0.841363 0.057996 0.843899 0.395417
H29   H     H_    0.805971 0.057403 0.797006 0.095081
O25   O     O_2   0.011078 0.056915 0.858816 -0.539354
C78   C     C_2   0.148908 0.940132 0.151677 0.345971
H30   H     H_    0.047299 0.899709 0.155010 0.072429
O26   O     O_2   0.123491 0.989882 0.181895 -0.524433
C79   C     C_2   0.158617 0.942001 0.343901 0.395435
H31   H     H_    0.194014 0.942558 0.297001 0.095041
O27   O     O_2   0.988888 0.943111 0.358823 -0.539350
C80   C     C_2   0.851074 0.059882 0.651669 0.345998
H32   H     H_    0.952658 0.100310 0.654981 0.072432
O28   O     O_2   0.876537 0.010143 0.681899 -0.524451

loop_
_geom_bond_atom_site_label_1
_geom_bond_atom_site_label_2
_ccdc_geom_bond_type
C26   C74   S    
C40   C48   A    
C45   C46   A    
C14   C54   A    
C22   C30   A    
C11   C51   A    
C49   C66   A    
C31   C79   S    
C47   C48   A    
C10   C50   A    
C60   C68   A    
C27   C35   A    
C62   C70   A    
C31   C39   A    
O4    C1    A    
C19   C27   A    
C61   C69   A    
O18   V2    S    
H22   C14   S    
C53   C70   A    
C57   C65   A    
C38   C62   A    
O6    V2    S    
C37   C61   A    
H23   C15   S    
H15   C71   S    
H24   C16   S    
C39   C63   A    
C13   C21   A    
C18   C26   A    
C17   C25   A    
C14   C22   A    
C63   C71   A    
O16   C8    A    
H18   C10   S    
C38   C46   A    
C11   C19   A    
C5    C19   S    
C21   C29   A    
C10   C18   A    
C55   C72   A    
C47   C55   A    
H6    C62   S    
H8    C64   S    
O1    C4    A    
H11   C67   S    
O2    C3    A    
C1    C23   S    
C28   C76   S    
O12   V1    S    
C3    C21   S    
H19   C11   S    
C56   C71   A    
C33   C41   A    
C30   C38   A    
C34   C58   A    
O6    C7    A    
C29   C37   A    
O7    C6    A    
C28   C36   A    
C52   C67   A    
C29   C77   S    
O14   C6    A    
H4    C60   S    
C25   C33   A    
O20   V2    S    
C33   C57   A    
O9    C1    A    
C78   O26   D    
C45   C53   A    
C51   C68   A    
C64   C72   A    
C50   C65   A    
O17   V3    S    
O18   V4    S    
C23   C31   A    
C41   C49   A    
O19   V1    S    
C40   C64   A    
C76   O24   D    
C75   O23   D    
O9    V1    S    
H1    C57   S    
O3    V4    S    
C8    C18   S    
C37   C45   A    
O11   C3    A    
C9    C49   A    
C13   C53   A    
C2    C24   S    
O11   V2    S    
C59   C67   A    
C73   H25   S    
C54   C69   A    
C15   C55   A    
H16   C72   S    
C58   C66   A    
C32   C80   S    
C48   C56   A    
O4    V3    S    
C77   H29   S    
C80   O28   D    
H10   C66   S    
O8    C5    A    
C75   H27   S    
H12   C68   S    
C43   C44   A    
H7    C63   S    
C44   C52   A    
C74   O22   D    
C26   C34   A    
O13   C5    A    
C7    C17   S    
C39   C47   A    
O3    C2    A    
C16   C56   A    
C15   C23   A    
C78   H30   S    
C12   C52   A    
O8    V1    S    
H5    C61   S    
C79   H31   S    
O15   C7    A    
C20   C28   A    
C35   C43   A    
O14   V4    S    
H9    C65   S    
C34   C42   A    
C12   C20   A    
O15   V4    S    
O5    C8    A    
C76   H28   S    
O5    V1    S    
O16   V3    S    
H17   C9    S    
C32   C40   A    
O2    V4    S    
C79   O27   D    
O10   C2    A    
H2    C58   S    
H20   C12   S    
O17   V1    S    
C9    C17   A    
H21   C13   S    
C36   C60   A    
C35   C59   A    
O19   V3    S    
C16   C24   A    
O1    V3    S    
O10   V2    S    
C73   O21   D    
C4    C22   S    
H14   C70   S    
H13   C69   S    
O12   C4    A    
C24   C32   A    
C77   O25   D    
C80   H32   S    
C36   C44   A    
O7    V2    S    
C43   C51   A    
C41   C42   A    
C30   C78   S    
C42   C50   A    
C6    C20   S    
O20   V4    S    
C46   C54   A    
C25   C73   S    
C74   H26   S    
O13   V3    S    
C27   C75   S    
H3    C59   S    
