data_mof_unit_26441.cif
_audit_creation_date              2012-12-11T17:07:34-0500
_audit_creation_method            fapswitch 2.2
_symmetry_space_group_name_H-M    P1
_symmetry_Int_Tables_number       1
_space_group_crystal_system       triclinic
_cell_length_a                    6.956849
_cell_length_b                    14.911578
_cell_length_c                    15.805028
_cell_angle_alpha                 90.134243
_cell_angle_beta                  90.698771
_cell_angle_gamma                 90.131431
_cell_volume                      1639.44476236

loop_
_atom_site_label
_atom_site_type_symbol
_atom_type_description
_atom_site_fract_x
_atom_site_fract_y
_atom_site_fract_z
_atom_type_partial_charge
O1    O     O_R   0.505720 0.583900 0.413310 -0.539237
O2    O     O_R   0.175940 0.594920 0.586080 -0.555529
O3    O     O_R   0.005640 0.416100 0.586690 -0.541124
C1    C     C_R   0.346222 0.618953 0.612942 0.711156
O4    O     O_R   0.176000 0.594930 0.413930 -0.548863
O5    O     O_R   0.005700 0.416110 0.413310 -0.538974
C2    C     C_R   0.344457 0.617003 0.385481 0.687926
O6    O     O_R   0.505660 0.583890 0.586690 -0.528774
O7    O     O_3   0.339200 0.441330 0.500000 -0.366140
V1    V     V_3+5 0.064350 0.510880 0.500000 1.384985
O8    O     O_R   0.675980 0.405080 0.413920 -0.540303
C3    C     C_R   0.844565 0.383303 0.384861 0.672416
O9    O     O_R   0.675920 0.405070 0.586070 -0.530683
C4    C     C_R   0.845599 0.388957 0.619345 0.716301
V2    V     V_3+5 0.564340 0.489120 0.500000 1.432371
O10   O     O_3   0.839360 0.558670 0.500000 -0.380038
H1    H     H_    0.964111 0.105189 0.484190 0.126923
C5    C     C_R   0.889725 0.431880 0.806172 0.168672
C6    C     C_R   0.858429 0.452377 0.891455 0.746421
C7    C     C_R   0.822314 0.385001 0.949905 0.150889
C8    C     C_R   0.819759 0.296074 0.922699 -0.347122
C9    C     C_R   0.849034 0.273037 0.836776 -0.014726
C10   C     C_R   0.863816 0.342639 0.775452 -0.080894
C11   C     C_R   0.876873 0.182247 0.813163 -0.117401
C12   C     C_R   0.904268 0.160488 0.725520 0.021663
C13   C     C_R   0.888223 0.229373 0.663140 0.025625
C14   C     C_R   0.863632 0.319932 0.687436 -0.098909
C15   C     C_R   0.947578 0.072246 0.696701 0.272282
C16   C     C_R   0.972582 0.054007 0.610499 -0.157451
C17   C     C_R   0.948334 0.120490 0.550756 -0.177698
C18   C     C_R   0.905305 0.206878 0.576265 -0.135515
H2    H     H_    0.801234 0.245274 0.970623 0.143720
H3    H     H_    0.006732 0.986689 0.589666 0.118377
H4    H     H_    0.890122 0.256064 0.526546 0.111226
C19   C     C_R   0.725097 0.185826 0.240095 0.100120
C20   C     C_R   0.882723 0.182423 0.185801 -0.108594
C21   C     C_R   0.035891 0.241732 0.202975 -0.182128
H5    H     H_    0.159721 0.242146 0.162544 0.137990
C22   C     C_R   0.024182 0.305929 0.268345 -0.191425
H6    H     H_    0.140522 0.353453 0.276574 0.128300
C23   C     C_R   0.858278 0.313187 0.318311 -0.112185
C24   C     C_R   0.712953 0.249635 0.304564 0.109907
C25   C     C_3   0.504338 0.264241 0.288063 -0.415799
C26   C     C_3   0.517345 0.194513 0.218220 -0.406851
H7    H     H_    0.474543 0.332910 0.264075 0.163582
H8    H     H_    0.414760 0.242336 0.342018 0.181746
H9    H     H_    0.494362 0.222607 0.153765 0.166330
H10   H     H_    0.435683 0.132129 0.231841 0.167830
C27   C     C_R   0.532748 0.711611 0.719509 -0.131662
C28   C     C_R   0.358921 0.690486 0.678235 -0.023846
C29   C     C_R   0.194439 0.737381 0.704108 -0.182343
H11   H     H_    0.058113 0.726818 0.672183 0.112797
C30   C     C_R   0.202407 0.795612 0.774191 -0.159314
H12   H     H_    0.071532 0.824427 0.796035 0.120646
C31   C     C_R   0.376138 0.813838 0.817379 0.009256
C32   C     C_R   0.540003 0.770554 0.788138 -0.219204
C33   C     C_3   0.676170 0.712307 0.836410 0.641498
C34   C     C_3   0.674704 0.650531 0.760246 0.516014
H13   H     H_    0.817376 0.743792 0.850379 -0.016895
H14   H     H_    0.811514 0.649611 0.725838 -0.036458
C35   C     C_R   0.511896 0.693924 0.265696 -0.040079
C36   C     C_R   0.354219 0.686302 0.318780 -0.074100
C37   C     C_R   0.204465 0.748852 0.304307 -0.188219
H15   H     H_    0.078089 0.748120 0.343593 0.116142
C38   C     C_R   0.216672 0.813444 0.238445 -0.169726
H16   H     H_    0.098982 0.860032 0.229718 0.114491
C39   C     C_R   0.378769 0.817522 0.184769 -0.079750
C40   C     C_R   0.524271 0.756077 0.202578 -0.062591
C41   C     C_3   0.703701 0.716824 0.167477 0.575026
C42   C     C_3   0.689113 0.645754 0.238416 0.047163
H17   H     H_    0.829367 0.762464 0.173574 -0.008476
H18   H     H_    0.808211 0.650192 0.285834 0.049920
O11   O     O_R   0.229140 0.916090 0.913340 -0.538326
O12   O     O_R   0.558860 0.905090 0.086080 -0.535888
O13   O     O_R   0.729100 0.083920 0.086690 -0.544839
C43   C     C_R   0.390187 0.883249 0.114831 0.734477
O14   O     O_R   0.558860 0.905090 0.913930 -0.541220
O15   O     O_R   0.729100 0.083920 0.913310 -0.544641
C44   C     C_R   0.388528 0.881205 0.886742 0.728080
O16   O     O_R   0.229140 0.916080 0.086720 -0.541897
O17   O     O_3   0.395570 0.058660 0.000020 -0.380909
V3    V     V_3+5 0.670450 0.989140 0.000000 1.461220
O18   O     O_R   0.058810 0.094980 0.913910 -0.535656
C45   C     C_R   0.889468 0.113306 0.882103 0.786335
O19   O     O_R   0.058810 0.094980 0.086060 -0.549017
C46   C     C_R   0.890509 0.116989 0.114914 0.665343
V4    V     V_3+5 0.170450 0.010950 0.999970 1.437475
O20   O     O_3   0.895460 0.941370 0.999990 -0.359396
F1    F     F_    0.590193 0.674366 0.906429 -0.540366
F2    F     F_    0.598389 0.566912 0.776742 -0.677997
N1    N     N_2   0.996991 0.496039 0.760611 -0.526467
H19   H     H_    0.948560 0.519435 0.703363 0.267022
C47   C     C_3   0.202219 0.495349 0.775994 -0.342648
H20   H     H_    0.247784 0.563643 0.795270 0.262626
H21   H     H_    0.277657 0.474233 0.717844 0.189557
H22   H     H_    0.244045 0.448546 0.827765 0.178895
F3    F     F_    0.675795 0.683034 0.086608 -0.573004
N2    N     N_2   0.656710 0.554297 0.207718 -0.449096
H23   H     H_    0.713447 0.506345 0.247641 0.228533
C48   C     C_3   0.470396 0.528424 0.172935 -0.338467
H24   H     H_    0.483516 0.463232 0.139537 0.171725
H25   H     H_    0.416052 0.578717 0.126979 0.257939
H26   H     H_    0.365007 0.520035 0.224510 0.113386
F4    F     F_    0.878222 0.538520 0.918270 -0.597251
N3    N     N_2   0.804131 0.405730 0.037487 -0.454210
H27   H     H_    0.733204 0.357179 0.071631 0.242688
C49   C     C_3   0.981194 0.433972 0.078891 -0.401422
H28   H     H_    0.955077 0.446266 0.146999 0.181667
H29   H     H_    0.035635 0.497309 0.051309 0.258259
H30   H     H_    0.092612 0.381129 0.072931 0.141278
N4    N     N_2   0.964122 0.999910 0.753316 -0.542392
H31   H     H_    0.089689 0.964765 0.745313 0.245011
C50   C     C_3   0.795419 0.943632 0.753654 -0.557295
H32   H     H_    0.804994 0.899313 0.809054 0.205167
H33   H     H_    0.787167 0.902273 0.695112 0.175500
H34   H     H_    0.662716 0.984554 0.759382 0.199543

loop_
_geom_bond_atom_site_label_1
_geom_bond_atom_site_label_2
_ccdc_geom_bond_type
C35   C42   S    
O18   V4    S    
V4    O20   S    
C37   C38   A    
C47   H20   S    
C23   C24   A    
C30   C31   A    
C6    C7    A    
C1    O6    A    
O17   V3    S    
C22   C23   A    
C30   H12   S    
C12   C15   A    
N3    C49   S    
C13   C14   A    
C16   C17   A    
O12   C43   A    
C5    N1    S    
C15   C16   A    
C7    N3    S    
O16   V4    S    
O5    C3    A    
C17   C18   A    
C31   C32   A    
C33   H13   S    
C34   H14   S    
V2    O10   S    
C16   H3    S    
C32   C33   S    
C5    C6    A    
C41   H17   S    
C19   C24   A    
O11   V4    S    
O8    V2    S    
N4    H31   S    
C40   C41   S    
C38   C39   A    
C49   H28   S    
O1    V2    S    
C10   C14   A    
C4    C14   S    
O7    V1    S    
C26   H9    S    
C50   H34   S    
O14   C44   A    
C13   C18   A    
C47   H21   S    
O9    C4    A    
H1    C17   S    
C49   H29   S    
C41   C42   S    
C42   N2    S    
O12   V3    S    
O19   V4    S    
C15   N4    S    
C8    H2    S    
C39   C40   A    
C11   C12   A    
C22   H6    S    
O4    C2    A    
C20   C46   S    
C12   C13   A    
O19   C46   A    
C48   H26   S    
C27   C34   S    
C5    C10   A    
C1    C28   S    
C29   C30   A    
C19   C20   A    
O2    C1    A    
C25   C26   S    
C2    C36   S    
C21   H5    S    
N1    C47   S    
C31   C44   S    
C6    F4    S    
O15   V3    S    
O13   C46   A    
O18   C45   A    
C36   C37   A    
C48   H25   S    
C28   C29   A    
O11   C44   A    
C18   H4    S    
N4    C50   S    
C19   C26   S    
C34   F2    S    
O17   V4    S    
O3    C4    A    
C33   F1    S    
N2    H23   S    
O6    V2    S    
N2    C48   S    
O9    V2    S    
C49   H30   S    
C9    C11   A    
C24   C25   S    
O2    V1    S    
N1    H19   S    
C3    C23   S    
C50   H32   S    
C20   C21   A    
O1    C2    A    
C43   O16   A    
O5    V1    S    
O8    C3    A    
O13   V3    S    
C47   H22   S    
C27   C32   A    
N3    H27   S    
C11   C45   S    
C29   H11   S    
C25   H7    S    
O3    V1    S    
V1    O10   S    
C35   C40   A    
C33   C34   S    
O14   V3    S    
V3    O20   S    
C48   H24   S    
C38   H16   S    
O7    V2    S    
C35   C36   A    
C25   H8    S    
C37   H15   S    
O15   C45   A    
O4    V1    S    
C7    C8    A    
C21   C22   A    
C27   C28   A    
C9    C10   A    
C42   H18   S    
C39   C43   S    
C8    C9    A    
C26   H10   S    
C50   H33   S    
C41   F3    S    
