data_mof_unit_24451.cif
_audit_creation_date              2012-10-26T21:13:39-0400
_audit_creation_method            fapswitch 2.2
_symmetry_space_group_name_H-M    P1
_symmetry_Int_Tables_number       1
_space_group_crystal_system       triclinic
_cell_length_a                    9.084617
_cell_length_b                    10.832055
_cell_length_c                    9.563121
_cell_angle_alpha                 90.394677
_cell_angle_beta                  89.572833
_cell_angle_gamma                 90.551562
_cell_volume                      940.967978802

loop_
_atom_site_label
_atom_site_type_symbol
_atom_type_description
_atom_site_fract_x
_atom_site_fract_y
_atom_site_fract_z
_atom_type_partial_charge
C1    C     C_R   0.496212 0.262413 0.499561 0.544702
C2    C     C_R   0.557334 0.597891 0.926363 0.111115
C3    C     C_3   0.710976 0.645936 0.917041 -0.228912
C4    C     C_R   0.220703 0.499951 0.500332 0.548391
C5    C     C_3   0.714893 0.643948 0.075911 0.134163
C6    C     C_R   0.497421 0.737740 0.500183 0.540943
C7    C     C_R   0.779282 0.500099 0.499748 0.556726
C8    C     C_1   0.065525 0.499998 0.500687 -0.076975
C9    C     C_1   0.934440 0.500025 0.499828 -0.065670
C10   C     C_R   0.474439 0.064779 0.624405 0.016672
C11   C     C_R   0.480030 0.129349 0.498758 0.008387
C12   C     C_R   0.466256 0.934595 0.372897 -0.166269
C13   C     C_R   0.465206 0.063389 0.372444 -0.163373
C14   C     C_3   0.956449 0.606896 0.132694 -0.010727
C15   C     C_3   0.069569 0.505625 0.115465 -0.353786
C16   C     C_R   0.482341 0.870915 0.499643 0.007444
C17   C     C_R   0.476253 0.937630 0.624849 0.023330
C18   C     C_3   0.576293 0.934978 0.747867 -0.274000
C19   C     C_3   0.572467 0.074826 0.748538 -0.264265
C20   C     C_R   0.559399 0.597008 0.073462 0.169442
C21   C     C_R   0.431285 0.408942 0.074123 -0.019772
C22   C     C_R   0.430845 0.409143 0.925442 -0.012200
Cu1   Cu    Cu3+1 0.499990 0.499980 0.640670 0.936335
Cu2   Cu    Cu3+1 0.500010 0.500020 0.359330 0.964249
H1    H     H_    0.460491 0.110628 0.273143 0.127711
H2    H     H_    0.376422 0.334619 0.869845 0.113865
H3    H     H_    0.787345 0.579485 0.866140 0.179956
H4    H     H_    0.970263 0.651739 0.236737 0.141521
H5    H     H_    0.979631 0.676845 0.049944 0.103831
H6    H     H_    0.058978 0.461638 0.010709 0.143345
H7    H     H_    0.181360 0.546644 0.124800 0.124890
H8    H     H_    0.053489 0.434308 0.197129 0.171805
H9    H     H_    0.717854 0.740604 0.875175 0.063713
H10   H     H_    0.723782 0.736332 0.127659 0.076118
H11   H     H_    0.461897 0.885744 0.273777 0.125142
H12   H     H_    0.522203 0.893406 0.841213 0.130041
H13   H     H_    0.686691 0.898362 0.720154 0.131308
H14   H     H_    0.514491 0.113888 0.841315 0.129975
H15   H     H_    0.680758 0.118528 0.723755 0.145209
H16   H     H_    0.376918 0.334429 0.129426 0.105919
N1    N     N_R   0.500920 0.500930 0.147930 -0.210366
N2    N     N_R   0.500930 0.500890 0.852020 -0.227654
O1    O     O_R   0.500000 0.319640 0.618810 -0.506855
O2    O     O_R   0.500020 0.319680 0.381230 -0.510472
O3    O     O_R   0.288380 0.499980 0.618770 -0.494930
O4    O     O_R   0.288400 0.500020 0.381190 -0.517306
O5    O     O_R   0.499980 0.680320 0.618770 -0.498389
O6    O     O_R   0.500000 0.680360 0.381190 -0.518608
O7    O     O_R   0.711600 0.499980 0.618810 -0.508756
O8    O     O_R   0.711620 0.500020 0.381230 -0.432185
O9    O     O_3   0.813812 0.554334 0.123890 -0.514779

loop_
_geom_bond_atom_site_label_1
_geom_bond_atom_site_label_2
_ccdc_geom_bond_type
Cu1   Cu2   S    
C15   H7    S    
Cu1   O3    S    
C19   H14   S    
C6    C16   S    
C1    O2    A    
C14   O9    S    
C1    C11   S    
C10   C19   S    
C4    C8    S    
Cu2   O4    S    
C5    H10   S    
C3    H3    S    
C17   C18   S    
C15   H8    S    
C5    C20   S    
C4    O4    A    
C21   C22   A    
C12   H11   S    
Cu2   N1    S    
C11   C13   A    
C13   H1    S    
C22   N2    A    
Cu1   N2    S    
C6    O6    A    
C2    N2    A    
C21   N1    A    
C19   H15   S    
C18   H13   S    
C20   N1    A    
C2    C3    S    
C4    O3    A    
Cu2   O8    S    
Cu2   O2    S    
Cu1   O7    S    
Cu1   O5    S    
C10   C11   A    
C3    H9    S    
C10   C17   A    
C2    C20   A    
Cu2   O6    S    
C16   C17   A    
Cu1   O1    S    
C12   C13   A    
C7    O7    A    
C15   H6    S    
C18   C19   S    
C6    O5    A    
C7    C9    S    
C14   C15   S    
C5    O9    S    
C22   H2    S    
C14   H5    S    
C14   H4    S    
C18   H12   S    
C1    O1    A    
C12   C16   A    
C7    O8    A    
C8    C9    T    
C3    C5    S    
C21   H16   S    
