data_mof_unit_49962.cif
_audit_creation_date              2012-12-10T18:56:28-0500
_audit_creation_method            fapswitch 2.2
_symmetry_space_group_name_H-M    P1
_symmetry_Int_Tables_number       1
_space_group_crystal_system       triclinic
_cell_length_a                    10.893871
_cell_length_b                    10.054754
_cell_length_c                    18.588695
_cell_angle_alpha                 88.547766
_cell_angle_beta                  98.426623
_cell_angle_gamma                 89.662265
_cell_volume                      2013.39310321

loop_
_atom_site_label
_atom_site_type_symbol
_atom_type_description
_atom_site_fract_x
_atom_site_fract_y
_atom_site_fract_z
_atom_type_partial_charge
C1    C     C_R   0.875780 0.496402 0.500764 -0.455209
C2    C     C_R   0.740217 0.499231 0.497923 0.969316
C3    C     C_R   0.507817 0.501678 0.363748 0.890188
C4    C     C_R   0.499256 0.498668 0.636368 0.888408
C5    C     C_R   0.074275 0.385885 0.540888 0.400080
C6    C     C_R   0.938806 0.614852 0.489646 0.454904
C7    C     C_R   0.944361 0.378364 0.520783 0.310702
C8    C     C_R   0.064592 0.623079 0.515033 0.358830
C9    C     C_R   0.539347 0.378849 0.760719 0.399551
C10   C     C_R   0.606727 0.620755 0.260889 0.323313
C11   C     C_R   0.554287 0.385105 0.247309 0.357585
C12   C     C_R   0.133874 0.503415 0.523750 -0.475170
C13   C     C_R   0.568842 0.617118 0.751235 0.454557
C14   C     C_R   0.613408 0.378376 0.829282 -0.266717
C15   C     C_R   0.674565 0.609511 0.203059 -0.289159
C16   C     C_R   0.619432 0.382576 0.187533 -0.254170
C17   C     C_R   0.657332 0.610607 0.813435 -0.297708
C18   C     C_R   0.671754 0.494119 0.856722 -0.037309
C19   C     C_R   0.676517 0.494664 0.163890 -0.016222
C20   C     C_R   0.585375 0.069433 0.548895 0.270644
C21   C     C_R   0.411675 0.930799 0.453428 0.282248
C22   C     C_R   0.409273 0.075612 0.454196 0.360582
C23   C     C_R   0.663830 0.615742 0.970619 -0.156461
C24   C     C_R   0.586581 0.923970 0.548283 0.346415
C25   C     C_R   0.526358 0.498060 0.717598 -0.291431
C26   C     C_R   0.549777 0.504510 0.288689 -0.316444
C27   C     C_3   0.091642 0.238042 0.642308 0.230670
C28   C     C_3   0.046528 0.346515 0.690278 -0.394448
C29   C     C_3   0.006713 0.285880 0.759363 -0.820535
C30   C     C_3   0.867327 0.672412 0.370989 0.131974
C31   C     C_3   0.989805 0.645153 0.341069 -0.380337
C32   C     C_3   0.969210 0.587676 0.265323 -0.924701
C33   C     C_3   0.889109 0.175762 0.467386 0.230422
C34   C     C_R   0.759026 0.396137 0.056205 -0.162221
C35   C     C_3   0.857483 0.243198 0.391250 -0.498511
C36   C     C_3   0.845947 0.140504 0.331680 -0.746435
C37   C     C_3   0.188759 0.771358 0.586039 0.233402
C38   C     C_3   0.113923 0.846681 0.635789 -0.326287
C39   C     C_3   0.041600 0.752152 0.679285 -0.745519
C40   C     C_R   0.663583 0.614984 0.044951 -0.164703
C41   C     C_R   0.759279 0.396885 0.980708 -0.168304
C42   C     C_R   0.706670 0.503547 0.088569 0.155376
C43   C     C_R   0.706784 0.504841 0.936736 0.159920
C44   C     C_R   0.262980 0.500448 0.508637 0.968206
H1    H     H_    0.612883 0.291856 0.865093 0.195278
H2    H     H_    0.257918 0.678569 0.322758 0.364780
H3    H     H_    0.199311 0.357533 0.365549 0.346242
H4    H     H_    0.779785 0.652579 0.665742 0.332684
H5    H     H_    0.163272 0.177020 0.676852 0.217582
H6    H     H_    0.018913 0.165862 0.624714 0.192983
H7    H     H_    0.121412 0.419632 0.704806 0.265799
H8    H     H_    0.965524 0.402023 0.660792 0.203809
H9    H     H_    0.928340 0.216762 0.745408 0.288904
H10   H     H_    0.976132 0.366238 0.792810 0.251241
H11   H     H_    0.084360 0.229919 0.792158 0.297922
H12   H     H_    0.717199 0.696409 0.182415 0.198909
H13   H     H_    0.818605 0.753313 0.336712 0.227367
H14   H     H_    0.807015 0.583375 0.364993 0.079049
H15   H     H_    0.039522 0.739765 0.337809 0.303879
H16   H     H_    0.049299 0.572925 0.376440 0.210298
H17   H     H_    0.910761 0.497459 0.264501 0.270567
H18   H     H_    0.060050 0.558899 0.249638 0.282756
H19   H     H_    0.925931 0.663611 0.225115 0.280332
H20   H     H_    0.820591 0.095507 0.471379 0.189899
H21   H     H_    0.979846 0.124536 0.473998 0.208462
H22   H     H_    0.768130 0.298455 0.387096 0.235467
H23   H     H_    0.616680 0.295700 0.154405 0.178094
H24   H     H_    0.931547 0.314277 0.381695 0.219616
H25   H     H_    0.933959 0.083095 0.334196 0.300517
H26   H     H_    0.825281 0.191742 0.277581 0.248843
H27   H     H_    0.769230 0.070947 0.338078 0.299507
H28   H     H_    0.266780 0.836123 0.575676 0.169301
H29   H     H_    0.232082 0.680467 0.614815 0.139036
H30   H     H_    0.178540 0.904241 0.674936 0.228638
H31   H     H_    0.050500 0.919392 0.603055 0.263611
H32   H     H_    0.981808 0.686398 0.642574 0.247890
H33   H     H_    0.982937 0.810579 0.711264 0.286018
H34   H     H_    0.696415 0.702416 0.835269 0.205405
H35   H     H_    0.105723 0.688564 0.717556 0.261783
H36   H     H_    0.332248 0.323194 0.836329 0.361726
H37   H     H_    0.442060 0.810830 0.173605 0.356606
H38   H     H_    0.544629 0.093130 0.196985 0.385816
H39   H     H_    0.468583 0.835982 0.851300 0.359223
H40   H     H_    0.618534 0.699153 0.939524 0.149705
H41   H     H_    0.793584 0.309148 0.088612 0.148033
H42   H     H_    0.618598 0.697910 0.066867 0.149323
H43   H     H_    0.793569 0.310118 0.956295 0.152108
H44   H     H_    0.747203 0.330480 0.675824 0.337139
N1    N     N_R   0.500000 0.857200 0.500000 -0.227327
N2    N     N_R   0.500000 0.142800 0.500000 -0.227344
O1    O     O_R   0.316770 0.614620 0.500000 -0.564472
O2    O     O_2   0.814808 0.092623 0.627240 -0.278628
O3    O     O_3   0.711356 0.312730 0.624928 -0.514318
O4    O     O_2   0.171701 0.890221 0.408831 -0.257934
O5    O     O_2   0.308012 0.913091 0.316040 -0.143758
O6    O     O_3   0.288996 0.688794 0.375120 -0.523941
O7    O     O_2   0.196849 0.106568 0.343177 -0.185828
O8    O     O_2   0.186423 0.168221 0.465542 -0.327432
O9    O     O_3   0.285099 0.321908 0.378097 -0.468626
O10   O     O_2   0.826168 0.860324 0.571122 -0.291402
O11   O     O_2   0.732445 0.887038 0.681867 -0.214967
O12   O     O_R   0.683230 0.385380 0.500000 -0.542529
O13   O     O_3   0.713515 0.670060 0.624050 -0.546927
O14   O     O_3   0.145319 0.287298 0.581736 -0.567550
O15   O     O_3   0.884663 0.716489 0.443978 -0.541832
O16   O     O_3   0.882052 0.260160 0.526662 -0.572603
O17   O     O_3   0.117657 0.748003 0.517234 -0.533041
O18   O     O_2   0.386687 0.218588 0.671577 -0.224228
O19   O     O_2   0.471596 0.129788 0.792113 -0.210604
O20   O     O_3   0.302532 0.311806 0.783905 -0.596772
O21   O     O_2   0.570097 0.826099 0.351775 -0.240497
O22   O     O_2   0.658612 0.881575 0.243776 -0.391441
O23   O     O_R   0.683230 0.614620 0.500000 -0.516203
O24   O     O_3   0.428650 0.816440 0.225018 -0.449037
O25   O     O_2   0.499280 0.168386 0.323971 -0.264876
O26   O     O_2   0.327002 0.291447 0.249327 -0.198799
O27   O     O_3   0.464318 0.140870 0.185020 -0.495981
O28   O     O_2   0.467269 0.833458 0.672805 -0.250379
O29   O     O_2   0.340753 0.712478 0.749794 -0.382273
O30   O     O_3   0.515800 0.862490 0.811673 -0.471321
O31   O     O_R   0.316770 0.385380 0.500000 -0.497281
O32   O     O_R   0.500030 0.614710 0.398180 -0.511368
O33   O     O_R   0.499970 0.385290 0.601820 -0.516581
O34   O     O_R   0.499970 0.614710 0.601820 -0.552212
O35   O     O_R   0.500030 0.385290 0.398180 -0.536436
O36   O     O_2   0.637116 0.113072 0.691270 -0.192787
S1    S     S_3+6 0.686533 0.149196 0.622260 0.136454
S2    S     S_3+6 0.295624 0.852375 0.389012 0.154975
S3    S     S_3+6 0.269903 0.166143 0.408803 0.162875
S4    S     S_3+6 0.713097 0.833873 0.606383 0.127556
S5    S     S_3+6 0.425524 0.253526 0.749501 0.061796
S6    S     S_3+6 0.569036 0.790024 0.274091 0.033733
S7    S     S_3+6 0.458952 0.244764 0.254093 0.108150
S8    S     S_3+6 0.469723 0.758573 0.743679 0.061865
Zn1   Zn    Zn3+2 0.500000 0.653120 0.500000 1.143041
Zn2   Zn    Zn3+2 0.500000 0.346880 0.500000 1.157652

loop_
_geom_bond_atom_site_label_1
_geom_bond_atom_site_label_2
_ccdc_geom_bond_type
C31   H16   S    
O2    S1    D    
O36   S1    D    
N1    Zn1   S    
C13   S8    S    
C14   C18   A    
C35   C36   S    
C34   C42   A    
O27   S7    S    
C24   N1    A    
C4    C25   S    
C9    C25   A    
C21   N1    A    
C15   C19   A    
C4    O34   A    
C39   H33   S    
C28   C29   S    
C32   H17   S    
C37   O17   S    
C10   C15   A    
C11   S7    S    
C30   C31   S    
C28   H7    S    
O10   S4    D    
C29   H10   S    
C2    O12   A    
C31   H15   S    
C23   C40   A    
C30   H13   S    
C27   O14   S    
H3    O9    S    
O6    S2    S    
C1    C2    S    
C40   H42   S    
O18   S5    D    
O5    S2    D    
C22   S3    S    
C20   C24   A    
H37   O24   S    
O19   S5    D    
O28   S8    D    
C3    O32   A    
O11   S4    D    
C10   C26   A    
C40   C42   A    
C5    O14   S    
C21   C22   A    
C41   C43   A    
C13   C25   A    
C34   C41   A    
C36   H26   S    
C14   H1    S    
C10   S6    S    
C38   H31   S    
C9    S5    S    
C41   H43   S    
O29   S8    D    
C23   H40   S    
O9    S3    S    
C33   H21   S    
C1    C6    A    
C36   H27   S    
C5    C7    A    
C6    C8    A    
O26   S7    D    
O25   S7    D    
C35   H22   S    
H4    O13   S    
C20   N2    A    
C4    O33   A    
C34   H41   S    
C39   H35   S    
H39   O30   S    
C9    C14   A    
O3    S1    S    
C37   C38   S    
N2    Zn2   S    
C11   C16   A    
C31   C32   S    
C8    C12   A    
C3    O35   A    
C17   C18   A    
C22   N2    A    
C7    O16   S    
O1    Zn1   S    
O20   S5    S    
C16   H23   S    
C39   H32   S    
O22   S6    D    
C21   S2    S    
C44   O1    A    
C5    C12   A    
O35   Zn2   S    
C30   O15   S    
C8    O17   S    
C33   H20   S    
C44   O31   A    
C36   H25   S    
C27   H6    S    
C20   S1    S    
C38   H30   S    
C2    O23   A    
C37   H29   S    
H44   O3    S    
O34   Zn1   S    
C1    C7    A    
C23   C43   A    
O24   S6    S    
C3    C26   S    
C33   O16   S    
C32   H19   S    
C19   C42   S    
O4    S2    D    
C29   H11   S    
C11   C26   A    
C13   C17   A    
O33   Zn2   S    
C15   H12   S    
O7    S3    D    
C12   C44   S    
C18   C43   S    
C28   H8    S    
C38   C39   S    
C29   H9    S    
C35   H24   S    
C16   C19   A    
C30   H14   S    
O8    S3    D    
C17   H34   S    
C33   C35   S    
C6    O15   S    
O30   S8    S    
O31   Zn2   S    
O13   S4    S    
O12   Zn2   S    
O32   Zn1   S    
C32   H18   S    
C24   S4    S    
O21   S6    D    
H2    O6    S    
O23   Zn1   S    
C37   H28   S    
H36   O20   S    
C27   C28   S    
H38   O27   S    
C27   H5    S    
