data_mof_unit_30945.cif
_audit_creation_date              2012-12-10T18:57:09-0500
_audit_creation_method            fapswitch 2.2
_symmetry_space_group_name_H-M    P1
_symmetry_Int_Tables_number       1
_space_group_crystal_system       triclinic
_cell_length_a                    8.731927
_cell_length_b                    10.909364
_cell_length_c                    9.668373
_cell_angle_alpha                 92.413622
_cell_angle_beta                  96.390443
_cell_angle_gamma                 92.955287
_cell_volume                      913.003975304

loop_
_atom_site_label
_atom_site_type_symbol
_atom_type_description
_atom_site_fract_x
_atom_site_fract_y
_atom_site_fract_z
_atom_type_partial_charge
C1    C     C_R   0.492519 0.262309 0.496676 0.818674
C2    C     C_R   0.433584 0.925308 0.373182 -0.268852
C3    C     C_R   0.465706 0.868928 0.500625 -0.147642
C4    C     C_R   0.468790 0.943115 0.622214 0.058411
C5    C     C_3   0.576440 0.954116 0.754760 0.559644
C6    C     C_3   0.576920 0.093758 0.747716 -0.483639
C7    C     C_R   0.627047 0.542271 0.087193 0.078707
C8    C     C_R   0.391102 0.431164 0.058623 0.141201
C9    C     C_R   0.386796 0.436084 0.908859 0.514621
C10   C     C_R   0.628654 0.538186 0.941798 -0.004271
C11   C     C_3   0.726668 0.654401 0.945009 0.012731
C12   C     C_R   0.204558 0.498133 0.465009 0.871206
C13   C     C_3   0.722486 0.662911 0.103204 0.286204
C14   C     C_R   0.491852 0.737104 0.501377 0.811515
C15   C     C_R   0.795323 0.506153 0.534406 0.855964
C16   C     C_2   0.038989 0.487530 0.446590 -0.350132
C17   C     C_2   0.960353 0.525212 0.548771 -0.416533
C18   C     C_R   0.470009 0.069801 0.617135 -0.012034
C19   C     C_R   0.468935 0.128105 0.491642 -0.098217
C20   C     C_R   0.439611 0.053906 0.367044 0.144833
Cu1   Cu    Cu3+1 0.499990 0.499980 0.640670 0.966513
Cu2   Cu    Cu3+1 0.500010 0.500020 0.359330 0.935733
H1    H     H_    0.981544 0.444084 0.350106 0.164177
H2    H     H_    0.667364 0.725883 0.887579 0.202763
H3    H     H_    0.018330 0.572939 0.642257 0.149122
H4    H     H_    0.411432 0.870691 0.276722 0.176069
H5    H     H_    0.518572 0.140034 0.830510 0.213639
H6    H     H_    0.686585 0.142155 0.728445 0.167943
N1    N     N_R   0.500980 0.500930 0.148050 -0.220311
N2    N     N_R   0.500990 0.500890 0.852140 -0.240206
O1    O     O_R   0.500000 0.319640 0.618810 -0.542299
O2    O     O_R   0.500020 0.319680 0.381230 -0.578107
O3    O     O_R   0.274830 0.499980 0.591380 -0.549253
O4    O     O_R   0.274850 0.500020 0.353800 -0.596241
O5    O     O_R   0.499980 0.680320 0.618770 -0.579192
O6    O     O_R   0.500000 0.680360 0.381190 -0.601075
O7    O     O_R   0.725150 0.499980 0.646200 -0.591053
O8    O     O_R   0.725170 0.500020 0.408620 -0.579075
O9    O     O_3   0.284444 0.359263 0.819666 -0.582139
C21   C     C_3   0.128894 0.371402 0.844445 0.072315
H7    H     H_    0.068724 0.411263 0.753749 0.161352
H8    H     H_    0.112979 0.435009 0.934074 0.142512
C22   C     C_3   0.048113 0.244846 0.855495 -0.330691
H9    H     H_    0.007676 0.207239 0.748549 0.186432
H10   H     H_    0.128990 0.179739 0.904050 0.234191
C23   C     C_3   0.910672 0.252666 0.939743 -0.921620
H11   H     H_    0.948825 0.291921 0.046656 0.267637
H12   H     H_    0.857189 0.159178 0.948426 0.264844
H13   H     H_    0.823174 0.311165 0.887933 0.259686
N3    N     N_3   0.881160 0.637009 0.904948 -0.553450
H14   H     H_    0.883041 0.667230 0.804490 0.232342
H15   H     H_    0.902114 0.543734 0.900394 0.209599
N4    N     N_3   0.875211 0.657284 0.182984 -0.525651
H16   H     H_    0.863788 0.665203 0.289220 0.233415
H17   H     H_    0.919451 0.571660 0.164060 0.217046
N5    N     N_3   0.641795 0.770653 0.143972 -0.610462
H18   H     H_    0.522505 0.752108 0.124648 0.211326
H19   H     H_    0.671764 0.794986 0.249391 0.247455
N6    N     N_3   0.423590 0.106611 0.233972 -0.594982
H20   H     H_    0.511800 0.076302 0.178490 0.227082
H21   H     H_    0.318533 0.071866 0.180570 0.216707
N7    N     N_3   0.496867 0.914964 0.871893 -0.619899
H22   H     H_    0.575516 0.924584 0.961681 0.243273
H23   H     H_    0.456367 0.823178 0.854983 0.215971
O10   O     O_3   0.719293 0.896298 0.748320 -0.615151
C24   C     C_3   0.815917 0.947319 0.654008 0.043971
H24   H     H_    0.893037 0.020892 0.710357 0.155336
H25   H     H_    0.750989 0.985553 0.561783 0.143722
C25   C     C_3   0.916832 0.849097 0.601635 -0.358196
H26   H     H_    0.995848 0.819218 0.690296 0.223931
H27   H     H_    0.841926 0.769106 0.555513 0.211062
C26   C     C_3   0.014230 0.897337 0.491733 -0.894563
H28   H     H_    0.938695 0.924864 0.399392 0.260854
H29   H     H_    0.087367 0.823923 0.457829 0.262997
H30   H     H_    0.090604 0.977545 0.535418 0.260748
N8    N     N_3   0.286721 0.342950 0.109748 -0.588869
H31   H     H_    0.304449 0.335453 0.215546 0.297682
H32   H     H_    0.311993 0.257720 0.068156 0.220641

loop_
_geom_bond_atom_site_label_1
_geom_bond_atom_site_label_2
_ccdc_geom_bond_type
C8    C9    A    
C7    C10   A    
C24   H25   S    
C7    N1    A    
Cu2   N1    S    
C19   C20   A    
C8    N8    S    
N4    H16   S    
Cu1   O1    S    
C23   H13   S    
Cu2   O2    S    
C8    N1    A    
N8    H32   S    
C14   O6    A    
C5    C6    S    
C24   C25   S    
Cu1   O3    S    
Cu2   O8    S    
C11   H2    S    
C9    O9    S    
N5    H18   S    
C18   C19   A    
C25   H27   S    
C15   O7    A    
N7    H23   S    
C21   C22   S    
C6    H6    S    
C12   C16   S    
C16   C17   D    
N3    H15   S    
C13   N5    S    
C4    C18   A    
C21   H8    S    
C24   H24   S    
N6    H20   S    
Cu1   Cu2   S    
C26   H30   S    
C6    C18   S    
C13   N4    S    
N4    H17   S    
C1    O1    A    
Cu2   O4    S    
C23   H12   S    
N6    H21   S    
C1    C19   S    
C2    C20   A    
N8    H31   S    
C26   H29   S    
O9    C21   S    
C4    C5    S    
C1    O2    A    
C25   C26   S    
C22   H9    S    
C15   O8    A    
N7    H22   S    
C10   N2    A    
C6    H5    S    
N3    H14   S    
C2    H4    S    
C20   N6    S    
C22   H10   S    
C3    C14   S    
C9    N2    A    
C5    O10   S    
C21   H7    S    
C16   H1    S    
C12   O4    A    
C3    C4    A    
C14   O5    A    
C15   C17   S    
C23   H11   S    
C26   H28   S    
Cu1   O5    S    
Cu2   O6    S    
Cu1   N2    S    
C17   H3    S    
C2    C3    A    
C11   N3    S    
C11   C13   S    
N5    H19   S    
C5    N7    S    
C25   H26   S    
C22   C23   S    
C10   C11   S    
C7    C13   S    
Cu1   O7    S    
O10   C24   S    
C12   O3    A    
