data_mof_unit_49218.cif
_audit_creation_date              2012-10-26T21:00:15-0400
_audit_creation_method            fapswitch 2.2
_symmetry_space_group_name_H-M    P1
_symmetry_Int_Tables_number       1
_space_group_crystal_system       triclinic
_cell_length_a                    19.263819
_cell_length_b                    8.703621
_cell_length_c                    7.527482
_cell_angle_alpha                 102.281065
_cell_angle_beta                  94.471774
_cell_angle_gamma                 92.915977
_cell_volume                      1226.50795501

loop_
_atom_site_label
_atom_site_type_symbol
_atom_type_description
_atom_site_fract_x
_atom_site_fract_y
_atom_site_fract_z
_atom_type_partial_charge
C1    C     C_R   0.496388 0.200676 0.455502 0.565826
C2    C     C_R   0.810638 0.370082 0.396550 -0.085990
C3    C     C_R   0.146932 0.499122 0.503968 0.009415
C4    C     C_R   0.853068 0.500859 0.496060 0.009416
C5    C     C_R   0.178217 0.369738 0.404279 -0.108544
C6    C     C_R   0.821784 0.630245 0.595750 -0.108544
C7    C     C_R   0.250564 0.371384 0.404443 -0.128487
C8    C     C_R   0.749436 0.628606 0.595573 -0.128486
C9    C     C_R   0.292581 0.501481 0.505225 0.039271
C10   C     C_R   0.707419 0.498516 0.494777 0.039270
C11   C     C_R   0.929570 0.500715 0.497806 0.352093
C12   C     C_R   0.503612 0.799324 0.544497 0.565827
C13   C     C_R   0.070431 0.499261 0.502230 0.352093
C14   C     C_2   0.483137 0.035483 0.440039 0.070700
C15   C     C_2   0.516863 0.964517 0.559960 0.070700
C16   C     C_R   0.368036 0.500558 0.501790 0.550843
C17   C     C_R   0.631964 0.499442 0.498210 0.550843
C18   C     C_R   0.261749 0.631928 0.603952 0.085360
C19   C     C_R   0.738251 0.368067 0.396049 0.085360
C20   C     C_R   0.189363 0.629905 0.603463 -0.085990
Cu1   Cu    Cu3+1 0.507710 0.517380 0.684380 1.132910
Cu2   Cu    Cu3+1 0.492290 0.482620 0.315620 1.132910
H1    H     H_    0.166474 0.732003 0.679117 0.163659
H2    H     H_    0.833526 0.267983 0.320895 0.163659
H3    H     H_    0.146929 0.267423 0.325631 0.159652
H4    H     H_    0.853072 0.732555 0.674410 0.159651
H5    H     H_    0.273885 0.270705 0.326736 0.152986
H6    H     H_    0.726115 0.729287 0.673283 0.152987
I1    I     I_    0.320639 0.840749 0.742242 -0.256593
I2    I     I_    0.679359 0.159252 0.257745 -0.256590
I3    I     I_    0.394469 0.932476 0.256942 -0.213715
I4    I     I_    0.605532 0.067524 0.743054 -0.213716
I5    I     I_    0.402358 0.290168 0.903363 -0.102108
I6    I     I_    0.597642 0.709831 0.096637 -0.102109
N1    N     N_R   0.028855 0.374754 0.404134 -0.211949
N2    N     N_R   0.971146 0.625221 0.595905 -0.211950
N3    N     N_R   0.959799 0.375478 0.402039 -0.215072
N4    N     N_R   0.040202 0.624496 0.598000 -0.215072
N5    N     N_2   0.480680 0.456420 0.038530 -0.026515
N6    N     N_2   0.519320 0.543580 0.961470 -0.026515
O1    O     O_R   0.505010 0.286130 0.619770 -0.491965
O2    O     O_R   0.494990 0.713870 0.380230 -0.491965
O3    O     O_R   0.491990 0.256780 0.308370 -0.468102
O4    O     O_R   0.508010 0.743220 0.691630 -0.468102
O5    O     O_R   0.406650 0.514660 0.655750 -0.481366
O6    O     O_R   0.593350 0.485340 0.344250 -0.481365
O7    O     O_R   0.393640 0.485310 0.344340 -0.492309
O8    O     O_R   0.606360 0.514690 0.655660 -0.492310

loop_
_geom_bond_atom_site_label_1
_geom_bond_atom_site_label_2
_ccdc_geom_bond_type
C16   O5    A    
Cu2   O2    S    
C2    C4    A    
C17   O8    A    
Cu1   O4    S    
C5    C7    A    
C14   I3    S    
Cu1   O5    S    
Cu2   O3    S    
C3    C13   S    
C12   C15   S    
C10   C19   A    
Cu1   O8    S    
N2    N4    A    
Cu2   O7    S    
C3    C20   A    
C12   O4    A    
C18   I1    S    
C6    H4    S    
Cu1   Cu2   S    
C4    C11   S    
C19   I2    S    
C13   N4    A    
I5    N5    S    
Cu1   N6    S    
C5    H3    S    
Cu2   N5    S    
C6    C8    A    
C16   O7    A    
C4    C6    A    
C11   N2    A    
N1    N3    A    
C9    C16   S    
C13   N1    A    
C18   C20   A    
C2    H2    S    
C8    H6    S    
Cu1   O1    S    
C10   C17   S    
C7    C9    A    
C9    C18   A    
C15   I4    S    
C7    H5    S    
C17   O6    A    
C8    C10   A    
C1    O1    A    
N5    N6    D    
C11   N3    A    
C14   C15   D    
I6    N6    S    
C12   O2    A    
C1    C14   S    
Cu2   O6    S    
C2    C19   A    
C20   H1    S    
C1    O3    A    
C3    C5    A    
