data_mof_unit_27776.cif
_audit_creation_date              2012-12-11T14:08:32-0500
_audit_creation_method            fapswitch 2.2
_symmetry_space_group_name_H-M    P1
_symmetry_Int_Tables_number       1
_space_group_crystal_system       triclinic
_cell_length_a                    28.186697
_cell_length_b                    7.194897
_cell_length_c                    17.188279
_cell_angle_alpha                 89.999985
_cell_angle_beta                  101.739789
_cell_angle_gamma                 90.0
_cell_volume                      3412.87292138

loop_
_atom_site_label
_atom_site_type_symbol
_atom_type_description
_atom_site_fract_x
_atom_site_fract_y
_atom_site_fract_z
_atom_type_partial_charge
O1    O     O_R   0.000700 0.436510 0.857920 -0.536399
O2    O     O_R   0.999300 0.563490 0.142080 -0.536606
O3    O     O_R   0.999300 0.936510 0.642080 -0.536606
O4    O     O_R   0.000700 0.063490 0.357920 -0.536399
O5    O     O_R   0.930080 0.766380 0.721890 -0.501673
O6    O     O_R   0.069920 0.233620 0.278110 -0.501998
O7    O     O_R   0.069920 0.266380 0.778110 -0.501998
O8    O     O_R   0.930080 0.733620 0.221890 -0.501673
C1    C     C_R   0.910576 0.597790 0.708802 0.812014
C2    C     C_R   0.089417 0.402247 0.291157 0.812546
C3    C     C_R   0.089417 0.097753 0.791157 0.812546
C4    C     C_R   0.910575 0.902210 0.208802 0.812013
O9    O     O_R   0.996180 0.766230 0.862310 -0.549576
O10   O     O_R   0.003820 0.233770 0.137690 -0.549641
O11   O     O_R   0.003820 0.266230 0.637690 -0.549641
O12   O     O_R   0.996180 0.733770 0.362310 -0.549576
O13   O     O_R   0.065870 0.936460 0.783500 -0.544438
O14   O     O_R   0.934130 0.063540 0.216500 -0.544616
O15   O     O_R   0.934130 0.436460 0.716500 -0.544616
O16   O     O_R   0.065870 0.563540 0.283500 -0.544438
C5    C     C_R   0.998482 0.596459 0.894485 0.765954
C6    C     C_R   0.001518 0.403541 0.105515 0.765132
C7    C     C_R   0.001518 0.096459 0.605515 0.765131
C8    C     C_R   0.998482 0.903541 0.394485 0.765954
O17   O     O_3   0.022790 0.603020 0.723980 -0.380803
O18   O     O_3   0.977210 0.396980 0.276020 -0.380539
O19   O     O_3   0.977210 0.103020 0.776020 -0.380539
O20   O     O_3   0.022790 0.896980 0.223980 -0.380803
V1    V     V_3+5 0.995770 0.877900 0.754830 1.529646
V2    V     V_3+5 0.004230 0.122100 0.245170 1.529464
V3    V     V_3+5 0.004230 0.377900 0.745170 1.529464
V4    V     V_3+5 0.995770 0.622100 0.254830 1.529646
C9    C     C_2   0.001710 0.082649 0.519554 -0.299364
C10   C     C_2   0.998291 0.917351 0.480446 -0.299585
C11   C     C_2   0.998291 0.582649 0.980446 -0.299585
C12   C     C_2   0.001710 0.417351 0.019554 -0.299364
H1    H     H_    0.004508 0.211466 0.487842 0.149534
H2    H     H_    0.995492 0.788534 0.512158 0.149369
H3    H     H_    0.995492 0.711466 0.012158 0.149369
H4    H     H_    0.004508 0.288534 0.987842 0.149534
C13   C     C_R   0.683713 0.948636 0.027051 0.782433
C14   C     C_R   0.315908 0.027931 0.971556 0.783782
C15   C     C_R   0.315908 0.472068 0.471555 0.783781
C16   C     C_R   0.683713 0.551364 0.527051 0.782432
O21   O     O_2   0.713639 0.935046 0.975222 -0.417044
O22   O     O_2   0.285744 0.022147 0.023221 -0.417230
O23   O     O_2   0.285744 0.477852 0.523220 -0.417230
O24   O     O_2   0.713639 0.564955 0.475222 -0.417044
N1    N     N_R   0.702952 0.952259 0.106755 -0.537621
N2    N     N_R   0.296931 0.046273 0.892196 -0.536260
N3    N     N_R   0.296931 0.453727 0.392196 -0.536260
N4    N     N_R   0.702952 0.547741 0.606755 -0.537621
C17   C     C_R   0.673921 0.968645 0.161254 0.774022
C18   C     C_R   0.326135 0.051312 0.837676 0.770781
C19   C     C_R   0.326135 0.448688 0.337675 0.770782
C20   C     C_R   0.673921 0.531354 0.661254 0.774022
C21   C     C_R   0.782053 0.093396 0.165686 0.700436
C22   C     C_R   0.217909 0.906623 0.832485 0.701033
C23   C     C_R   0.217909 0.593376 0.332484 0.701032
C24   C     C_R   0.782053 0.406604 0.665687 0.700435
C25   C     C_R   0.832436 0.080667 0.190017 -0.318071
C26   C     C_R   0.167519 0.919658 0.808399 -0.316844
C27   C     C_R   0.167519 0.580342 0.308399 -0.316844
C28   C     C_R   0.832437 0.419332 0.690017 -0.318071
C29   C     C_R   0.829108 0.755715 0.151824 0.535918
C30   C     C_R   0.170879 0.242966 0.849139 0.537228
C31   C     C_R   0.170879 0.257033 0.349139 0.537228
C32   C     C_R   0.829108 0.744285 0.651824 0.535919
C33   C     C_R   0.778688 0.769367 0.127034 0.599984
C34   C     C_R   0.221307 0.228881 0.873769 0.596850
C35   C     C_R   0.221307 0.271118 0.373769 0.596850
C36   C     C_R   0.778688 0.730633 0.627034 0.599984
C37   C     C_R   0.754843 0.938080 0.133702 -0.015892
C38   C     C_R   0.245081 0.060882 0.865617 -0.011414
C39   C     C_R   0.245081 0.439118 0.365616 -0.011413
C40   C     C_R   0.754843 0.561919 0.633702 -0.015891
C41   C     C_R   0.602316 0.976952 0.053953 -0.184452
C42   C     C_R   0.397550 0.021107 0.944433 -0.183586
C43   C     C_R   0.397550 0.478892 0.444432 -0.183587
C44   C     C_R   0.602316 0.523048 0.553953 -0.184452
C45   C     C_R   0.633150 0.959998 0.998952 -0.184198
C46   C     C_R   0.366461 0.014896 0.999403 -0.184163
C47   C     C_R   0.366461 0.485103 0.499403 -0.184164
C48   C     C_R   0.633150 0.540002 0.498952 -0.184198
C49   C     C_R   0.612738 0.953701 0.917370 0.685017
C50   C     C_R   0.386581 0.994128 0.080628 0.687966
C51   C     C_R   0.386581 0.505871 0.580628 0.687967
C52   C     C_R   0.612739 0.546300 0.417370 0.685017
C53   C     C_R   0.622870 0.982781 0.136302 -0.030557
C54   C     C_R   0.377234 0.038593 0.862318 -0.028790
C55   C     C_R   0.377235 0.461407 0.362317 -0.028789
C56   C     C_R   0.622870 0.517218 0.636301 -0.030558
C57   C     C_R   0.856781 0.912059 0.183510 -0.373658
C58   C     C_R   0.143200 0.087642 0.816273 -0.372654
C59   C     C_R   0.143200 0.412358 0.316273 -0.372654
C60   C     C_R   0.856781 0.587941 0.683510 -0.373659
C61   C     C_R   0.479874 0.009022 0.916268 0.070883
C62   C     C_R   0.520118 0.998706 0.081924 0.070851
C63   C     C_R   0.520118 0.501293 0.581924 0.070851
C64   C     C_R   0.479874 0.490978 0.416268 0.070882
C65   C     C_R   0.468800 0.998785 0.054510 -0.024502
C66   C     C_R   0.530963 0.988585 0.943556 -0.024259
C67   C     C_R   0.530963 0.511415 0.443556 -0.024259
C68   C     C_R   0.468800 0.501214 0.554510 -0.024502
C69   C     C_R   0.448889 0.009615 0.971768 0.079727
C70   C     C_R   0.550987 0.988151 0.026428 0.079729
C71   C     C_R   0.550987 0.511848 0.526428 0.079729
C72   C     C_R   0.448889 0.490384 0.471768 0.079727
C73   C     C_R   0.458660 0.030556 0.834943 -0.242934
C74   C     C_R   0.541694 0.011820 0.163424 -0.244133
C75   C     C_R   0.541694 0.488178 0.663424 -0.244132
C76   C     C_R   0.458660 0.469444 0.334942 -0.242934
C77   C     C_R   0.408562 0.044330 0.807836 0.231460
C78   C     C_R   0.591856 0.003727 0.190747 0.233181
C79   C     C_R   0.591856 0.496271 0.690747 0.233180
C80   C     C_R   0.408562 0.455670 0.307836 0.231460
O25   O     O_2   0.305547 0.069516 0.760052 -0.429122
O26   O     O_2   0.694599 0.969282 0.239251 -0.426156
O27   O     O_2   0.694599 0.530716 0.739250 -0.426156
O28   O     O_2   0.305547 0.430484 0.260052 -0.429122
C81   C     C_R   0.562912 0.966896 0.890565 -0.301097
C82   C     C_R   0.436490 0.985728 0.107291 -0.304133
C83   C     C_R   0.436490 0.514271 0.607290 -0.304132
C84   C     C_R   0.562912 0.533105 0.390565 -0.301098
H5    H     H_    0.147585 0.797844 0.783157 0.234676
H6    H     H_    0.852348 0.203323 0.214317 0.237120
H7    H     H_    0.852348 0.296677 0.714317 0.237120
H8    H     H_    0.147585 0.702156 0.283156 0.234676
H9    H     H_    0.480077 0.041817 0.789947 0.118800
H10   H     H_    0.520587 0.033816 0.208290 0.118632
H11   H     H_    0.520587 0.466182 0.708290 0.118632
H12   H     H_    0.480077 0.458184 0.289947 0.118800
H13   H     H_    0.550555 0.955097 0.827249 0.149099
H14   H     H_    0.448583 0.964041 0.170202 0.150061
H15   H     H_    0.448583 0.535957 0.670201 0.150061
H16   H     H_    0.550555 0.544904 0.327249 0.149099
F1    F     F_    0.850659 0.590488 0.142932 -0.619634
F2    F     F_    0.149309 0.407379 0.859369 -0.618757
F3    F     F_    0.149309 0.092621 0.359370 -0.618757
F4    F     F_    0.850659 0.909512 0.642932 -0.619634
F5    F     F_    0.752859 0.618089 0.096002 -0.548905
F6    F     F_    0.247199 0.378866 0.906133 -0.551803
F7    F     F_    0.247199 0.121134 0.406133 -0.551804
F8    F     F_    0.752859 0.881911 0.596001 -0.548905
F9    F     F_    0.640689 0.933720 0.862173 -0.601120
F10   F     F_    0.358244 0.980816 0.135559 -0.597553
F11   F     F_    0.358244 0.519184 0.635559 -0.597553
F12   F     F_    0.640689 0.566281 0.362173 -0.601121
F13   F     F_    0.240318 0.743119 0.824152 -0.556861
F14   F     F_    0.759700 0.257767 0.172561 -0.555211
F15   F     F_    0.759700 0.242233 0.672561 -0.555211
F16   F     F_    0.240318 0.756881 0.324151 -0.556861
N5    N     N_3   0.390134 0.064408 0.724113 -0.525510
H17   H     H_    0.401500 0.949801 0.695218 0.247756
H18   H     H_    0.405516 0.183575 0.704714 0.246168
N6    N     N_3   0.610702 0.019100 0.274546 -0.523910
H19   H     H_    0.599299 0.146058 0.294059 0.244569
H20   H     H_    0.595665 0.912671 0.303204 0.251454
N7    N     N_3   0.610702 0.480897 0.774546 -0.523910
H21   H     H_    0.599299 0.353938 0.794059 0.244569
H22   H     H_    0.595665 0.587324 0.803204 0.251454
N8    N     N_3   0.390134 0.435593 0.224113 -0.525511
H23   H     H_    0.401500 0.550200 0.195218 0.247756
H24   H     H_    0.405516 0.316426 0.204713 0.246167

loop_
_geom_bond_atom_site_label_1
_geom_bond_atom_site_label_2
_ccdc_geom_bond_type
O17   V3    S    
C51   C83   A    
N1    C17   A    
C22   C26   A    
O1    C5    A    
C62   C74   A    
O19   V1    S    
O13   V1    S    
O3    C7    A    
C11   C12   D    
C14   C46   A    
C76   C80   A    
C52   C84   A    
O15   V3    S    
O4    V2    S    
C68   C83   A    
C23   F16   S    
C42   C54   A    
O7    C3    A    
C44   C71   A    
C41   C53   A    
C32   C60   A    
C51   F11   S    
C42   C69   A    
C80   N8    S    
C41   C70   A    
C49   F9    S    
C18   C54   A    
N2    C38   S    
O4    C8    A    
C25   C57   A    
C31   C35   A    
C33   F5    S    
C27   C59   A    
O1    V3    S    
C15   C47   A    
C55   C80   A    
O2    V4    S    
C14   O22   S    
C54   C77   A    
C21   C37   A    
O3    V1    S    
C34   C38   A    
C82   H14   S    
C19   C55   A    
C13   N1    A    
C1    O15   A    
C2    O16   A    
C7    C9    S    
O2    C6    A    
N7    H22   S    
C33   C37   A    
C25   H6    S    
O14   V2    S    
O8    C4    A    
N5    H18   S    
C66   C81   A    
C31   F3    S    
C74   C78   A    
O5    V1    S    
C61   C66   A    
C22   F13   S    
C73   C77   A    
C30   C58   A    
C29   F1    S    
C16   N4    A    
O11   C7    A    
C63   C68   A    
C63   C75   A    
O12   C8    A    
C31   C59   A    
O10   V2    S    
C67   C84   A    
C50   F10   S    
C78   N6    S    
C27   H8    S    
N8    H24   S    
C19   O28   S    
C65   C69   A    
C34   F6    S    
C64   C72   A    
C84   H16   S    
C44   C48   A    
O8    V4    S    
C12   H4    S    
O7    V3    S    
C28   C60   A    
C17   O26   S    
N4    C40   S    
C46   C50   A    
C24   C40   A    
C64   C67   A    
C8    C10   S    
C79   N7    S    
C24   F15   S    
N6    H19   S    
C44   C56   A    
C11   H3    S    
O5    C1    A    
C61   C73   A    
C42   C46   A    
N7    H21   S    
C30   F2    S    
C41   C45   A    
C32   C36   A    
C28   H7    S    
C13   C45   A    
C21   F14   S    
C9    C10   D    
C52   F12   S    
O9    C5    A    
C36   C40   A    
N2    C18   A    
C76   H12   S    
O11   V3    S    
C1    C60   S    
C14   N2    A    
C5    C11   S    
C3    C58   S    
C75   H11   S    
O6    V2    S    
C64   C76   A    
C26   C58   A    
C17   C53   A    
C20   O27   S    
N1    C37   S    
C4    C57   S    
C32   F4    S    
C4    O14   A    
C23   C39   A    
C68   C72   A    
C63   C71   A    
C22   C38   A    
C35   F7    S    
N8    H23   S    
O16   V4    S    
O9    V1    S    
C36   F8    S    
C53   C78   A    
C3    O13   A    
C10   H2    S    
C43   C55   A    
C48   C52   A    
C77   N5    S    
C16   C48   A    
C47   C51   A    
O6    C2    A    
C26   H5    S    
C75   C79   A    
C21   C25   A    
O18   V4    S    
O12   V4    S    
C62   C65   A    
C6    C12   S    
C23   C27   A    
C65   C82   A    
C62   C70   A    
N3    C39   S    
C24   C28   A    
C49   C81   A    
O10   C6    A    
N6    H20   S    
C61   C69   A    
C35   C39   A    
C15   N3    A    
C30   C34   A    
C2    C59   S    
C29   C33   A    
O20   V2    S    
C29   C57   A    
C43   C72   A    
C74   H10   S    
N3    C19   A    
C50   C82   A    
C56   C79   A    
C9    H1    S    
C43   C47   A    
N4    C20   A    
C20   C56   A    
C18   O25   S    
C66   C70   A    
C83   H15   S    
C13   O21   S    
C67   C71   A    
C81   H13   S    
N5    H17   S    
C73   H9    S    
C15   O23   S    
C45   C49   A    
C16   O24   S    
