data_mof_unit_37628.cif
_audit_creation_date              2012-12-11T14:54:28-0500
_audit_creation_method            fapswitch 2.2
_symmetry_space_group_name_H-M    P1
_symmetry_Int_Tables_number       1
_space_group_crystal_system       triclinic
_cell_length_a                    18.995018
_cell_length_b                    10.952826
_cell_length_c                    18.911378
_cell_angle_alpha                 89.800313
_cell_angle_beta                  89.891359
_cell_angle_gamma                 89.835552
_cell_volume                      3934.44858402

loop_
_atom_site_label
_atom_site_type_symbol
_atom_type_description
_atom_site_fract_x
_atom_site_fract_y
_atom_site_fract_z
_atom_type_partial_charge
C1    C     C_R   0.730284 0.376125 0.645918 0.544351
C2    C     C_R   0.271382 0.374280 0.355217 0.551753
C3    C     C_R   0.230284 0.876125 0.645918 0.544351
C4    C     C_R   0.771382 0.874280 0.355217 0.551753
C5    C     C_3   0.560307 0.342085 0.448310 -0.253663
C6    C     C_3   0.573284 0.343799 0.527315 -0.215842
C7    C     C_3   0.060307 0.842084 0.448310 -0.253664
C8    C     C_3   0.073284 0.843799 0.527315 -0.215842
C9    C     C_R   0.687964 0.921378 0.532251 -0.141323
C10   C     C_R   0.288775 0.848740 0.458816 -0.138431
C11   C     C_R   0.187964 0.421378 0.532251 -0.141324
C12   C     C_R   0.788775 0.348741 0.458816 -0.138431
C13   C     C_R   0.694074 0.909817 0.459385 -0.114113
C14   C     C_R   0.286889 0.830333 0.531447 -0.094652
C15   C     C_R   0.194074 0.409817 0.459385 -0.114113
C16   C     C_R   0.786889 0.330334 0.531447 -0.094651
C17   C     C_R   0.760740 0.901255 0.429313 0.003001
C18   C     C_R   0.249613 0.912071 0.574899 0.008968
C19   C     C_R   0.260740 0.401255 0.429313 0.003001
C20   C     C_R   0.749613 0.412071 0.574899 0.008968
C21   C     C_R   0.821173 0.908364 0.471873 -0.093502
C22   C     C_R   0.214445 0.011085 0.545551 -0.107252
C23   C     C_R   0.321173 0.408364 0.471873 -0.093502
C24   C     C_R   0.714445 0.511085 0.545551 -0.107253
C25   C     C_R   0.815810 0.924656 0.543734 0.139869
C26   C     C_R   0.209582 0.022539 0.473321 0.138901
C27   C     C_R   0.315810 0.424656 0.543734 0.139869
C28   C     C_R   0.709582 0.522539 0.473321 0.138901
C29   C     C_R   0.748741 0.929817 0.574744 0.025052
C30   C     C_R   0.250135 0.944398 0.428952 0.019823
C31   C     C_R   0.248741 0.429817 0.574744 0.025052
C32   C     C_R   0.750135 0.444398 0.428952 0.019823
C33   C     C_R   0.475576 0.063608 0.955916 -0.119863
C34   C     C_R   0.466027 0.060099 0.028010 -0.089129
C35   C     C_R   0.975573 0.563612 0.955915 -0.119864
C36   C     C_R   0.966022 0.560102 0.028009 -0.089128
C37   C     C_R   0.481911 0.162301 0.069728 0.040691
C38   C     C_R   0.502753 0.168300 0.923996 0.017827
C39   C     C_R   0.981911 0.662301 0.069728 0.040692
C40   C     C_R   0.002754 0.668301 0.923996 0.017827
C41   C     C_R   0.504440 0.270597 0.037551 -0.145916
C42   C     C_R   0.515237 0.273490 0.964673 -0.134798
C43   C     C_R   0.004445 0.770595 0.037552 -0.145916
C44   C     C_R   0.015241 0.773489 0.964674 -0.134796
C45   C     C_R   0.531754 0.155243 0.646844 0.571786
C46   C     C_R   0.464856 0.152612 0.355476 0.562597
C47   C     C_R   0.031754 0.655243 0.646844 0.571786
C48   C     C_R   0.964856 0.652612 0.355476 0.562597
C49   C     C_R   0.815169 0.927313 0.956820 -0.118213
C50   C     C_R   0.202218 0.005710 0.030093 -0.140003
C51   C     C_R   0.315169 0.427316 0.956821 -0.118213
C52   C     C_R   0.702220 0.505713 0.030092 -0.140002
C53   C     C_R   0.820725 0.916430 0.029114 -0.142553
C54   C     C_R   0.201612 0.994909 0.957837 -0.166344
C55   C     C_R   0.320725 0.416433 0.029114 -0.142553
C56   C     C_R   0.701613 0.494912 0.957837 -0.166343
C57   C     C_R   0.760357 0.899662 0.071355 0.040828
C58   C     C_R   0.248842 0.915990 0.923955 0.035835
C59   C     C_R   0.260357 0.399663 0.071355 0.040828
C60   C     C_R   0.748843 0.415990 0.923955 0.035834
C61   C     C_R   0.693841 0.889218 0.039482 0.131943
C62   C     C_R   0.302081 0.856317 0.963986 0.137252
C63   C     C_R   0.193840 0.389219 0.039483 0.131945
C64   C     C_R   0.802081 0.356316 0.963986 0.137250
C65   C     C_R   0.688664 0.900888 0.966502 -0.105498
C66   C     C_R   0.302885 0.869761 0.037078 -0.113795
C67   C     C_R   0.188664 0.400888 0.966502 -0.105498
C68   C     C_R   0.802885 0.369760 0.037078 -0.113797
C69   C     C_R   0.749036 0.923608 0.925370 -0.003115
C70   C     C_R   0.252332 0.942421 0.070437 -0.002839
C71   C     C_R   0.249036 0.423608 0.925370 -0.003116
C72   C     C_R   0.752332 0.442422 0.070436 -0.002839
C73   C     C_R   0.740866 0.971316 0.646852 0.557817
C74   C     C_R   0.259118 0.974526 0.354529 0.553917
C75   C     C_R   0.240866 0.471316 0.646852 0.557818
C76   C     C_R   0.759118 0.474526 0.354529 0.553917
C77   C     C_R   0.730009 0.377891 0.852641 0.564635
C78   C     C_R   0.271938 0.374704 0.145903 0.570902
C79   C     C_R   0.230009 0.877891 0.852641 0.564635
C80   C     C_R   0.771939 0.874704 0.145902 0.570902
C81   C     C_R   0.532240 0.157550 0.853332 0.552838
C82   C     C_R   0.464124 0.156439 0.144481 0.555714
C83   C     C_R   0.032240 0.657550 0.853332 0.552837
C84   C     C_R   0.964125 0.656439 0.144481 0.555713
C85   C     C_R   0.740984 0.970731 0.854221 0.550819
C86   C     C_R   0.259574 0.974901 0.144313 0.539907
C87   C     C_R   0.240984 0.470731 0.854221 0.550818
C88   C     C_R   0.759574 0.474902 0.144312 0.539907
C89   C     C_R   0.484029 0.150853 0.430046 -0.023753
C90   C     C_R   0.497996 0.163021 0.578096 0.012308
C91   C     C_R   0.984030 0.650853 0.430046 -0.023753
C92   C     C_R   0.997996 0.663022 0.578096 0.012308
C93   C     C_R   0.499244 0.260498 0.462673 -0.034320
C94   C     C_R   0.510592 0.263725 0.534513 0.028777
C95   C     C_R   0.999244 0.760498 0.462673 -0.034320
C96   C     C_R   0.010592 0.763725 0.534513 0.028777
C97   C     C_R   0.469362 0.057401 0.547288 0.153599
C98   C     C_R   0.470316 0.045883 0.473435 0.152011
C99   C     C_R   0.969362 0.557401 0.547288 0.153599
C100  C     C_R   0.970316 0.545883 0.473435 0.152011
Cr1   Cr    Cr6+3 0.771950 0.169480 0.750100 1.133354
Cr2   Cr    Cr6+3 0.228050 0.169480 0.249900 1.113958
Cr3   Cr    Cr6+3 0.271950 0.669480 0.750100 1.133354
Cr4   Cr    Cr6+3 0.728050 0.669480 0.249900 1.113958
Cr5   Cr    Cr6+3 0.614930 0.323340 0.749170 1.060778
Cr6   Cr    Cr6+3 0.385070 0.323340 0.250830 1.043989
Cr7   Cr    Cr6+3 0.114930 0.823340 0.749170 1.060778
Cr8   Cr    Cr6+3 0.885070 0.823340 0.250830 1.043989
Cr9   Cr    Cr6+3 0.616590 0.010620 0.750610 1.076163
Cr10  Cr    Cr6+3 0.383410 0.010620 0.249390 1.089050
Cr11  Cr    Cr6+3 0.116590 0.510620 0.750610 1.076164
Cr12  Cr    Cr6+3 0.883410 0.510620 0.249390 1.089051
H1    H     H_    0.862262 0.944314 0.925905 0.169837
H2    H     H_    0.164081 0.066810 0.053933 0.180304
H3    H     H_    0.362261 0.444317 0.925906 0.169837
H4    H     H_    0.664083 0.566815 0.053933 0.180305
H5    H     H_    0.873001 0.920033 0.051771 0.154813
H6    H     H_    0.161174 0.044018 0.928964 0.155129
H7    H     H_    0.373001 0.420038 0.051772 0.154812
H8    H     H_    0.661176 0.544022 0.928964 0.155129
H9    H     H_    0.636825 0.899792 0.942710 0.171908
H10   H     H_    0.343644 0.824861 0.067692 0.160506
H11   H     H_    0.136826 0.399792 0.942710 0.171909
H12   H     H_    0.843643 0.324859 0.067692 0.160507
H13   H     H_    0.042592 0.931253 0.426542 0.212210
H14   H     H_    0.122524 0.795686 0.542589 0.126327
H15   H     H_    0.542592 0.431253 0.426542 0.212210
H16   H     H_    0.622524 0.295686 0.542589 0.126327
H17   H     H_    0.603047 0.296515 0.417850 0.134731
H18   H     H_    0.564819 0.434975 0.551504 0.217005
H19   H     H_    0.103047 0.796515 0.417850 0.134731
H20   H     H_    0.064819 0.934975 0.551504 0.217005
H21   H     H_    0.635710 0.930351 0.554755 0.179558
H22   H     H_    0.318549 0.786522 0.425828 0.174182
H23   H     H_    0.135711 0.430351 0.554755 0.179559
H24   H     H_    0.818549 0.286522 0.425828 0.174182
H25   H     H_    0.647258 0.906531 0.426833 0.190619
H26   H     H_    0.312433 0.750059 0.553222 0.196114
H27   H     H_    0.147258 0.406531 0.426833 0.190619
H28   H     H_    0.812433 0.250059 0.553222 0.196114
H29   H     H_    0.873455 0.901499 0.449288 0.176024
H30   H     H_    0.183484 0.071570 0.578675 0.172799
H31   H     H_    0.373455 0.401499 0.449288 0.176024
H32   H     H_    0.683484 0.571570 0.578675 0.172799
H33   H     H_    0.465324 0.981921 0.925629 0.185650
H34   H     H_    0.445842 0.976493 0.050922 0.173743
H35   H     H_    0.965317 0.481927 0.925627 0.185648
H36   H     H_    0.945835 0.476497 0.050920 0.173738
H37   H     H_    0.514734 0.351429 0.068661 0.135152
H38   H     H_    0.536774 0.355455 0.940945 0.148481
H39   H     H_    0.014742 0.851425 0.068663 0.135151
H40   H     H_    0.036782 0.855452 0.940947 0.148481
O1    O     O_R   0.787510 0.042610 0.670410 -0.459000
O2    O     O_R   0.212490 0.042610 0.329590 -0.465471
O3    O     O_R   0.287510 0.542610 0.670410 -0.459000
O4    O     O_R   0.712490 0.542610 0.329590 -0.465471
O5    O     O_R   0.556450 0.252890 0.823790 -0.501695
O6    O     O_R   0.443550 0.252890 0.176210 -0.514327
O7    O     O_R   0.056450 0.752890 0.823790 -0.501696
O8    O     O_R   0.943550 0.752890 0.176210 -0.514328
O9    O     O_R   0.545750 0.051070 0.830560 -0.504941
O10   O     O_R   0.454250 0.051070 0.169440 -0.491596
O11   O     O_R   0.045750 0.551070 0.830560 -0.504939
O12   O     O_R   0.954250 0.551070 0.169440 -0.491595
O13   O     O_R   0.681210 0.959150 0.825320 -0.513501
O14   O     O_R   0.318790 0.959150 0.174680 -0.514236
O15   O     O_R   0.181210 0.459150 0.825320 -0.513501
O16   O     O_R   0.818790 0.459150 0.174680 -0.514236
O17   O     O_3   0.667820 0.167810 0.749960 -0.288875
O18   O     O_3   0.332180 0.167810 0.250040 -0.287882
O19   O     O_3   0.167820 0.667810 0.749960 -0.288875
O20   O     O_3   0.832180 0.667810 0.250040 -0.287883
O21   O     O_R   0.765670 0.292090 0.675090 -0.478497
O22   O     O_R   0.234330 0.292090 0.324910 -0.456943
O23   O     O_R   0.265670 0.792090 0.675090 -0.478497
O24   O     O_R   0.734330 0.792090 0.324910 -0.456943
O25   O     O_R   0.670220 0.409020 0.668560 -0.529082
O26   O     O_R   0.329780 0.409020 0.331440 -0.523779
O27   O     O_R   0.170220 0.909020 0.668560 -0.529082
O28   O     O_R   0.829780 0.909020 0.331440 -0.523778
O29   O     O_R   0.556580 0.251590 0.674980 -0.488394
O30   O     O_R   0.443420 0.251590 0.325020 -0.503371
O31   O     O_R   0.056580 0.751590 0.674980 -0.488394
O32   O     O_R   0.943420 0.751590 0.325020 -0.503371
O33   O     O_R   0.545890 0.049670 0.670030 -0.471673
O34   O     O_R   0.454110 0.049670 0.329970 -0.456238
O35   O     O_R   0.045890 0.549670 0.670030 -0.471674
O36   O     O_R   0.954110 0.549670 0.329970 -0.456238
O37   O     O_R   0.681340 0.957860 0.676500 -0.514718
O38   O     O_R   0.318660 0.957860 0.323500 -0.487119
O39   O     O_R   0.181340 0.457860 0.676500 -0.514718
O40   O     O_R   0.818660 0.457860 0.323500 -0.487119
O41   O     O_R   0.787380 0.044010 0.830940 -0.469687
O42   O     O_R   0.212620 0.044010 0.169060 -0.508037
O43   O     O_R   0.287380 0.544010 0.830940 -0.469689
O44   O     O_R   0.712620 0.544010 0.169060 -0.508037
O45   O     O_R   0.765540 0.293390 0.823910 -0.444874
O46   O     O_R   0.234460 0.293390 0.176090 -0.458552
O47   O     O_R   0.265540 0.793390 0.823910 -0.444874
O48   O     O_R   0.734460 0.793390 0.176090 -0.458552
O49   O     O_R   0.670090 0.410410 0.829090 -0.531134
O50   O     O_R   0.329910 0.410410 0.170910 -0.527985
O51   O     O_R   0.170090 0.910410 0.829090 -0.531135
O52   O     O_R   0.829910 0.910410 0.170910 -0.527984
Br1   Br    Br    0.434391 0.924148 0.605095 -0.409085
Br2   Br    Br    0.465950 0.880433 0.437227 -0.406824
Br3   Br    Br    0.934390 0.424148 0.605095 -0.409085
Br4   Br    Br    0.965950 0.380433 0.437227 -0.406824
Br5   Br    Br    0.608305 0.867638 0.092370 -0.508235
Br6   Br    Br    0.375405 0.755444 0.924768 -0.516371
Br7   Br    Br    0.108305 0.367638 0.092369 -0.508229
Br8   Br    Br    0.875404 0.255441 0.924769 -0.516368
Br9   Br    Br    0.902071 0.948230 0.595082 -0.477968
Br10  Br    Br    0.138202 0.136574 0.443014 -0.487098
Br11  Br    Br    0.402071 0.448231 0.595082 -0.477968
Br12  Br    Br    0.638202 0.636574 0.443014 -0.487098

loop_
_geom_bond_atom_site_label_1
_geom_bond_atom_site_label_2
_ccdc_geom_bond_type
Cr2   O18   S    
C49   H1    S    
C49   C53   A    
C58   C62   A    
C93   C94   A    
C55   C59   A    
C34   C37   A    
C56   H8    S    
C41   C42   A    
C88   O44   A    
Cr1   O21   S    
C95   C96   A    
C8    C96   S    
C6    H18   S    
C45   O33   A    
C68   H12   S    
C97   C98   A    
Cr10  O10   S    
C45   O29   A    
C7    C8    S    
Cr4   O24   S    
C46   C89   S    
Cr7   O19   S    
C15   C19   A    
C10   H22   S    
C44   H40   S    
Cr5   O17   S    
C37   C41   A    
C52   C72   A    
C64   C68   A    
C85   O13   A    
Cr9   O17   S    
C39   C84   S    
C48   O36   A    
C83   O11   A    
Cr2   O46   S    
C5    C6    S    
C30   C74   S    
C53   H5    S    
C41   H37   S    
C9    H21   S    
C5    H15   S    
Cr12  O16   S    
Cr5   O49   S    
C92   C96   A    
Cr8   O28   S    
C3    C18   S    
C26   Br10  S    
C47   C92   S    
Cr1   O45   S    
C78   O50   A    
C9    C13   A    
Cr6   O30   S    
C3    O27   A    
C73   O37   A    
C74   O38   A    
C11   C15   A    
C36   H36   S    
C87   O15   A    
C14   H26   S    
Cr9   O37   S    
C6    C94   S    
C48   C91   S    
C86   O14   A    
Cr7   O31   S    
C8    H20   S    
C12   H24   S    
C40   C44   A    
C66   H10   S    
Cr1   O17   S    
C2    O26   A    
C65   H9    S    
C91   C100  A    
Cr2   O2    S    
C90   C97   A    
C67   C71   A    
C84   O12   A    
C9    C29   A    
Cr6   O26   S    
Cr4   O20   S    
C5    H17   S    
C11   C31   A    
Cr3   O19   S    
C49   C69   A    
C12   C32   A    
C27   Br11  S    
Cr4   O48   S    
C40   C83   S    
C23   H31   S    
C16   H28   S    
C1    O25   A    
C4    O28   A    
C75   O39   A    
Cr2   O42   S    
C59   C78   S    
C72   C88   S    
Cr1   O41   S    
C90   C94   A    
C15   H27   S    
C52   H4    S    
C100  Br4   S    
Cr12  O12   S    
Cr5   O5    S    
C60   C77   S    
C59   C63   A    
C81   O5    A    
Cr8   O32   S    
C27   C31   A    
C12   C16   A    
Cr11  O39   S    
C28   C32   A    
Cr11  O11   S    
C47   O31   A    
C10   C14   A    
Cr5   O25   S    
C28   Br12  S    
Cr3   O43   S    
C62   C66   A    
Cr3   O47   S    
C82   O10   A    
C51   C55   A    
C88   O16   A    
Cr6   O6    S    
C74   O2    A    
C76   O4    A    
C51   H3    S    
C56   C60   A    
C99   Br3   S    
C68   C72   A    
C50   H2    S    
C35   C36   A    
C13   H25   S    
C61   Br5   S    
C19   C23   A    
C43   C44   A    
C63   C67   A    
Cr7   O51   S    
C76   O40   A    
C69   C85   S    
C11   H23   S    
Cr6   O50   S    
C10   C30   A    
C31   C75   S    
C99   C100  A    
Cr1   O1    S    
C16   C20   A    
C1    O21   A    
Cr7   O7    S    
C22   H30   S    
Cr3   O23   S    
C33   C34   A    
C62   Br6   S    
C83   O7    A    
C35   H35   S    
C87   O43   A    
C46   O34   A    
C97   Br1   S    
C45   C90   S    
C33   H33   S    
Cr12  O40   S    
C71   C87   S    
C4    C17   S    
C58   C79   S    
C8    H14   S    
C7    H13   S    
C57   C80   S    
C26   C30   A    
Cr9   O13   S    
C23   C27   A    
C54   H6    S    
C38   C81   S    
C22   C26   A    
C37   C82   S    
Cr4   O4    S    
Cr11  O15   S    
C47   O35   A    
C70   C86   S    
Cr10  O18   S    
C43   H39   S    
C48   O32   A    
Cr12  O36   S    
C54   C58   A    
Cr3   O3    S    
C65   C69   A    
C21   C25   A    
Cr10  O34   S    
C1    C20   S    
C53   C57   A    
C79   O47   A    
Cr7   O27   S    
C2    C19   S    
C18   C22   A    
C6    H16   S    
C7    H19   S    
C14   C18   A    
C36   C39   A    
C98   Br2   S    
C24   C28   A    
C63   Br7   S    
C77   O49   A    
C32   C76   S    
C5    C93   S    
C51   C71   A    
C57   C61   A    
C84   O8    A    
Cr8   O8    S    
Cr2   O22   S    
C7    C95   S    
Cr11  O35   S    
C33   C38   A    
C13   C17   A    
C89   C98   A    
C60   C64   A    
C79   O51   A    
Cr9   O33   S    
C46   O30   A    
C25   Br9   S    
C35   C40   A    
C50   C70   A    
C21   H29   S    
C67   H11   S    
C50   C54   A    
Cr9   O9    S    
C86   O42   A    
C25   C29   A    
C81   O9    A    
Cr10  O14   S    
C85   O41   A    
C66   C70   A    
C24   H32   S    
Cr8   O20   S    
C82   O6    A    
Cr10  O38   S    
Cr11  O19   S    
C61   C65   A    
C89   C93   A    
C42   H38   S    
C17   C21   A    
C4    O24   A    
C91   C95   A    
C38   C42   A    
C75   O3    A    
C55   H7    S    
C29   C73   S    
C39   C43   A    
Cr8   O52   S    
Cr6   O18   S    
C73   O1    A    
C34   H34   S    
C64   Br8   S    
C3    O23   A    
C78   O46   A    
Cr5   O29   S    
C80   O52   A    
C77   O45   A    
C20   C24   A    
C2    O22   A    
C52   C56   A    
C92   C99   A    
Cr4   O44   S    
Cr12  O20   S    
C80   O48   A    
