data_mof_unit_20886.cif
_audit_creation_date              2012-12-10T19:27:27-0500
_audit_creation_method            fapswitch 2.2
_symmetry_space_group_name_H-M    P1
_symmetry_Int_Tables_number       1
_space_group_crystal_system       triclinic
_cell_length_a                    23.435544
_cell_length_b                    10.483004
_cell_length_c                    9.771138
_cell_angle_alpha                 89.612112
_cell_angle_beta                  90.007178
_cell_angle_gamma                 90.227778
_cell_volume                      2400.44937505

loop_
_atom_site_label
_atom_site_type_symbol
_atom_type_description
_atom_site_fract_x
_atom_site_fract_y
_atom_site_fract_z
_atom_type_partial_charge
C1    C     C_R   0.500021 0.257550 0.500519 0.867380
C2    C     C_R   0.499973 0.742450 0.499481 0.868321
C3    C     C_R   0.237582 0.511261 0.619710 -0.088845
C4    C     C_R   0.761962 0.497828 0.624444 -0.092105
C5    C     C_R   0.296806 0.514799 0.621012 -0.207650
C6    C     C_R   0.702746 0.496923 0.624553 -0.191110
C7    C     C_R   0.327316 0.495312 0.499371 -0.045345
C8    C     C_R   0.672782 0.502002 0.500164 -0.048071
C9    C     C_R   0.297969 0.470982 0.376945 -0.192836
C10   C     C_R   0.702777 0.508818 0.375930 -0.210751
C11   C     C_R   0.238813 0.466611 0.376223 -0.074830
C12   C     C_R   0.761977 0.509891 0.376223 -0.084981
C13   C     C_R   0.208694 0.487337 0.497340 0.283440
C14   C     C_R   0.791498 0.503962 0.500336 0.288798
C15   C     C_3   0.500168 0.039227 0.630784 -0.125394
C16   C     C_3   0.499817 0.960776 0.369214 -0.125188
C17   C     C_3   0.547040 0.957439 0.564155 -0.169334
C18   C     C_3   0.452946 0.042565 0.435843 -0.168045
C19   C     C_3   0.499970 0.877598 0.498370 0.013400
C20   C     C_3   0.500016 0.122404 0.501629 0.013638
C21   C     C_3   0.453096 0.956673 0.564827 -0.174749
C22   C     C_3   0.546889 0.043329 0.435172 -0.176014
C23   C     C_R   0.389481 0.499161 0.499948 0.863022
C24   C     C_R   0.610548 0.500470 0.500018 0.862808
C25   C     C_3   0.483159 0.390132 0.049682 -0.223060
C26   C     C_3   0.516839 0.609866 0.950315 -0.224435
C27   C     C_3   0.533215 0.415229 0.953441 0.562275
C28   C     C_3   0.466785 0.584770 0.046554 0.561525
C29   C     C_3   0.449089 0.477009 0.951363 -0.219797
C30   C     C_3   0.550909 0.522993 0.048630 -0.219500
C31   C     C_R   0.881283 0.608459 0.460345 0.595880
C32   C     C_R   0.119099 0.387157 0.550918 0.592522
C33   C     C_R   0.879216 0.392486 0.537913 0.543969
C34   C     C_R   0.120903 0.589560 0.438159 0.554741
C35   C     C_R   0.938933 0.389719 0.546493 -0.171701
C36   C     C_R   0.061238 0.598323 0.444561 -0.168797
C37   C     C_R   0.970047 0.495373 0.494517 -0.099984
C38   C     C_R   0.030122 0.491388 0.493521 -0.097280
C39   C     C_R   0.940988 0.604945 0.444139 -0.204289
C40   C     C_R   0.059128 0.380807 0.541701 -0.207448
C41   C     C_R   0.967978 0.281773 0.598658 0.383817
C42   C     C_R   0.032145 0.708430 0.397683 0.348830
C43   C     C_R   0.027136 0.271438 0.583326 0.417088
C44   C     C_R   0.972639 0.707305 0.384596 0.422412
H1    H     H_    0.469946 0.297677 0.096099 0.149168
H2    H     H_    0.530049 0.702324 0.903900 0.149681
H3    H     H_    0.406355 0.459784 0.905909 0.149167
H4    H     H_    0.593640 0.540264 0.094047 0.145410
H5    H     H_    0.214035 0.527936 0.713210 0.153105
H6    H     H_    0.785001 0.493356 0.720432 0.146761
H7    H     H_    0.318579 0.533898 0.716534 0.159591
H8    H     H_    0.680566 0.491724 0.721690 0.180559
H9    H     H_    0.320617 0.454874 0.282030 0.173641
H10   H     H_    0.680640 0.513084 0.278722 0.159061
H11   H     H_    0.216240 0.448126 0.281646 0.156977
H12   H     H_    0.785032 0.514268 0.280239 0.153113
H13   H     H_    0.585267 0.917819 0.616115 0.150628
H14   H     H_    0.414719 0.082195 0.383886 0.149993
H15   H     H_    0.500335 0.075273 0.737389 0.168252
H16   H     H_    0.499651 0.924731 0.262609 0.168081
H17   H     H_    0.414987 0.916428 0.617316 0.149987
H18   H     H_    0.584999 0.083571 0.382683 0.150089
N1    N     N_R   0.852247 0.501739 0.499956 -0.365152
N2    N     N_R   0.147954 0.487734 0.495135 -0.364771
N3    N     N_3   0.499960 0.500030 0.863290 -0.091917
N4    N     N_3   0.500040 0.499970 0.136710 -0.092026
O1    O     O_R   0.500000 0.313960 0.616610 -0.580348
O2    O     O_R   0.500000 0.686040 0.383390 -0.580458
O3    O     O_R   0.500030 0.313950 0.383350 -0.635263
O4    O     O_R   0.499970 0.686050 0.616650 -0.634882
O5    O     O_R   0.416140 0.499970 0.616650 -0.633217
O6    O     O_R   0.583860 0.500030 0.383350 -0.633223
O7    O     O_R   0.416170 0.499960 0.383400 -0.584809
O8    O     O_R   0.583830 0.500040 0.616600 -0.586576
O9    O     O_2   0.852070 0.717721 0.442658 -0.453210
O10   O     O_2   0.148871 0.296833 0.618270 -0.463143
O11   O     O_2   0.847929 0.286535 0.563325 -0.505763
O12   O     O_2   0.152142 0.680649 0.374400 -0.502668
Zn1   Zn    Zn3+2 0.499980 0.500010 0.655740 0.990119
Zn2   Zn    Zn3+2 0.500020 0.499990 0.344260 0.990447
O13   O     O_3   0.939698 0.186367 0.669204 -0.614222
H19   H     H_    0.914232 0.228152 0.736260 0.358378
O14   O     O_3   0.060838 0.819993 0.367044 -0.606649
H20   H     H_    0.086933 0.837453 0.444596 0.379983
O15   O     O_3   0.569199 0.323458 0.897163 -0.751244
H21   H     H_    0.586361 0.278413 0.976507 0.311142
O16   O     O_3   0.430805 0.676556 0.102819 -0.745502
H22   H     H_    0.413694 0.721688 0.023467 0.312062
S1    S     S_3+6 0.057991 0.117475 0.609147 0.133455
O17   O     O_2   0.102820 0.093493 0.502410 -0.234277
O18   O     O_2   0.084575 0.111939 0.749111 -0.234180
O19   O     O_3   0.008381 0.001507 0.597480 -0.432109
H23   H     H_    0.026033 0.925340 0.640222 0.366441
S2    S     S_3+6 0.940428 0.831530 0.285056 0.139040
O20   O     O_2   0.983356 0.895120 0.192495 -0.192825
O21   O     O_2   0.893587 0.777135 0.197616 -0.276182
O22   O     O_3   0.913195 0.941495 0.390981 -0.423387
H24   H     H_    0.897064 0.008050 0.329995 0.391337

loop_
_geom_bond_atom_site_label_1
_geom_bond_atom_site_label_2
_ccdc_geom_bond_type
O2    Zn2   S    
O16   H22   S    
N3    Zn1   S    
C18   C21   S    
C36   C42   A    
C24   O8    A    
O5    Zn1   S    
O22   H24   S    
C3    H5    S    
O15   H21   S    
C43   S1    S    
C29   H3    S    
C30   H4    S    
C28   C29   S    
C19   C21   S    
C2    O2    A    
C33   C35   A    
C15   C17   S    
C16   H16   S    
C27   O15   S    
C8    C24   S    
C18   H14   S    
C40   C43   A    
S1    O18   D    
C21   H17   S    
C3    C13   A    
C2    C19   S    
C27   C30   S    
C41   C43   A    
C42   C44   A    
C23   O7    A    
C35   C41   A    
O13   H19   S    
C25   C29   S    
C15   C20   S    
C42   O14   S    
C31   N1    A    
O1    Zn1   S    
C32   N2    A    
C4    C6    A    
C5    C7    A    
C17   C19   S    
C6    C8    A    
S2    O22   S    
C1    O3    A    
O6    Zn2   S    
C4    H6    S    
C28   N4    S    
C37   C38   A    
C27   N3    S    
C23   O5    A    
C22   H18   S    
C31   O9    S    
O14   H20   S    
C33   N1    A    
C41   O13   S    
C28   O16   S    
C34   N2    A    
C12   H12   S    
S1    O19   S    
S2    O21   D    
C9    C11   A    
C30   N4    S    
C10   C12   A    
C29   N3    S    
C8    C10   A    
C20   C22   S    
C26   C30   S    
O8    Zn1   S    
C9    H9    S    
C25   H1    S    
C11   H11   S    
C24   O6    A    
C7    C9    A    
C1    C20   S    
C16   C22   S    
C35   C37   A    
O4    Zn1   S    
C26   N3    S    
C15   H15   S    
C25   N4    S    
C12   C14   A    
C3    C5    A    
C32   O10   S    
C39   C44   A    
C25   C27   S    
N4    Zn2   S    
C26   C28   S    
C17   C22   S    
C36   C38   A    
C37   C39   A    
C34   O12   S    
C38   C40   A    
C11   C13   A    
C33   O11   S    
C13   N2    S    
C16   C19   S    
C7    C23   S    
C14   N1    S    
O19   H23   S    
C1    O1    A    
O7    Zn2   S    
C31   C39   A    
C18   C20   S    
C32   C40   A    
C4    C14   A    
S2    O20   D    
C10   H10   S    
C44   S2    S    
C26   H2    S    
C15   C21   S    
C34   C36   A    
C16   C18   S    
C5    H7    S    
O3    Zn2   S    
C6    H8    S    
S1    O17   D    
C2    O4    A    
C17   H13   S    
