data_mof_unit_48659.cif
_audit_creation_date              2012-12-11T20:55:35-0500
_audit_creation_method            fapswitch 2.2
_symmetry_space_group_name_H-M    P1
_symmetry_Int_Tables_number       1
_space_group_crystal_system       triclinic
_cell_length_a                    8.261446
_cell_length_b                    19.119673
_cell_length_c                    22.788029
_cell_angle_alpha                 99.913077
_cell_angle_beta                  90.039785
_cell_angle_gamma                 91.944029
_cell_volume                      3543.64992941

loop_
_atom_site_label
_atom_site_type_symbol
_atom_type_description
_atom_site_fract_x
_atom_site_fract_y
_atom_site_fract_z
_atom_type_partial_charge
Ba1   Ba    Ba6+2 0.157290 0.533910 0.474710 1.651257
Ba2   Ba    Ba6+2 0.652900 0.466090 0.525240 1.645795
C1    C     C_3   0.360292 0.743399 0.266674 -0.345156
C2    C     C_R   0.989114 0.272020 0.479477 0.054107
C3    C     C_R   0.138693 0.187324 0.549828 -0.156126
C4    C     C_3   0.925674 0.722334 0.347888 0.390376
C5    C     C_R   0.205295 0.254337 0.544957 -0.000134
C6    C     C_R   0.675796 0.809978 0.447379 -0.164629
C7    C     C_R   0.606314 0.744249 0.454421 -0.003001
C8    C     C_R   0.860199 0.801795 0.527680 -0.148319
C9    C     C_R   0.822008 0.727823 0.520257 0.055338
C10   C     C_R   0.020136 0.153552 0.508437 0.001342
C11   C     C_R   0.119800 0.298781 0.515373 -0.245423
C12   C     C_3   0.415817 0.716265 0.322046 0.330921
C13   C     C_R   0.794578 0.844904 0.488059 0.000660
C14   C     C_R   0.687973 0.701210 0.486397 -0.241929
C15   C     C_R   0.233052 0.034526 0.534550 -0.082267
C16   C     C_3   0.944014 0.793142 0.326113 -0.366591
C17   C     C_R   0.329546 0.982591 0.550180 -0.081133
C18   C     C_R   0.282527 0.912203 0.533460 -0.063790
C19   C     C_R   0.133910 0.894940 0.505297 -0.079961
C20   C     C_R   0.015859 0.946123 0.504521 0.014966
C21   C     C_R   0.069704 0.019695 0.515619 0.032586
C22   C     C_R   0.851907 0.923749 0.489026 -0.008763
C23   C     C_3   0.483963 0.684154 0.619180 0.306798
C24   C     C_R   0.747021 0.978493 0.477279 0.018211
C25   C     C_R   0.800136 0.051998 0.489713 0.013444
C26   C     C_R   0.963317 0.074472 0.505839 -0.009742
C27   C     C_R   0.588459 0.964026 0.452782 -0.088040
C28   C     C_3   0.820821 0.374957 0.342202 0.300025
C29   C     C_R   0.499685 0.016468 0.432742 0.162800
C30   C     C_R   0.543792 0.086866 0.453211 -0.055678
C31   C     C_R   0.682966 0.103001 0.487569 -0.120205
C32   C     C_R   0.643967 0.524181 0.335375 -0.302820
C33   C     C_R   0.366090 0.562919 0.948418 -0.024948
C34   C     C_3   0.491170 0.764581 0.636846 -0.377096
C35   C     C_R   0.317211 0.559336 0.888633 0.585657
C36   C     C_R   0.247722 0.434958 0.880806 0.583080
C37   C     C_R   0.298627 0.436403 0.940179 -0.022782
C38   C     C_R   0.357971 0.500877 0.974103 -0.052339
C39   C     C_R   0.423397 0.627079 0.983045 -0.075686
C40   C     C_3   0.815226 0.355911 0.274589 -0.359041
C41   C     C_R   0.471939 0.629674 0.042073 -0.077285
C42   C     C_R   0.465949 0.568067 0.068161 -0.019819
C43   C     C_R   0.409333 0.503366 0.033989 -0.053491
C44   C     C_R   0.292874 0.374814 0.966282 -0.076806
C45   C     C_3   0.886660 0.283941 0.650000 0.363672
C46   C     C_R   0.345863 0.377054 0.024838 -0.073282
C47   C     C_R   0.404340 0.441139 0.059381 -0.024184
C48   C     C_R   0.458219 0.444367 0.118663 0.587336
C49   C     C_R   0.514398 0.569932 0.127779 0.586291
C50   C     C_2   0.063863 0.476532 0.773265 -0.070410
C51   C     C_3   0.019829 0.482677 0.709666 -0.058559
C52   C     C_3   0.997939 0.632268 0.660038 0.298619
C53   C     C_1   0.302720 0.511450 0.694164 0.016402
C54   C     C_2   0.343814 0.510978 0.750235 -0.090897
C55   C     C_2   0.217862 0.492885 0.793212 0.217567
C56   C     C_3   0.879383 0.211982 0.670014 -0.360918
C57   C     C_R   0.707850 0.544379 0.235872 -0.098776
C58   C     C_R   0.750039 0.550315 0.296114 -0.038938
C59   C     C_R   0.500883 0.487596 0.314543 0.035954
C60   C     C_R   0.455920 0.482797 0.254557 -0.084947
C61   C     C_R   0.557945 0.512050 0.214616 0.211210
C62   C     C_2   0.169153 0.478184 0.671082 -0.281610
C63   C     C_3   0.036178 0.661935 0.725155 -0.359819
C64   C     C_3   0.320035 0.317323 0.393780 0.312669
C65   C     C_3   0.314433 0.236857 0.376123 -0.371452
C66   C     C_3   0.389071 0.294379 0.679711 0.308649
C67   C     C_3   0.454265 0.280470 0.738845 -0.356555
C68   C     C_R   0.954912 0.197762 0.469706 -0.148947
H1    H     H_    0.413642 0.657141 0.312747 0.040656
H2    H     H_    0.197100 0.335312 0.405667 0.000144
H3    H     H_    0.402297 0.332034 0.432789 0.082602
H4    H     H_    0.241918 0.718066 0.250755 0.157274
H5    H     H_    0.228480 0.220314 0.338406 0.129200
H6    H     H_    0.274029 0.211872 0.414274 0.057847
H7    H     H_    0.436884 0.218060 0.362647 0.130357
H8    H     H_    0.541534 0.737171 0.331489 -0.042845
H9    H     H_    0.450508 0.730826 0.230783 0.137906
H10   H     H_    0.607851 0.666121 0.607615 0.016778
H11   H     H_    0.403657 0.670312 0.579492 0.075856
H12   H     H_    0.730719 0.309575 0.260711 0.140374
H13   H     H_    0.573445 0.780649 0.675743 0.130771
H14   H     H_    0.537336 0.789118 0.599096 0.057137
H15   H     H_    0.368186 0.784079 0.648523 0.125661
H16   H     H_    0.349310 0.801981 0.276628 0.103721
H17   H     H_    0.888413 0.835825 0.357988 0.069316
H18   H     H_    0.792457 0.283469 0.615084 0.098197
H19   H     H_    0.007758 0.292820 0.631708 -0.057837
H20   H     H_    0.888628 0.168822 0.630970 0.070849
H21   H     H_    0.980552 0.208593 0.701408 0.119128
H22   H     H_    0.762580 0.204368 0.692506 0.141471
H23   H     H_    0.772988 0.401226 0.254991 0.069419
H24   H     H_    0.263578 0.271346 0.673944 -0.021645
H25   H     H_    0.387896 0.352886 0.681360 0.041971
H26   H     H_    0.372662 0.302873 0.775320 0.137341
H27   H     H_    0.576591 0.305918 0.747645 0.158180
H28   H     H_    0.983967 0.727684 0.392523 0.070023
H29   H     H_    0.461313 0.222404 0.738032 0.111823
H30   H     H_    0.872079 0.176083 0.433948 0.078426
H31   H     H_    0.180727 0.163154 0.586222 0.065148
H32   H     H_    0.638232 0.831228 0.408968 0.061343
H33   H     H_    0.946112 0.823970 0.562250 0.077608
H34   H     H_    0.938020 0.342545 0.257258 0.130214
H35   H     H_    0.161654 0.353348 0.517216 0.061943
H36   H     H_    0.642056 0.647735 0.487317 0.065521
H37   H     H_    0.297249 0.083538 0.533323 0.073485
H38   H     H_    0.450304 0.996455 0.567897 0.077250
H39   H     H_    0.366867 0.871666 0.538558 0.099722
H40   H     H_    0.794737 0.709221 0.351382 -0.090079
H41   H     H_    0.110491 0.841299 0.483578 0.125955
H42   H     H_    0.522940 0.915100 0.451520 0.066750
H43   H     H_    0.466188 0.128591 0.445011 0.098870
H44   H     H_    0.703653 0.156175 0.510579 0.135401
H45   H     H_    0.110988 0.613884 0.637421 0.021154
H46   H     H_    0.340130 0.328335 0.043090 0.124532
H47   H     H_    0.248345 0.324438 0.941331 0.121715
H48   H     H_    0.514848 0.680223 0.067201 0.120754
H49   H     H_    0.791708 0.564204 0.205610 0.108750
H50   H     H_    0.430756 0.675661 0.964614 0.124347
H51   H     H_    0.073859 0.807963 0.322146 0.142448
H52   H     H_    0.467385 0.524260 0.765393 0.103312
H53   H     H_    0.969377 0.465730 0.803899 0.095550
H54   H     H_    0.342433 0.456022 0.238978 0.118223
H55   H     H_    0.678409 0.527938 0.381658 0.080443
H56   H     H_    0.908276 0.587294 0.657164 0.036233
H57   H     H_    0.167989 0.447537 0.626263 0.064191
H58   H     H_    0.884014 0.789357 0.282000 0.122000
H59   H     H_    0.697516 0.387204 0.358672 0.011193
H60   H     H_    0.903571 0.422143 0.354901 0.063055
H61   H     H_    0.259701 0.024053 0.415910 0.174272
H62   H     H_    0.332978 0.944174 0.388406 0.177838
H63   H     H_    0.118497 0.709611 0.728287 0.147397
H64   H     H_    0.096666 0.622291 0.746837 0.082886
H65   H     H_    0.922630 0.677041 0.749429 0.119876
N1    N     N_R   0.260196 0.495724 0.855425 -0.428511
N2    N     N_R   0.510026 0.508572 0.152664 -0.424380
N3    N     N_3   0.359527 0.998850 0.394968 -0.496708
O1    O     O_2   0.108070 0.674980 0.540650 -0.457385
O2    O     O_2   0.687084 0.445223 0.697573 -0.480467
O3    O     O_3   0.861133 0.337028 0.699238 -0.595637
O4    O     O_3   0.861930 0.586170 0.535430 -0.486967
O5    O     O_3   0.451480 0.461630 0.428900 -0.494405
O6    O     O_2   0.599240 0.538720 0.642170 -0.458518
O7    O     O_3   0.423872 0.653663 0.667010 -0.634938
O8    O     O_2   0.528140 0.246964 0.517835 -0.507750
O9    O     O_3   0.488496 0.262150 0.633566 -0.597488
O10   O     O_2   0.324190 0.612993 0.866168 -0.593549
O11   O     O_2   0.193582 0.379529 0.851524 -0.604740
O12   O     O_3   0.374932 0.347318 0.345341 -0.627156
O13   O     O_2   0.460744 0.389829 0.139787 -0.596650
O14   O     O_2   0.559217 0.626490 0.157768 -0.621290
O15   O     O_3   0.366390 0.628250 0.433820 -0.461522
O16   O     O_2   0.287781 0.751619 0.485853 -0.503422
O17   O     O_3   0.932108 0.686364 0.634707 -0.636066
O18   O     O_3   0.313122 0.740833 0.369779 -0.590900
O19   O     O_2   0.211060 0.461230 0.357810 -0.458329
O20   O     O_3   0.958150 0.591500 0.402390 -0.485355
O21   O     O_2   0.083835 0.538879 0.296473 -0.477850
O22   O     O_3   0.000647 0.669984 0.307276 -0.585557
O23   O     O_2   0.702240 0.324970 0.459330 -0.461031
O24   O     O_3   0.948380 0.413820 0.464520 -0.492287
O25   O     O_3   0.443920 0.371740 0.566130 -0.462068
O26   O     O_3   0.876276 0.316705 0.364995 -0.630922
O27   O     O_3   0.358830 0.538360 0.571050 -0.480178
O28   O     O_3   0.852160 0.408490 0.597560 -0.488002
P1    P     P_3+3 0.933470 0.664380 0.557030 0.983020
P2    P     P_3+3 0.383600 0.440030 0.365120 0.993994
P3    P     P_3+3 0.948214 0.586833 0.325030 0.969042
P4    P     P_3+3 0.876840 0.335610 0.442930 0.982055
P5    P     P_3+3 0.855394 0.419395 0.675689 0.973485
P6    P     P_3+3 0.395639 0.718182 0.434326 0.933323
P7    P     P_3+3 0.417830 0.561113 0.645730 0.958126
P8    P     P_3+3 0.414229 0.281914 0.566799 0.924147

loop_
_geom_bond_atom_site_label_1
_geom_bond_atom_site_label_2
_ccdc_geom_bond_type
C23   H11   S    
C53   C54   D    
C40   H23   S    
Ba2   O6    S    
C12   H1    S    
C27   H42   S    
O26   P4    S    
C17   C18   A    
C40   H12   S    
C28   O26   S    
C67   H26   S    
C1    H9    S    
Ba2   O24   S    
C60   H54   S    
C48   N2    Am   
C52   C63   S    
C25   C31   A    
C52   H56   S    
C31   H44   S    
C15   C21   A    
C2    P4    S    
C10   C26   S    
C58   P3    S    
C4    H28   S    
C8    H33   S    
C33   C35   A    
C7    C14   A    
C22   C24   A    
C64   O12   S    
C8    C13   A    
C15   H37   S    
C36   C37   A    
C50   H53   S    
Ba1   P1    S    
C34   H13   S    
H62   N3    S    
C23   H10   S    
C5    P8    S    
O3    P5    S    
C54   C55   S    
O19   P2    D    
Ba1   Ba2   S    
C2    C11   A    
C1    H4    S    
C53   P7    S    
Ba1   O4    S    
C16   H58   S    
O4    P1    S    
C48   O13   D    
C64   H2    S    
O17   P1    S    
C66   C67   S    
C65   H7    S    
O6    P7    D    
C42   C43   A    
O22   P3    S    
C55   N1    S    
C36   N1    Am   
C30   H43   S    
C56   H21   S    
Ba2   O28   S    
C36   O11   D    
C63   H64   S    
Ba1   O1    S    
C14   H36   S    
C46   H46   S    
C17   H38   S    
C64   C65   S    
O28   P5    S    
C35   O10   D    
C19   C20   A    
C52   H45   S    
C1    H16   S    
C32   C58   A    
Ba2   O5    S    
C61   N2    S    
Ba2   O23   S    
C2    C68   A    
C19   H41   S    
C68   H30   S    
C44   C46   A    
C38   C43   A    
C4    C16   S    
C3    H31   S    
O9    P8    S    
C66   H25   S    
C9    P1    S    
C3    C10   A    
C11   H35   S    
C8    C9    A    
C37   C38   A    
C3    C5    A    
C6    C7    A    
C23   C34   S    
Ba1   P2    S    
C28   H60   S    
C64   H3    S    
O18   P6    S    
C32   C59   A    
C66   H24   S    
C44   H47   S    
C54   H52   S    
C4    H40   S    
O1    P1    D    
C41   C42   A    
C57   C58   A    
C60   C61   A    
Ba1   O5    S    
C9    C14   A    
C29   C30   A    
O24   P4    S    
C43   C47   A    
C62   H57   S    
O12   P2    S    
C53   C62   D    
C24   C25   A    
C35   N1    Am   
O16   P6    D    
C21   C26   A    
C29   N3    S    
Ba1   O15   S    
C56   H20   S    
Ba2   O27   S    
C63   H65   S    
C66   O9    S    
Ba2   P4    S    
C37   C44   A    
O23   P4    D    
C49   N2    Am   
C42   C49   A    
C46   C47   A    
O7    P7    S    
C49   O14   D    
C45   H19   S    
O2    P5    D    
Ba2   O4    S    
C20   C22   A    
C65   H5    S    
C15   C17   A    
C67   H29   S    
C52   O17   S    
C50   C51   S    
C10   C68   A    
C13   C22   S    
C57   H49   S    
O21   P3    D    
C12   O18   S    
Ba1   O27   S    
C39   C41   A    
C40   H34   S    
Ba2   O25   S    
Ba1   O24   S    
C4    O22   S    
O20   P3    S    
C1    C12   S    
C34   H15   S    
C6    C13   A    
C28   H59   S    
C16   H51   S    
C45   O3    S    
C57   C61   A    
C16   H17   S    
C59   P2    S    
C45   H18   S    
Ba1   O19   S    
C33   C38   A    
C27   C29   A    
H61   N3    S    
C30   C31   A    
C45   C56   S    
Ba1   O20   S    
C56   H22   S    
C34   H14   S    
C32   H55   S    
O8    P8    D    
O15   P6    S    
O27   P7    S    
C51   C62   S    
C12   H8    S    
C39   H50   S    
C59   C60   A    
C33   C39   A    
O5    P2    S    
C50   C55   D    
C51   P5    S    
C41   H48   S    
C18   H39   S    
C5    C11   A    
C18   C19   A    
C24   C27   A    
C47   C48   A    
C25   C26   A    
C20   C21   A    
C28   C40   S    
C7    P6    S    
C23   O7    S    
C65   H6    S    
O25   P8    S    
C6    H32   S    
C63   H63   S    
C67   H27   S    
