data_mof_unit_48982.cif
_audit_creation_date              2012-12-10T20:44:06-0500
_audit_creation_method            fapswitch 2.2
_symmetry_space_group_name_H-M    P1
_symmetry_Int_Tables_number       1
_space_group_crystal_system       triclinic
_cell_length_a                    17.502236
_cell_length_b                    10.584761
_cell_length_c                    9.96225
_cell_angle_alpha                 90.503117
_cell_angle_beta                  91.07789
_cell_angle_gamma                 90.723026
_cell_volume                      1845.02782508

loop_
_atom_site_label
_atom_site_type_symbol
_atom_type_description
_atom_site_fract_x
_atom_site_fract_y
_atom_site_fract_z
_atom_type_partial_charge
C1    C     C_R   0.500651 0.260802 0.499504 0.880646
C2    C     C_R   0.113511 0.449831 0.491931 0.170940
C3    C     C_R   0.438372 0.063392 0.453947 0.071952
C4    C     C_R   0.353548 0.497775 0.498914 0.846255
C5    C     C_R   0.503731 0.128678 0.497034 -0.117580
C6    C     C_R   0.572408 0.065135 0.526014 0.165960
C7    C     C_R   0.570030 0.933842 0.528460 -0.271343
C8    C     C_R   0.501125 0.870820 0.499977 -0.108083
C9    C     C_R   0.437343 0.934329 0.453479 0.126085
C10   C     C_3   0.357459 0.927465 0.503413 -0.488960
C11   C     C_3   0.358754 0.070675 0.505336 -0.509616
C12   C     C_R   0.885077 0.456544 0.491386 0.163591
C13   C     C_R   0.436383 0.463269 0.066769 0.087703
C14   C     C_R   0.556838 0.557415 0.076241 -0.125274
C15   C     C_R   0.555818 0.562865 0.932977 0.184012
C16   C     C_R   0.499209 0.739083 0.500408 0.890384
C17   C     C_R   0.439785 0.453526 0.927583 0.132660
C18   C     C_3   0.395594 0.331724 0.918507 -0.079426
C19   C     C_3   0.379619 0.354154 0.069167 -0.116868
C20   C     C_R   0.646267 0.499354 0.500836 0.851982
C21   C     C_R   0.844923 0.409130 0.599873 -0.175684
C22   C     C_R   0.766544 0.425471 0.604540 -0.213156
C23   C     C_1   0.965229 0.446349 0.489948 -0.073126
C24   C     C_R   0.728737 0.489940 0.501142 -0.015700
C25   C     C_R   0.769625 0.537023 0.392326 -0.210478
C26   C     C_R   0.847980 0.520580 0.387767 -0.166127
C27   C     C_3   0.616336 0.645449 0.871663 -0.370199
C28   C     C_3   0.695689 0.589101 0.890259 -0.882005
C29   C     C_3   0.443128 0.212406 0.882988 -0.302347
C30   C     C_3   0.529115 0.217847 0.917525 -0.819491
C31   C     C_3   0.389839 0.244779 0.167681 -0.273045
C32   C     C_3   0.325090 0.146725 0.150214 -0.967221
C33   C     C_3   0.647645 0.133317 0.552556 -0.430501
C34   C     C_1   0.033039 0.444152 0.490035 -0.075037
C35   C     C_3   0.686276 0.164084 0.420492 -0.847070
C36   C     C_R   0.152428 0.460619 0.614919 -0.169246
C37   C     C_R   0.231050 0.478072 0.617346 -0.211596
C38   C     C_R   0.270703 0.484862 0.496355 -0.030673
C39   C     C_R   0.230838 0.473443 0.373139 -0.215528
C40   C     C_R   0.152171 0.455993 0.371081 -0.172040
H1    H     H_    0.874075 0.359433 0.680098 0.135169
H2    H     H_    0.735298 0.383528 0.685689 0.145946
H3    H     H_    0.741020 0.586266 0.311199 0.143308
H4    H     H_    0.879625 0.558194 0.304265 0.132626
H5    H     H_    0.121896 0.457477 0.708522 0.130036
H6    H     H_    0.260523 0.486512 0.713608 0.146842
H7    H     H_    0.260198 0.478238 0.278696 0.150745
H8    H     H_    0.121449 0.449251 0.275749 0.130319
H9    H     H_    0.693828 0.486209 0.868777 0.263343
H10   H     H_    0.736402 0.635760 0.821723 0.256652
H11   H     H_    0.716756 0.603751 0.995162 0.240191
H12   H     H_    0.620994 0.880979 0.553422 0.137056
H13   H     H_    0.604721 0.664333 0.765477 0.261825
H14   H     H_    0.615947 0.739965 0.921246 0.171884
H15   H     H_    0.553077 0.121571 0.908438 0.226519
H16   H     H_    0.560139 0.279199 0.846782 0.271935
H17   H     H_    0.540502 0.253091 0.021082 0.247402
H18   H     H_    0.418623 0.127587 0.930670 0.201305
H19   H     H_    0.435891 0.192410 0.774745 0.208702
H20   H     H_    0.272321 0.182374 0.197063 0.256738
H21   H     H_    0.311271 0.125936 0.043216 0.264790
H22   H     H_    0.341490 0.057198 0.199506 0.265554
H23   H     H_    0.317018 0.886383 0.426990 0.203164
H24   H     H_    0.446175 0.199284 0.159706 0.230012
H25   H     H_    0.384170 0.283354 0.270185 0.240642
H26   H     H_    0.693799 0.076515 0.360128 0.256851
H27   H     H_    0.651512 0.231664 0.361473 0.270281
H28   H     H_    0.743504 0.206941 0.441077 0.258987
H29   H     H_    0.639144 0.221114 0.611711 0.206668
H30   H     H_    0.686554 0.073373 0.613447 0.203770
H31   H     H_    0.353906 0.885260 0.605017 0.204191
H32   H     H_    0.318134 0.112613 0.432027 0.215828
H33   H     H_    0.355996 0.111593 0.608031 0.192662
H34   H     H_    0.602551 0.602839 0.134076 0.154709
H35   H     H_    0.342900 0.339629 0.855279 0.109951
H36   H     H_    0.321432 0.393856 0.080925 0.130237
N1    N     N_R   0.499490 0.499140 0.142800 -0.120088
N2    N     N_R   0.499490 0.499180 0.857150 -0.125278
O1    O     O_R   0.500010 0.316790 0.614690 -0.625767
O2    O     O_R   0.500000 0.316760 0.385350 -0.634593
O3    O     O_R   0.389120 0.500020 0.614710 -0.619738
O4    O     O_R   0.389110 0.499990 0.385370 -0.628520
O5    O     O_R   0.500000 0.683240 0.614650 -0.638693
O6    O     O_R   0.499990 0.683210 0.385310 -0.607749
O7    O     O_R   0.610890 0.500010 0.614630 -0.626489
O8    O     O_R   0.610880 0.499980 0.385290 -0.621260
Zn1   Zn    Zn3+2 0.500010 0.500020 0.653130 0.919221
Zn2   Zn    Zn3+2 0.499990 0.499980 0.346870 0.927363

loop_
_geom_bond_atom_site_label_1
_geom_bond_atom_site_label_2
_ccdc_geom_bond_type
N2    Zn1   S    
O5    Zn1   S    
C18   H35   S    
C10   H23   S    
C19   C31   S    
C25   H3    S    
O1    Zn1   S    
C27   H14   S    
C26   H4    S    
C7    C8    A    
C12   C23   S    
C37   C38   A    
C1    C5    S    
C14   H34   S    
C19   H36   S    
C32   H21   S    
C5    C6    A    
C28   H11   S    
O8    Zn2   S    
C15   N2    A    
C30   H17   S    
C16   O6    A    
C40   H8    S    
C18   C19   S    
C14   N1    A    
C28   H10   S    
C4    O3    A    
C20   C24   S    
N1    Zn2   S    
C8    C9    A    
C20   O8    A    
C9    C10   S    
C33   H29   S    
C10   H31   S    
C2    C34   S    
C8    C16   S    
C21   C22   A    
O7    Zn1   S    
C38   C39   A    
C13   N1    A    
C13   C19   S    
C29   H19   S    
C24   C25   A    
C11   H33   S    
C39   C40   A    
C11   H32   S    
C35   H26   S    
C25   C26   A    
C30   H16   S    
C12   C21   A    
C16   O5    A    
C12   C26   A    
C29   C30   S    
C3    C9    A    
C28   H9    S    
C15   C27   S    
C31   C32   S    
C35   H27   S    
C23   C34   T    
C20   O7    A    
C17   C18   S    
C36   H5    S    
C18   C29   S    
O3    Zn1   S    
C33   H30   S    
C21   H1    S    
C4    C38   S    
C1    O1    A    
C22   C24   A    
C32   H20   S    
C39   H7    S    
C2    C36   A    
C31   H25   S    
C36   C37   A    
C31   H24   S    
O6    Zn2   S    
C3    C5    A    
C7    H12   S    
C27   H13   S    
C6    C7    A    
C30   H15   S    
C6    C33   S    
C13   C17   A    
C32   H22   S    
O2    Zn2   S    
C22   H2    S    
C35   H28   S    
O4    Zn2   S    
C17   N2    A    
C33   C35   S    
C3    C11   S    
C10   C11   S    
C2    C40   A    
C4    O4    A    
C29   H18   S    
C27   C28   S    
C1    O2    A    
C14   C15   A    
C37   H6    S    
