data_mof_unit_19638.cif
_audit_creation_date              2013-03-05T15:49:18-0500
_audit_creation_method            fapswitch 2.2
_symmetry_space_group_name_H-M    P1
_symmetry_Int_Tables_number       1
_space_group_crystal_system       triclinic
_cell_length_a                    20.761908
_cell_length_b                    22.807451
_cell_length_c                    6.938248
_cell_angle_alpha                 90.004269
_cell_angle_beta                  87.125439
_cell_angle_gamma                 89.908915
_cell_volume                      3281.30401974

loop_
_atom_site_label
_atom_site_type_symbol
_atom_site_description
_atom_site_fract_x
_atom_site_fract_y
_atom_site_fract_z
_atom_type_partial_charge
O1    O     O_R   0.387100 0.552640 0.378490 -0.577533
O2    O     O_R   0.612900 0.052640 0.621510 -0.574206
O3    O     O_R   0.249610 0.559600 0.072250 -0.552261
O4    O     O_R   0.750390 0.059600 0.927750 -0.568953
O5    O     O_R   0.249120 0.447360 0.902040 -0.635193
O6    O     O_R   0.750880 0.947360 0.097960 -0.607275
C1    C     C_R   0.224336 0.570952 0.243636 1.177869
C2    C     C_R   0.775889 0.070221 0.756264 1.193749
O7    O     O_R   0.386610 0.559560 0.048860 -0.571300
O8    O     O_R   0.613390 0.059560 0.951140 -0.576075
O9    O     O_R   0.387100 0.447320 0.878470 -0.601556
O10   O     O_R   0.612900 0.947320 0.121530 -0.580085
C3    C     C_R   0.407118 0.575591 0.215488 1.123296
C4    C     C_R   0.593234 0.075901 0.784958 1.132265
O11   O     O_R   0.249120 0.552680 0.402050 -0.548143
O12   O     O_R   0.750880 0.052680 0.597950 -0.569909
O13   O     O_3   0.318110 0.463180 0.223790 -0.301250
O14   O     O_3   0.681890 0.963180 0.776210 -0.286646
V1    V     V_3+5 0.318110 0.506830 0.948930 1.317580
V2    V     V_3+5 0.681890 0.006830 0.051070 1.326914
O15   O     O_R   0.386610 0.440400 0.548840 -0.568148
O16   O     O_R   0.613390 0.940400 0.451160 -0.582212
C5    C     C_R   0.406788 0.424744 0.714510 1.166882
C6    C     C_R   0.593032 0.924975 0.285409 1.186107
O17   O     O_R   0.249610 0.440440 0.572240 -0.582188
O18   O     O_R   0.750390 0.940440 0.427760 -0.603112
C7    C     C_R   0.229144 0.424847 0.744458 0.988201
C8    C     C_R   0.773613 0.926880 0.255858 1.008601
V3    V     V_3+5 0.318110 0.493170 0.448930 1.328715
V4    V     V_3+5 0.681890 0.993170 0.551070 1.317500
O19   O     O_3   0.318110 0.536820 0.723940 -0.240422
O20   O     O_3   0.681890 0.036820 0.276060 -0.256502
C9    C     C_R   0.181122 0.377077 0.761111 -0.297413
C10   C     C_R   0.825460 0.881405 0.241833 -0.292299
C11   C     C_R   0.128070 0.378751 0.643197 -0.119011
C12   C     C_R   0.836127 0.846668 0.405598 -0.071289
C13   C     C_R   0.081186 0.334720 0.653918 -0.084752
C14   C     C_R   0.880018 0.800217 0.396463 -0.100963
C15   C     C_R   0.087074 0.286840 0.779792 -0.101595
C16   C     C_R   0.913437 0.786376 0.222428 -0.084614
C17   C     C_R   0.140888 0.284768 0.894952 -0.046102
C18   C     C_R   0.904252 0.820910 0.059006 -0.051469
C19   C     C_R   0.187525 0.328892 0.888934 0.548291
C20   C     C_R   0.862519 0.869352 0.067894 0.524818
C21   C     C_R   0.895983 0.193039 0.847978 0.422308
C22   C     C_R   0.107203 0.695386 0.133607 0.423762
C23   C     C_R   0.845301 0.152032 0.880641 0.388990
C24   C     C_R   0.156046 0.652130 0.107645 0.360602
C25   C     C_R   0.877312 0.103498 0.577632 0.305764
C26   C     C_R   0.126245 0.612294 0.427386 0.333969
C27   C     C_R   0.932729 0.139487 0.557916 0.204504
C28   C     C_R   0.073798 0.652380 0.444151 0.159433
C29   C     C_R   0.941091 0.185319 0.691441 -0.130287
C30   C     C_R   0.065008 0.693897 0.297562 -0.068489
C31   C     C_2   0.037277 0.239381 0.800234 0.382933
C32   C     C_2   0.958325 0.735687 0.210531 0.335992
C33   C     C_2   0.995107 0.228021 0.662145 -0.089591
C34   C     C_2   0.011670 0.737286 0.315200 -0.101415
C35   C     C_R   0.833312 0.109636 0.738156 -0.371308
C36   C     C_R   0.168171 0.612575 0.259733 -0.336958
H1    H     H_    0.122162 0.415077 0.544920 0.161333
H2    H     H_    0.809472 0.854504 0.541344 0.190597
H3    H     H_    0.999758 0.249809 0.523357 0.155913
H4    H     H_    0.018881 0.774487 0.409632 0.157169
H5    H     H_    0.147826 0.247983 0.990347 0.197653
H6    H     H_    0.931243 0.811241 0.924943 0.168636
H7    H     H_    0.039990 0.339159 0.565698 0.147717
H8    H     H_    0.886751 0.774068 0.524307 0.173676
C37   C     C_R   0.576017 0.367188 0.735103 0.456216
C38   C     C_R   0.424316 0.867204 0.328535 0.434029
C39   C     C_R   0.460676 0.382707 0.715392 -0.393874
C40   C     C_R   0.539170 0.883003 0.287694 -0.452729
C41   C     C_R   0.476840 0.098981 0.835959 0.154953
C42   C     C_R   0.524370 0.596607 0.220265 0.163938
C43   C     C_R   0.424434 0.138452 0.847497 0.490741
C44   C     C_R   0.576335 0.634400 0.253728 0.488898
C45   C     C_R   0.434614 0.197835 0.813744 -0.102005
C46   C     C_R   0.566070 0.694457 0.269283 -0.114847
C47   C     C_R   0.495336 0.220507 0.752889 0.055221
C48   C     C_R   0.504879 0.720055 0.252387 0.052320
C49   C     C_R   0.549512 0.181605 0.746872 -0.116163
C50   C     C_R   0.450579 0.681715 0.245522 -0.121866
C51   C     C_R   0.503860 0.282278 0.717337 -0.075171
C52   C     C_R   0.496219 0.782767 0.261240 -0.038340
C53   C     C_R   0.567029 0.305886 0.713445 -0.215731
C54   C     C_R   0.433188 0.805653 0.302949 -0.289667
C55   C     C_R   0.620124 0.267497 0.694378 0.345176
C56   C     C_R   0.380393 0.766772 0.318698 0.298017
C57   C     C_R   0.611467 0.206634 0.710079 0.189151
C58   C     C_R   0.388537 0.707079 0.275015 0.231627
C59   C     C_R   0.451514 0.321717 0.690361 0.203533
C60   C     C_R   0.548162 0.823773 0.231899 0.221455
C61   C     C_R   0.522519 0.405426 0.733235 0.384858
C62   C     C_R   0.477797 0.904121 0.341576 0.497303
C63   C     C_R   0.539636 0.119770 0.784621 -0.340114
C64   C     C_R   0.460770 0.619245 0.221866 -0.353361
H9    H     H_    0.393660 0.226216 0.842962 0.201777
H10   H     H_    0.606872 0.720289 0.308285 0.202362
N1    N     N_R   0.982194 0.127021 0.410324 0.294133
O21   O     O_R   0.967414 0.106418 0.243541 -0.316864
O22   O     O_R   0.042790 0.130757 0.448489 -0.277568
N2    N     N_R   0.028329 0.649890 0.606782 0.251435
O23   O     O_R   0.014709 0.696883 0.706917 -0.353859
O24   O     O_R   0.996268 0.601927 0.644483 -0.290648
O25   O     O_3   0.529562 0.465685 0.735363 -0.690910
H11   H     H_    0.572344 0.475900 0.675079 0.361204
O26   O     O_3   0.471095 0.962819 0.389225 -0.671201
H12   H     H_    0.426531 0.970693 0.440320 0.396445
N3    N     N_R   0.683870 0.289654 0.649073 0.297937
O27   O     O_R   0.696566 0.316124 0.485468 -0.285961
O28   O     O_R   0.729211 0.283373 0.770306 -0.278457
N4    N     N_R   0.317852 0.786555 0.389809 0.272016
O29   O     O_R   0.309487 0.804320 0.567536 -0.290000
O30   O     O_R   0.268528 0.783418 0.281647 -0.316089
O31   O     O_3   0.636492 0.388337 0.772578 -0.661109
H13   H     H_    0.631790 0.423719 0.854848 0.369863
O32   O     O_3   0.364340 0.893158 0.330769 -0.667754
H14   H     H_    0.342863 0.878289 0.216064 0.363958
N5    N     N_R   0.393975 0.301303 0.604016 0.238615
O33   O     O_R   0.337416 0.321115 0.660560 -0.448572
O34   O     O_R   0.398465 0.264217 0.461346 -0.338788
N6    N     N_R   0.606708 0.807754 0.124929 0.232735
O35   O     O_R   0.603937 0.780940 0.959982 -0.351941
O36   O     O_R   0.662745 0.821026 0.188741 -0.430749
N7    N     N_R   0.466934 0.038711 0.891765 0.226619
O37   O     O_R   0.436076 0.026209 0.054317 -0.333297
O38   O     O_R   0.489739 0.996195 0.783478 -0.379376
N8    N     N_R   0.536565 0.535257 0.185855 0.231846
O39   O     O_R   0.581842 0.519276 0.060337 -0.351573
O40   O     O_R   0.507630 0.495519 0.293042 -0.390423
O41   O     O_3   0.361872 0.120915 0.892914 -0.658865
H15   H     H_    0.357603 0.078671 0.863674 0.369902
O42   O     O_3   0.638171 0.614318 0.278576 -0.661985
H16   H     H_    0.636611 0.572371 0.314914 0.366501
N9    N     N_R   0.668132 0.171957 0.711366 0.196362
O43   O     O_R   0.703168 0.165654 0.551918 -0.380928
O44   O     O_R   0.694479 0.165793 0.875880 -0.361366
N10   N     N_R   0.331892 0.672767 0.266649 0.195802
O45   O     O_R   0.296672 0.664101 0.424440 -0.379858
O46   O     O_R   0.306241 0.668086 0.100516 -0.353086
O47   O     O_3   0.807246 0.152717 0.049784 -0.659696
H17   H     H_    0.832104 0.169992 0.153910 0.331013
O48   O     O_3   0.192222 0.647754 0.935495 -0.645392
H18   H     H_    0.167517 0.664321 0.829893 0.338500
O49   O     O_3   0.869420 0.057712 0.451997 -0.694511
H19   H     H_    0.859128 0.075770 0.327333 0.353629
O50   O     O_3   0.136883 0.571304 0.569489 -0.713272
H20   H     H_    0.111467 0.581259 0.689293 0.355821
O51   O     O_3   0.901619 0.241983 0.963447 -0.698065
H21   H     H_    0.858477 0.252480 0.020729 0.366105
O52   O     O_3   0.100030 0.740281 0.002639 -0.691072
H22   H     H_    0.142765 0.749419 0.940070 0.362226
O53   O     O_3   0.238440 0.321658 0.007746 -0.697412
H23   H     H_    0.273577 0.349122 0.971130 0.342525
O54   O     O_3   0.860331 0.903789 0.905190 -0.742018
H24   H     H_    0.855283 0.945099 0.947207 0.321106
N11   N     N_R   0.036634 0.202770 0.968649 0.258843
O55   O     O_R   0.047636 0.146854 0.949527 -0.281012
O56   O     O_R   0.034373 0.226256 0.139731 -0.363310
N12   N     N_R   0.943485 0.686669 0.088127 0.289576
O57   O     O_R   0.971279 0.635941 0.106658 -0.318482
O58   O     O_R   0.895509 0.690447 0.974987 -0.298173

loop_
_geom_bond_atom_site_label_1
_geom_bond_atom_site_label_2
_geom_bond_distance
_ccdc_geom_bond_type
C26   O50   1.384258 S    
C47   C51   1.439967 A    
N11   O55   1.300833 A    
C57   N9    1.416963 S    
O6    C8    1.300918 A    
O32   H14   0.991590 S    
O13   V3    1.705220 S    
C1    C36   1.502285 S    
O50   H20   0.988207 S    
C48   C52   1.442185 A    
V1    O19   1.704359 S    
N8    O39   1.300658 A    
N4    O30   1.301656 A    
O49   H19   0.990813 S    
N9    O43   1.300998 A    
C15   C17   1.406528 A    
C60   N6    1.438716 S    
C7    C9    1.478617 S    
O9    V1    2.014035 S    
C42   C44   1.410289 A    
O16   C6    1.293887 A    
C11   C13   1.399055 A    
C44   C46   1.389244 A    
O5    V1    2.012480 S    
O3    C1    1.301283 A    
N3    O28   1.301241 A    
C2    C35   1.494567 S    
V2    O20   1.704267 S    
C40   C60   1.414746 A    
C46   C48   1.407552 A    
C38   O32   1.377281 S    
O12   V4    2.013082 S    
O31   H13   0.990267 S    
C54   C56   1.410998 A    
C2    O12   1.301527 A    
C21   C23   1.418654 A    
O7    C3    1.304369 A    
C61   O25   1.382519 S    
O5    C7    1.295043 A    
O7    V1    2.013426 S    
C42   N8    1.439360 S    
O8    V2    2.010787 S    
C25   C27   1.415442 A    
C46   H10   1.078212 S    
C26   C28   1.421001 A    
O52   H22   0.990515 S    
O3    V1    2.018811 S    
O14   V4    1.705312 S    
V4    O20   2.152253 S    
O14   V2    2.151198 S    
O4    C2    1.300717 A    
C25   C35   1.411416 A    
C24   C36   1.420144 A    
C49   C57   1.419509 A    
C28   C30   1.408041 A    
N5    O34   1.301679 A    
C22   O52   1.381885 S    
C8    C10   1.493268 S    
N11   O56   1.300913 A    
O17   V3    2.021010 S    
C17   C19   1.396829 A    
O10   V2    2.017150 S    
C18   C20   1.402435 A    
C12   H2    1.082885 S    
N4    O29   1.301204 A    
C58   N10   1.417275 S    
C43   O41   1.380959 S    
O11   V3    2.010044 S    
C53   C55   1.407675 A    
C27   N1    1.441417 S    
C22   C24   1.418637 A    
C62   O26   1.384074 S    
C23   C35   1.414056 A    
C50   C64   1.448188 A    
C3    C64   1.497499 S    
C9    C19   1.422482 A    
C5    C39   1.472503 S    
C10   C20   1.424828 A    
C48   C50   1.430512 A    
O8    C4    1.300546 A    
C47   C49   1.430467 A    
C29   C33   1.492732 S    
C17   H5    1.082569 S    
C1    O11   1.304841 A    
C34   H4    1.087074 S    
C16   C32   1.483494 S    
O15   V3    2.011278 S    
C24   O48   1.382211 S    
C27   C29   1.413383 A    
N12   O58   1.301526 A    
C42   C64   1.416568 A    
N1    O21   1.300012 A    
C41   N7    1.440387 S    
O26   H12   0.990230 S    
C28   N2    1.435598 S    
C22   C30   1.401002 A    
O1    V3    2.016506 S    
C45   C47   1.408447 A    
C25   O49   1.375463 S    
C11   H1    1.083791 S    
N5    O33   1.299654 A    
N2    O24   1.301170 A    
C43   C45   1.389193 A    
N10   O46   1.298231 A    
C39   C61   1.396590 A    
C51   C53   1.417535 A    
C56   C58   1.402861 A    
O18   V4    2.018242 S    
C31   C33   1.355152 D    
O42   H16   0.989568 S    
C59   N5    1.440938 S    
O1    C3    1.295926 A    
C41   C43   1.410260 A    
N6    O36   1.301526 A    
O41   H15   0.989615 S    
C38   C54   1.425485 A    
C4    C63   1.495366 S    
C37   C53   1.419803 A    
C6    C40   1.472677 S    
N7    O38   1.300650 A    
C30   C34   1.484423 S    
N9    O44   1.297796 A    
C23   O47   1.381544 S    
C37   O31   1.382535 S    
O16   V4    2.013920 S    
C38   C62   1.401097 A    
C20   O54   1.377848 S    
O18   C8    1.300937 A    
C33   H3    1.083693 S    
C14   H8    1.083629 S    
C16   C18   1.401325 A    
N8    O40   1.300921 A    
C44   O42   1.381333 S    
C55   N3    1.437421 S    
O4    V2    2.021581 S    
C15   C31   1.499841 S    
C51   C59   1.429181 A    
O25   H11   0.990747 S    
O10   C6    1.294772 A    
C37   C61   1.411658 A    
C50   C58   1.416659 A    
O2    V4    2.013393 S    
C26   C36   1.417491 A    
N12   O57   1.301325 A    
O15   C5    1.293116 A    
O53   H23   0.985876 S    
C40   C62   1.394857 A    
V3    O19   2.152120 S    
C19   O53   1.382424 S    
O51   H21   0.990538 S    
C12   C14   1.395682 A    
C14   C16   1.397978 A    
C9    C11   1.405084 A    
N7    O37   1.300740 A    
O6    V2    2.009441 S    
C49   C63   1.447484 A    
C13   H7    1.081070 S    
O9    C5    1.295736 A    
O13   V1    2.151330 S    
C10   C12   1.411599 A    
C32   C34   1.355063 D    
C21   O51   1.382502 S    
N2    O23   1.300241 A    
O2    C4    1.298841 A    
N10   O45   1.300981 A    
C21   C29   1.408936 A    
C56   N4    1.437672 S    
C31   N11   1.435771 S    
C39   C59   1.416134 A    
C13   C15   1.407337 A    
N3    O27   1.301183 A    
O54   H24   0.990089 S    
C18   H6    1.084047 S    
C55   C57   1.403549 A    
C41   C63   1.416656 A    
C52   C54   1.424273 A    
C45   H9    1.078892 S    
C52   C60   1.435395 A    
N6    O35   1.301412 A    
O47   H17   0.990724 S    
N1    O22   1.301515 A    
O48   H18   0.989869 S    
O17   C7    1.297858 A    
C32   N12   1.446799 S    
