data_mof_unit_59022.cif
_audit_creation_date              2012-12-10T17:16:40-0500
_audit_creation_method            fapswitch 2.2
_symmetry_space_group_name_H-M    P1
_symmetry_Int_Tables_number       1
_space_group_crystal_system       triclinic
_cell_length_a                    10.466214
_cell_length_b                    10.737622
_cell_length_c                    10.761752
_cell_angle_alpha                 94.427394
_cell_angle_beta                  97.209856
_cell_angle_gamma                 78.419763
_cell_volume                      1173.75948822

loop_
_atom_site_label
_atom_site_type_symbol
_atom_type_description
_atom_site_fract_x
_atom_site_fract_y
_atom_site_fract_z
_atom_type_partial_charge
C1    C     C_R   0.442399 0.506360 0.267285 0.883124
C2    C     C_R   0.496840 0.739305 0.500902 0.852760
C3    C     C_R   0.582265 0.092543 0.289265 -0.186316
C4    C     C_R   0.417692 0.907472 0.710720 -0.186328
C5    C     C_R   0.609489 0.013135 0.183440 -0.149769
C6    C     C_R   0.390489 0.986877 0.816553 -0.149783
C7    C     C_R   0.593228 0.887926 0.178962 -0.153062
C8    C     C_R   0.406786 0.112075 0.821041 -0.153036
C9    C     C_R   0.550710 0.841728 0.280657 -0.137535
C10   C     C_R   0.449308 0.158269 0.719346 -0.137506
C11   C     C_R   0.527423 0.919821 0.391391 0.082949
C12   C     C_R   0.557601 0.493638 0.732715 0.883104
C13   C     C_R   0.472578 0.080180 0.608608 0.082934
C14   C     C_R   0.540959 0.047239 0.394796 0.075565
C15   C     C_R   0.459025 0.952766 0.605197 0.075564
C16   C     C_R   0.489421 0.873518 0.497666 -0.200006
C17   C     C_R   0.510574 0.126483 0.502331 -0.200003
C18   C     C_3   0.444874 0.673187 0.930846 -0.992208
C19   C     C_3   0.555129 0.326808 0.069159 -0.992380
C20   C     C_3   0.735967 0.417862 0.911088 -0.926472
C21   C     C_3   0.264047 0.582194 0.088925 -0.926494
C22   C     C_3   0.880326 0.601378 0.617428 -0.858991
C23   C     C_2   0.402681 0.517282 0.133313 -0.007903
C24   C     C_3   0.119669 0.398630 0.382566 -0.859004
C25   C     C_3   0.871050 0.329164 0.375940 -0.645752
C26   C     C_3   0.128969 0.670777 0.624123 -0.645801
C27   C     C_2   0.597318 0.482719 0.866687 -0.007951
C28   C     C_2   0.490489 0.465143 0.054147 0.239287
C29   C     C_2   0.509497 0.534847 0.945843 0.239305
C30   C     C_2   0.071522 0.490806 0.487497 0.305154
C31   C     C_2   0.928480 0.509185 0.512513 0.305132
C32   C     C_R   0.503160 0.260696 0.499099 0.852754
H1    H     H_    0.386485 0.173450 0.903606 0.148088
H2    H     H_    0.512589 0.723703 0.892329 0.226700
H3    H     H_    0.351618 0.681319 0.867844 0.253651
H4    H     H_    0.574006 0.276493 0.977606 0.249538
H5    H     H_    0.648294 0.318691 0.132292 0.253674
H6    H     H_    0.487347 0.276257 0.107527 0.226724
H7    H     H_    0.806695 0.462915 0.870311 0.253697
H8    H     H_    0.758220 0.428451 0.014467 0.257213
H9    H     H_    0.752091 0.315483 0.879925 0.246301
H10   H     H_    0.193292 0.537230 0.129762 0.253718
H11   H     H_    0.247994 0.684587 0.120027 0.246312
H12   H     H_    0.613548 0.826549 0.096402 0.148089
H13   H     H_    0.241758 0.571545 0.985556 0.257172
H14   H     H_    0.880671 0.700747 0.597921 0.219572
H15   H     H_    0.779692 0.606597 0.631287 0.294755
H16   H     H_    0.934568 0.570265 0.708384 0.203754
H17   H     H_    0.119319 0.299256 0.402054 0.219573
H18   H     H_    0.065417 0.429763 0.291617 0.203764
H19   H     H_    0.220305 0.393407 0.368710 0.294756
H20   H     H_    0.778909 0.293930 0.349992 0.239183
H21   H     H_    0.901447 0.341376 0.283738 0.186343
H22   H     H_    0.936068 0.254695 0.432897 0.195580
H23   H     H_    0.594850 0.189101 0.287128 0.149153
H24   H     H_    0.221107 0.706018 0.650052 0.239189
H25   H     H_    0.063929 0.745270 0.567235 0.195577
H26   H     H_    0.098618 0.658494 0.716318 0.186357
H27   H     H_    0.405065 0.810926 0.712846 0.149165
H28   H     H_    0.642296 0.049125 0.104227 0.150497
H29   H     H_    0.357671 0.950891 0.895763 0.150495
H30   H     H_    0.535532 0.744767 0.270734 0.146487
H31   H     H_    0.464505 0.255225 0.729272 0.146469
H32   H     H_    0.426166 0.723519 0.022429 0.249482
N1    N     N_2   0.157300 0.551390 0.551120 -0.060237
N2    N     N_2   0.842700 0.448610 0.448880 -0.060229
O1    O     O_R   0.568940 0.489660 0.307530 -0.612981
O2    O     O_R   0.431060 0.510340 0.692470 -0.612957
O3    O     O_R   0.348880 0.522640 0.340350 -0.613912
O4    O     O_R   0.651120 0.477360 0.659650 -0.613907
O5    O     O_R   0.610030 0.300280 0.483580 -0.619587
O6    O     O_R   0.389970 0.699720 0.516420 -0.619576
O7    O     O_R   0.389970 0.333270 0.516400 -0.618209
O8    O     O_R   0.610030 0.666730 0.483600 -0.618216
Zn1   Zn    Zn3+2 0.646940 0.477980 0.478080 0.923718
Zn2   Zn    Zn3+2 0.353060 0.522020 0.521920 0.923729

loop_
_geom_bond_atom_site_label_1
_geom_bond_atom_site_label_2
_ccdc_geom_bond_type
C31   N2    D    
C22   H16   S    
C1    O1    A    
C20   C27   S    
C2    C16   S    
O2    Zn2   S    
C18   H2    S    
C11   C16   A    
C10   H31   S    
C2    O8    A    
C13   C17   A    
O6    Zn2   S    
C18   H32   S    
C24   H19   S    
C21   C23   S    
C22   H15   S    
C20   H7    S    
C25   H20   S    
C18   C29   S    
C21   H11   S    
C7    H12   S    
C25   H22   S    
O5    Zn1   S    
C19   C28   S    
C12   O2    A    
C14   C17   A    
C9    C11   A    
C18   H3    S    
C3    C14   A    
C4    C15   A    
C2    O6    A    
N2    Zn1   S    
C24   H17   S    
N1    Zn2   S    
C8    C10   A    
C28   C29   S    
C26   H25   S    
C25   H21   S    
C1    C23   S    
C32   O5    A    
C21   H13   S    
C19   H4    S    
C13   C15   A    
C24   H18   S    
C30   C31   S    
C20   H8    S    
C11   C14   A    
C24   C30   S    
C30   N1    D    
C27   C29   D    
C22   C31   S    
C12   C27   S    
C9    H30   S    
C4    H27   S    
C7    C9    A    
O4    Zn1   S    
C19   H6    S    
O1    Zn1   S    
O7    Zn2   S    
C6    H29   S    
O3    Zn2   S    
C4    C6    A    
O8    Zn1   S    
C32   O7    A    
C5    C7    A    
C17   C32   S    
C12   O4    A    
C6    C8    A    
C21   H10   S    
C19   H5    S    
C5    H28   S    
C22   H14   S    
C23   C28   D    
C26   N1    S    
C3    H23   S    
C26   H26   S    
C1    O3    A    
C25   N2    S    
C15   C16   A    
C20   H9    S    
C8    H1    S    
C3    C5    A    
C10   C13   A    
C26   H24   S    
