data_mof_unit_45085.cif
_audit_creation_date              2012-12-11T14:58:01-0500
_audit_creation_method            fapswitch 2.2
_symmetry_space_group_name_H-M    P1
_symmetry_Int_Tables_number       1
_space_group_crystal_system       triclinic
_cell_length_a                    6.940576
_cell_length_b                    16.975646
_cell_length_c                    16.826389
_cell_angle_alpha                 100.535293
_cell_angle_beta                  90.85329
_cell_angle_gamma                 90.784996
_cell_volume                      1948.58979925

loop_
_atom_site_label
_atom_site_type_symbol
_atom_type_description
_atom_site_fract_x
_atom_site_fract_y
_atom_site_fract_z
_atom_type_partial_charge
O1    O     O_R   0.506180 0.438940 0.579430 -0.542598
O2    O     O_R   0.170520 0.406230 0.413590 -0.531191
O3    O     O_R   0.005180 0.561060 0.420570 -0.503969
C1    C     C_R   0.337263 0.386464 0.381351 0.742702
O4    O     O_R   0.176140 0.429310 0.578370 -0.545071
O5    O     O_R   0.010830 0.584300 0.586530 -0.533491
C2    C     C_R   0.344125 0.413670 0.605367 0.682813
O6    O     O_R   0.500520 0.415700 0.413470 -0.533675
O7    O     O_3   0.340830 0.550820 0.502480 -0.343222
V1    V     V_3+5 0.064040 0.490570 0.499540 1.501465
O8    O     O_R   0.681400 0.593770 0.586410 -0.540104
C3    C     C_R   0.851931 0.615960 0.615236 0.687888
O9    O     O_R   0.675790 0.570690 0.421630 -0.539321
C4    C     C_R   0.843932 0.589772 0.397833 0.761383
V2    V     V_3+5 0.564650 0.509430 0.500460 1.493916
O10   O     O_3   0.837730 0.449180 0.497520 -0.373030
C5    C     C_R   0.925481 0.865062 0.170011 -0.059817
C6    C     C_R   0.843676 0.646050 0.339176 -0.097083
C7    C     C_R   0.661849 0.696326 0.233904 -0.146723
C8    C     C_R   0.683824 0.642204 0.286150 -0.118111
C9    C     C_R   0.985733 0.707026 0.339000 0.083714
C10   C     C_R   0.966171 0.760784 0.283530 0.127144
C11   C     C_R   0.802203 0.755149 0.231058 0.110684
C12   C     C_R   0.781540 0.807734 0.175514 -0.228678
C13   C     C_R   0.085249 0.871274 0.223055 -0.171783
C14   C     C_R   0.105539 0.820534 0.278937 -0.152248
H1    H     H_    0.657959 0.801869 0.134543 0.128544
H2    H     H_    0.197024 0.915453 0.220859 0.130289
H3    H     H_    0.534479 0.691939 0.195257 0.166324
H4    H     H_    0.233686 0.828199 0.316892 0.153829
H5    H     H_    0.572791 0.596978 0.285674 0.185059
C15   C     C_R   0.842190 0.907975 0.721490 -0.141202
C16   C     C_R   0.805736 0.921562 0.643481 -0.106992
C17   C     C_R   0.789623 0.857529 0.579065 -0.083557
C18   C     C_R   0.809550 0.779370 0.592193 -0.097031
C19   C     C_R   0.845404 0.763659 0.670802 0.063099
C20   C     C_R   0.861718 0.829231 0.736797 0.063835
C21   C     C_R   0.866602 0.684235 0.684183 -0.159842
C22   C     C_R   0.901228 0.670192 0.763706 0.065872
C23   C     C_R   0.916231 0.735699 0.829759 0.036094
C24   C     C_R   0.898144 0.815254 0.816173 -0.167296
C25   C     C_R   0.918002 0.591431 0.779138 -0.191285
C26   C     C_R   0.947601 0.577448 0.857486 -0.090925
C27   C     C_R   0.960699 0.641474 0.922694 0.185498
C28   C     C_R   0.945731 0.719918 0.908743 -0.143148
H6    H     H_    0.855341 0.959765 0.769497 0.102792
H7    H     H_    0.790228 0.982095 0.632906 0.159046
H8    H     H_    0.762017 0.868434 0.518536 0.134537
H9    H     H_    0.796766 0.731616 0.540059 0.109748
H10   H     H_    0.906367 0.539756 0.730924 0.100423
H11   H     H_    0.958855 0.516303 0.867163 0.121536
H12   H     H_    0.955659 0.768214 0.960564 0.102230
C29   C     C_R   0.282212 0.224600 0.404269 -0.145191
C30   C     C_R   0.281760 0.148422 0.423055 -0.129426
C31   C     C_R   0.346383 0.084111 0.367670 -0.096568
C32   C     C_R   0.407085 0.094073 0.290934 0.134179
C33   C     C_R   0.387939 0.170698 0.266879 0.055891
C34   C     C_R   0.337131 0.238050 0.327104 0.035508
C35   C     C_R   0.426490 0.183073 0.187037 -0.151233
C36   C     C_R   0.443895 0.261996 0.171558 0.051824
C37   C     C_R   0.391943 0.329593 0.230889 0.003925
C38   C     C_R   0.344917 0.317606 0.310853 -0.152026
C39   C     C_R   0.512409 0.274186 0.095946 -0.195998
C40   C     C_R   0.526989 0.349798 0.077363 -0.164417
C41   C     C_R   0.459464 0.415265 0.130094 0.226657
C42   C     C_R   0.383724 0.405740 0.205356 0.083163
H13   H     H_    0.237646 0.272659 0.451384 0.121746
H14   H     H_    0.237999 0.139735 0.482405 0.160149
H15   H     H_    0.355168 0.026343 0.386130 0.126956
H16   H     H_    0.558995 0.225597 0.049918 0.132541
H17   H     H_    0.582660 0.356811 0.019218 0.153025
C43   C     C_R   0.423641 0.138646 0.832363 -0.100509
C44   C     C_R   0.343365 0.361607 0.667764 -0.075399
C45   C     C_R   0.171919 0.313211 0.775677 -0.125603
C46   C     C_R   0.188916 0.366252 0.721605 -0.128304
C47   C     C_R   0.482705 0.302697 0.669720 -0.205161
C48   C     C_R   0.465215 0.247356 0.723112 0.116989
C49   C     C_R   0.307034 0.252788 0.776428 0.140783
C50   C     C_R   0.286171 0.198082 0.829932 -0.212073
C51   C     C_R   0.579016 0.133431 0.778860 -0.176437
C52   C     C_R   0.600049 0.186156 0.724395 0.134122
H18   H     H_    0.167034 0.203500 0.871425 0.130700
H19   H     H_    0.686744 0.088094 0.779746 0.140197
H20   H     H_    0.050452 0.318554 0.815944 0.124661
H21   H     H_    0.078969 0.410813 0.721304 0.114716
H22   H     H_    0.599643 0.298926 0.627550 0.161549
O11   O     O_R   0.265840 0.084300 0.086750 -0.534967
O12   O     O_R   0.589750 0.070740 0.921690 -0.545324
O13   O     O_R   0.755020 0.915730 0.913400 -0.535448
C53   C     C_R   0.421776 0.086636 0.894921 0.710483
O14   O     O_R   0.595830 0.093740 0.086480 -0.542276
O15   O     O_R   0.761150 0.938890 0.079360 -0.538268
C54   C     C_R   0.429597 0.114919 0.116942 0.709891
O16   O     O_R   0.259710 0.061140 0.920790 -0.533937
O17   O     O_3   0.425260 0.949200 0.997610 -0.367593
V3    V     V_3+5 0.702060 0.009430 0.000450 1.413279
O18   O     O_R   0.090530 0.929220 0.078150 -0.545042
C55   C     C_R   0.923431 0.914409 0.105680 0.694767
O19   O     O_R   0.084440 0.906220 0.913360 -0.535541
C56   C     C_R   0.913686 0.883725 0.884925 0.700976
V4    V     V_3+5 0.201450 0.990520 0.999290 1.427802
O20   O     O_3   0.928380 0.050800 0.002390 -0.367334
I1    I     I_    0.465749 0.524605 0.085167 -0.473466
C57   C     C_3   0.515086 0.024966 0.242764 -0.767801
H23   H     H_    0.543341 0.977022 0.278222 0.197302
H24   H     H_    0.432064 0.996528 0.188200 0.200524
H25   H     H_    0.657868 0.046420 0.225870 0.214273
I2    I     I_    0.207931 0.500417 0.260460 -0.374478
I3    I     I_    0.841195 0.168890 0.646871 -0.516767
I4    I     I_    0.217774 0.722847 0.426570 -0.428289
C58   C     C_3   0.988821 0.627082 0.007538 -0.692119
H26   H     H_    0.998462 0.562150 0.009286 0.236410
H27   H     H_    0.123786 0.657428 0.034140 0.222410
H28   H     H_    0.865546 0.651747 0.044964 0.220525

loop_
_geom_bond_atom_site_label_1
_geom_bond_atom_site_label_2
_ccdc_geom_bond_type
C34   C38   A    
C31   C32   A    
O12   V3    S    
V4    O20   S    
V3    O20   S    
C6    C9    A    
C4    C6    S    
O2    C1    A    
O17   V3    S    
C12   H1    S    
C1    O6    A    
C57   H24   S    
C9    I4    S    
O15   C55   A    
C2    C44   S    
C48   C49   A    
C13   H2    S    
C36   C39   A    
C19   C20   A    
C43   C50   A    
O5    C3    A    
C21   C22   A    
C33   C35   A    
C30   H14   S    
V2    O10   S    
O18   C55   A    
O15   V3    S    
C32   C33   A    
C17   C18   A    
C40   H17   S    
O14   V3    S    
O11   V4    S    
O8    V2    S    
C37   C42   A    
C46   H21   S    
C7    C8    A    
O16   V4    S    
C18   H9    S    
C11   C12   A    
O1    V2    S    
O7    V1    S    
C35   C36   A    
O9    C4    A    
C3    C21   S    
C44   C46   A    
C51   H19   S    
C57   H23   S    
C53   O16   A    
C22   C25   A    
C23   C28   A    
C5    C12   A    
C45   C46   A    
O13   C56   A    
C47   C48   A    
C32   C57   S    
C42   I2    S    
C22   C23   A    
O4    C2    A    
C49   C50   A    
C28   H12   S    
C13   C14   A    
C29   C30   A    
C36   C37   A    
C18   C19   A    
C7    C11   A    
C26   C27   A    
O14   C54   A    
C43   C53   S    
O19   C56   A    
C39   H16   S    
C48   C52   A    
C29   C34   A    
C16   C17   A    
C24   C56   S    
C58   H27   S    
C15   C20   A    
C31   H15   S    
O3    C4    A    
C25   H10   S    
C23   C24   A    
O19   V4    S    
C52   I3    S    
C14   H4    S    
O6    V2    S    
O9    V2    S    
C10   C14   A    
C16   H7    S    
C44   C47   A    
C17   H8    S    
C25   C26   A    
C41   I1    S    
O2    V1    S    
C47   H22   S    
C27   C28   A    
C5    C55   S    
C30   C31   A    
O12   C53   A    
C58   H26   S    
O1    C2    A    
C15   H6    S    
C45   H20   S    
C51   C52   A    
O5    V1    S    
C50   H18   S    
O8    C3    A    
C1    C38   S    
C5    C13   A    
C40   C41   A    
O13   V3    S    
C19   C21   A    
O7    V2    S    
O4    V1    S    
C43   C51   A    
O3    V1    S    
V1    O10   S    
C15   C16   A    
C26   H11   S    
C33   C34   A    
O11   C54   A    
C58   H28   S    
C6    C8    A    
C20   C24   A    
C37   C38   A    
C29   H13   S    
C39   C40   A    
C27   C58   S    
C41   C42   A    
C45   C49   A    
C10   C11   A    
C35   C54   S    
C9    C10   A    
C57   H25   S    
O18   V4    S    
O17   V4    S    
C8    H5    S    
C7    H3    S    
