data_mof_unit_11214.cif
_audit_creation_date              2012-12-10T20:50:10-0500
_audit_creation_method            fapswitch 2.2
_symmetry_space_group_name_H-M    P1
_symmetry_Int_Tables_number       1
_space_group_crystal_system       triclinic
_cell_length_a                    19.251755
_cell_length_b                    8.920682
_cell_length_c                    8.135764
_cell_angle_alpha                 90.013082
_cell_angle_beta                  90.06465
_cell_angle_gamma                 89.990855
_cell_volume                      1397.22527506

loop_
_atom_site_label
_atom_site_type_symbol
_atom_type_description
_atom_site_fract_x
_atom_site_fract_y
_atom_site_fract_z
_atom_type_partial_charge
C1    C     C_R   0.500040 0.218138 0.499991 0.928760
C2    C     C_R   0.251350 0.551564 0.354593 0.322043
C3    C     C_R   0.184771 0.583274 0.654858 0.066296
C4    C     C_R   0.819726 0.596280 0.382073 0.072294
C5    C     C_R   0.820044 0.461998 0.647818 0.075265
C6    C     C_R   0.178406 0.548069 0.357992 0.067870
C7    C     C_R   0.145669 0.575505 0.509766 -0.043846
C8    C     C_R   0.855988 0.538763 0.520734 -0.100840
C9    C     C_R   0.288676 0.523283 0.501185 -0.285258
C10   C     C_R   0.711197 0.507149 0.502011 -0.282046
C11   C     C_R   0.931701 0.553017 0.529178 0.309438
C12   C     C_R   0.500040 0.781861 0.500008 0.926415
C13   C     C_R   0.070978 0.571546 0.522732 0.352216
C14   C     C_3   0.155612 0.654169 0.809459 -0.392317
C15   C     C_3   0.141487 0.821555 0.786848 -0.810473
C16   C     C_3   0.857827 0.661878 0.233924 -0.342416
C17   C     C_3   0.860787 0.833360 0.239414 -0.735961
C18   C     C_3   0.856717 0.410285 0.804528 -0.336431
C19   C     C_3   0.875037 0.243202 0.800154 -0.751474
C20   C     C_3   0.137559 0.517871 0.201060 -0.376505
C21   C     C_3   0.090957 0.378937 0.209124 -0.829414
C22   C     C_R   0.364789 0.503575 0.500003 0.949150
C23   C     C_R   0.635007 0.500283 0.500156 0.979222
C24   C     C_1   0.500072 0.065243 0.499985 -0.132303
C25   C     C_1   0.500071 0.934750 0.500011 -0.130175
C26   C     C_R   0.252372 0.526224 0.651730 0.326268
C27   C     C_R   0.746968 0.585704 0.377323 0.318855
C28   C     C_R   0.748074 0.440619 0.633252 0.325392
Cl1   Cl    Cl    0.285339 0.438964 0.830586 -0.547338
Cl2   Cl    Cl    0.701076 0.676545 0.215579 -0.583269
Cl3   Cl    Cl    0.704527 0.326107 0.779640 -0.581941
Cl4   Cl    Cl    0.293347 0.614653 0.174353 -0.556244
H1    H     H_    0.189339 0.879644 0.744866 0.278292
H2    H     H_    0.832102 0.626661 0.118134 0.227225
H3    H     H_    0.827675 0.172883 0.806681 0.292814
H4    H     H_    0.903416 0.213545 0.686208 0.262125
H5    H     H_    0.908328 0.215357 0.907450 0.230840
H6    H     H_    0.904317 0.476766 0.828987 0.190288
H7    H     H_    0.823411 0.432440 0.913123 0.235837
H8    H     H_    0.113751 0.291781 0.290438 0.278524
H9    H     H_    0.038114 0.409208 0.251437 0.258651
H10   H     H_    0.084853 0.330332 0.084143 0.250061
H11   H     H_    0.106461 0.618109 0.167027 0.208907
H12   H     H_    0.099466 0.842016 0.696922 0.268151
H13   H     H_    0.174161 0.492584 0.100870 0.269651
H14   H     H_    0.125316 0.870924 0.906174 0.252483
H15   H     H_    0.107677 0.595247 0.849276 0.208506
H16   H     H_    0.194404 0.649084 0.908932 0.279523
H17   H     H_    0.808420 0.882595 0.222093 0.293350
H18   H     H_    0.881736 0.873820 0.358400 0.260166
H19   H     H_    0.894782 0.874733 0.139023 0.230915
H20   H     H_    0.911080 0.615741 0.222004 0.191007
N1    N     N_1   0.500000 0.500000 0.073640 0.034540
N2    N     N_1   0.500000 0.500000 0.926360 0.032957
N3    N     N_R   0.032091 0.693258 0.486396 -0.186196
N4    N     N_R   0.971117 0.431998 0.566033 -0.182598
N5    N     N_R   0.963332 0.684547 0.492326 -0.177553
N6    N     N_R   0.039763 0.441625 0.565537 -0.176731
O1    O     O_R   0.500000 0.285350 0.636850 -0.599890
O2    O     O_R   0.500000 0.714650 0.363150 -0.596235
O3    O     O_R   0.500000 0.714650 0.636850 -0.621229
O4    O     O_R   0.500000 0.285350 0.363150 -0.620495
O5    O     O_R   0.398140 0.500000 0.636920 -0.570682
O6    O     O_R   0.601860 0.500000 0.363080 -0.571897
O7    O     O_R   0.601860 0.500000 0.636920 -0.574652
O8    O     O_R   0.398140 0.500000 0.363080 -0.566773
Zn1   Zn    Zn3+2 0.500000 0.500000 0.682780 1.102714
Zn2   Zn    Zn3+2 0.500000 0.500000 0.317220 1.106172

loop_
_geom_bond_atom_site_label_1
_geom_bond_atom_site_label_2
_ccdc_geom_bond_type
C17   H18   S    
C10   C27   A    
C5    C8    A    
O8    Zn2   S    
C18   H7    S    
C28   Cl3   S    
C4    C16   S    
C6    C7    A    
C13   N6    A    
C10   C23   S    
C5    C28   A    
C6    C20   S    
O3    Zn1   S    
C20   H13   S    
O4    Zn2   S    
C12   C25   S    
C4    C8    A    
O1    Zn1   S    
C1    O4    A    
C17   H19   S    
N3    N5    A    
C18   H6    S    
N2    Zn1   S    
C19   H3    S    
N1    N2    T    
C24   C25   T    
C27   Cl2   S    
C12   O3    A    
C21   H8    S    
C23   O7    A    
C2    C6    A    
C3    C14   S    
C26   Cl1   S    
C8    C11   S    
C21   H9    S    
O6    Zn2   S    
C23   O6    A    
N4    N6    A    
C9    C26   A    
C4    C27   A    
C3    C7    A    
C19   H4    S    
C1    O1    A    
C15   H12   S    
C2    C9    A    
O5    Zn1   S    
C9    C22   S    
O7    Zn1   S    
C10   C28   A    
C21   H10   S    
C12   O2    A    
C7    C13   S    
C20   H11   S    
C20   C21   S    
O2    Zn2   S    
C1    C24   S    
C2    Cl4   S    
C18   C19   S    
C17   H17   S    
N1    Zn2   S    
C14   C15   S    
C22   O8    A    
C14   H16   S    
C5    C18   S    
C19   H5    S    
C15   H14   S    
C16   H2    S    
C22   O5    A    
C11   N5    A    
C14   H15   S    
C15   H1    S    
C3    C26   A    
C11   N4    A    
C16   H20   S    
C16   C17   S    
C13   N3    A    
