data_mof_unit_50139.cif
_audit_creation_date              2012-12-10T20:03:07-0500
_audit_creation_method            fapswitch 2.2
_symmetry_space_group_name_H-M    P1
_symmetry_Int_Tables_number       1
_space_group_crystal_system       triclinic
_cell_length_a                    8.568558
_cell_length_b                    19.317359
_cell_length_c                    18.467616
_cell_angle_alpha                 89.815182
_cell_angle_beta                  98.99205
_cell_angle_gamma                 90.423622
_cell_volume                      3019.13803878

loop_
_atom_site_label
_atom_site_type_symbol
_atom_type_description
_atom_site_fract_x
_atom_site_fract_y
_atom_site_fract_z
_atom_type_partial_charge
C1    C     C_R   0.499709 0.365617 0.500178 0.877141
C2    C     C_R   0.500289 0.634383 0.499822 0.877139
C3    C     C_R   0.373187 0.963087 0.521150 -0.180358
C4    C     C_R   0.626750 0.036912 0.478843 -0.180359
C5    C     C_R   0.373116 0.034779 0.522525 -0.159122
C6    C     C_R   0.626821 0.965221 0.477468 -0.159121
C7    C     C_R   0.500229 0.071550 0.501665 0.105934
C8    C     C_R   0.499708 0.928450 0.498328 0.105934
C9    C     C_R   0.605959 0.540595 0.733896 0.076780
C10   C     C_R   0.394051 0.459400 0.266104 0.076782
C11   C     C_R   0.611142 0.539672 0.811000 -0.111725
C12   C     C_R   0.388874 0.460321 0.189000 -0.111718
C13   C     C_R   0.502088 0.498056 0.841775 0.068015
C14   C     C_R   0.497919 0.501942 0.158226 0.068009
C15   C     C_R   0.394171 0.457503 0.794499 -0.265018
C16   C     C_R   0.605824 0.542500 0.205501 -0.265004
C17   C     C_R   0.395669 0.458882 0.718569 -0.007352
C18   C     C_R   0.604324 0.541122 0.281431 -0.007356
C19   C     C_R   0.541860 0.438915 0.966815 0.012112
C20   C     C_R   0.458158 0.561085 0.033186 0.012102
C21   C     C_R   0.542946 0.441581 0.043038 -0.228322
C22   C     C_R   0.457070 0.558418 0.956963 -0.228371
C23   C     C_R   0.200784 0.499949 0.480780 0.983880
C24   C     C_R   0.799216 0.500051 0.519220 0.983881
C25   C     C_R   0.501349 0.502264 0.077180 0.060640
C26   C     C_R   0.498664 0.497735 0.922820 0.060649
C27   C     C_2   0.035523 0.499912 0.470422 -0.379059
C28   C     C_2   0.964476 0.500088 0.529578 -0.379061
C29   C     C_R   0.500280 0.745121 0.432668 -0.231795
C30   C     C_R   0.499688 0.254879 0.567328 -0.231797
C31   C     C_R   0.499676 0.816986 0.431239 0.024320
C32   C     C_R   0.500271 0.183014 0.568755 0.024323
C33   C     C_R   0.499637 0.853411 0.497090 0.053870
C34   C     C_R   0.500304 0.146589 0.502904 0.053871
C35   C     C_R   0.499116 0.817932 0.563193 -0.189581
C36   C     C_R   0.500837 0.182069 0.436802 -0.189585
C37   C     C_R   0.499823 0.746276 0.564284 -0.178325
C38   C     C_R   0.500150 0.253724 0.435713 -0.178324
C39   C     C_R   0.500414 0.709587 0.499052 -0.049798
C40   C     C_R   0.499568 0.290413 0.500946 -0.049796
H1    H     H_    0.972879 0.499736 0.414418 0.181445
H2    H     H_    0.027121 0.500263 0.585582 0.181443
H3    H     H_    0.308912 0.425027 0.816302 0.154910
H4    H     H_    0.691077 0.574980 0.183698 0.154917
H5    H     H_    0.312690 0.427090 0.682709 0.135631
H6    H     H_    0.687295 0.572917 0.317291 0.135633
H7    H     H_    0.576934 0.396116 0.076206 0.149687
H8    H     H_    0.423082 0.603883 0.923795 0.149681
H9    H     H_    0.499808 0.717055 0.381865 0.165775
H10   H     H_    0.500165 0.282944 0.618132 0.165774
H11   H     H_    0.499243 0.845900 0.613985 0.147951
H12   H     H_    0.500706 0.154100 0.386010 0.147949
H13   H     H_    0.499888 0.719746 0.616055 0.161673
H14   H     H_    0.500095 0.280255 0.383943 0.161671
H15   H     H_    0.274662 0.934582 0.537200 0.140534
H16   H     H_    0.725276 0.065418 0.462794 0.140534
H17   H     H_    0.274370 0.061649 0.539497 0.138819
H18   H     H_    0.725568 0.938351 0.460496 0.138819
N1    N     N_R   0.500020 0.499980 0.689440 -0.116642
N2    N     N_R   0.499980 0.500020 0.310560 -0.116642
O1    O     O_R   0.500010 0.398180 0.560840 -0.629971
O2    O     O_R   0.499990 0.601820 0.439160 -0.629972
O3    O     O_R   0.499930 0.398180 0.439210 -0.622894
O4    O     O_R   0.500070 0.601820 0.560790 -0.622892
O5    O     O_R   0.271780 0.500000 0.546590 -0.622635
O6    O     O_R   0.728220 0.500000 0.453410 -0.622633
O7    O     O_R   0.271710 0.499990 0.424960 -0.620654
O8    O     O_R   0.728290 0.500010 0.575040 -0.620656
Zn1   Zn    Zn3+2 0.500050 0.500000 0.581210 0.951921
Zn2   Zn    Zn3+2 0.499950 0.500000 0.418790 0.951922
C41   C     C_1   0.589586 0.375822 0.935141 0.124502
N3    N     N_1   0.627895 0.325256 0.909676 -0.208548
C42   C     C_1   0.410446 0.624179 0.064861 0.124489
N4    N     N_1   0.372149 0.674747 0.090326 -0.208542
C43   C     C_1   0.494627 0.852048 0.361672 0.143854
N5    N     N_1   0.490572 0.880136 0.305971 -0.192502
C44   C     C_1   0.505307 0.147951 0.638321 0.143852
N6    N     N_1   0.509349 0.119863 0.694021 -0.192503
C45   C     C_1   0.714302 0.584206 0.701758 0.225073
N7    N     N_1   0.801605 0.619507 0.676579 -0.215919
C46   C     C_1   0.285708 0.415790 0.298242 0.225064
N8    N     N_1   0.198405 0.380489 0.323422 -0.215920
C47   C     C_R   0.735654 0.578757 0.859159 0.118152
C48   C     C_R   0.725622 0.650864 0.865774 -0.154082
C49   C     C_R   0.844754 0.687433 0.910632 -0.118668
C50   C     C_R   0.974698 0.652303 0.948583 -0.105466
C51   C     C_R   0.985557 0.580522 0.941888 -0.149364
C52   C     C_R   0.866122 0.543714 0.897531 -0.139204
H19   H     H_    0.625701 0.678520 0.836359 0.122611
H20   H     H_    0.836627 0.743032 0.915782 0.135095
H21   H     H_    0.067132 0.680723 0.982989 0.143915
H22   H     H_    0.086763 0.553473 0.970816 0.142622
H23   H     H_    0.875731 0.488112 0.892516 0.130166
C53   C     C_R   0.264386 0.421223 0.140841 0.118130
C54   C     C_R   0.133954 0.456257 0.102426 -0.139179
C55   C     C_R   0.014549 0.419437 0.058065 -0.149338
C56   C     C_R   0.025398 0.347652 0.051409 -0.105467
C57   C     C_R   0.155306 0.312530 0.089404 -0.118680
C58   C     C_R   0.274409 0.349112 0.134265 -0.154094
H24   H     H_    0.124351 0.511862 0.107411 0.130174
H25   H     H_    0.913371 0.446479 0.029103 0.142619
H26   H     H_    0.932988 0.319222 0.017000 0.143915
H27   H     H_    0.163427 0.256928 0.084284 0.135096
H28   H     H_    0.374303 0.321463 0.163713 0.122616

loop_
_geom_bond_atom_site_label_1
_geom_bond_atom_site_label_2
_ccdc_geom_bond_type
C22   H8    S    
C51   C52   A    
C42   N4    T    
C6    H18   S    
C19   C41   S    
C54   C55   A    
C56   C57   A    
C29   H9    S    
C44   N6    T    
C19   C21   A    
C17   H5    S    
C50   H21   S    
C20   C25   A    
C57   H27   S    
C1    O3    A    
O2    Zn2   S    
C9    C45   S    
C23   O7    A    
C19   C26   A    
C1    C40   S    
C32   C44   S    
C3    H15   S    
C2    C39   S    
O8    Zn1   S    
C31   C33   A    
C23   C27   S    
C16   H4    S    
C56   H26   S    
C36   H12   S    
C24   O6    A    
C37   H13   S    
C58   H28   S    
C30   H10   S    
C38   C40   A    
C55   H25   S    
C4    H16   S    
C12   C53   S    
C4    C7    A    
C18   H6    S    
C2    O4    A    
C46   N8    T    
C48   C49   A    
C4    C6    A    
C3    C8    A    
C5    C7    A    
C54   H24   S    
C6    C8    A    
C11   C47   S    
C49   C50   A    
C9    N1    A    
C32   C34   A    
C10   N2    A    
C43   N5    T    
C27   H1    S    
C31   C43   S    
C47   C48   A    
C38   H14   S    
O3    Zn2   S    
N2    Zn2   S    
C55   C56   A    
C29   C39   A    
C30   C40   A    
C16   C18   A    
O4    Zn1   S    
C9    C11   A    
C10   C12   A    
C17   N1    A    
C18   N2    A    
N1    Zn1   S    
C13   C15   A    
C35   H11   S    
C7    C34   S    
C14   C16   A    
C13   C26   S    
C48   H19   S    
O1    Zn1   S    
C15   C17   A    
C21   C25   A    
C52   H23   S    
C35   C37   A    
C50   C51   A    
C24   C28   S    
C20   C22   A    
C3    C5    A    
C1    O1    A    
C49   H20   S    
C10   C46   S    
C5    H17   S    
O7    Zn2   S    
C23   O5    A    
C36   C38   A    
C12   C14   A    
C15   H3    S    
C41   N3    T    
C37   C39   A    
C30   C32   A    
C11   C13   A    
O6    Zn2   S    
C53   C58   A    
O5    Zn1   S    
C28   H2    S    
C33   C35   A    
C20   C42   S    
C47   C52   A    
C34   C36   A    
C8    C33   S    
C14   C25   S    
C53   C54   A    
C24   O8    A    
C45   N7    T    
C29   C31   A    
C57   C58   A    
C22   C26   A    
C27   C28   D    
C51   H22   S    
C2    O2    A    
C21   H7    S    
