data_mof_unit_6255.cif
_audit_creation_date              2013-03-05T15:42:12-0500
_audit_creation_method            fapswitch 2.2
_symmetry_space_group_name_H-M    P1
_symmetry_Int_Tables_number       1
_space_group_crystal_system       triclinic
_cell_length_a                    7.781316
_cell_length_b                    8.597939
_cell_length_c                    16.478559
_cell_angle_alpha                 92.002232
_cell_angle_beta                  79.272736
_cell_angle_gamma                 93.527084
_cell_volume                      1080.84135755

loop_
_atom_site_label
_atom_site_type_symbol
_atom_site_description
_atom_site_fract_x
_atom_site_fract_y
_atom_site_fract_z
_atom_type_partial_charge
O1    O     O_R   0.388470 0.738640 0.505270 -0.578616
O2    O     O_R   0.611530 0.261360 0.494730 -0.597497
O3    O     O_R   0.679650 0.711510 0.491500 -0.587962
O4    O     O_R   0.320350 0.288490 0.508500 -0.605450
C1    C     C_R   0.545158 0.794656 0.498173 0.988937
C2    C     C_R   0.454717 0.205332 0.501525 0.907110
O5    O     O_R   0.337210 0.515200 0.623500 -0.590772
O6    O     O_R   0.662790 0.484800 0.376500 -0.602182
O7    O     O_R   0.628380 0.488060 0.609730 -0.613712
O8    O     O_R   0.371620 0.511940 0.390270 -0.594924
C3    C     C_R   0.474740 0.500394 0.654782 0.950913
C4    C     C_R   0.524702 0.494305 0.344763 0.930737
Zn1   Zn    Zn3+2 0.305580 0.518120 0.509190 1.067203
Zn2   Zn    Zn3+2 0.694420 0.481880 0.490810 1.054465
C5    C     C_R   0.447902 0.455569 0.739933 -0.151233
C6    C     C_R   0.541359 0.456257 0.256804 -0.165378
C7    C     C_R   0.510939 0.548666 0.801129 0.305371
C8    C     C_R   0.426918 0.509818 0.208206 0.304526
C9    C     C_R   0.499606 0.485183 0.878958 -0.165472
C10   C     C_R   0.438892 0.451485 0.127282 -0.173097
C11   C     C_R   0.432389 0.330937 0.894680 0.030811
C12   C     C_R   0.563406 0.342942 0.094656 0.038696
C13   C     C_R   0.362794 0.243539 0.834566 0.044066
C14   C     C_R   0.679229 0.294581 0.142236 -0.000015
C15   C     C_R   0.369690 0.306252 0.757656 -0.185078
C16   C     C_R   0.668003 0.350273 0.222714 -0.170742
C17   C     C_2   0.437629 0.262680 0.974723 0.157621
C18   C     C_2   0.583326 0.292791 0.007547 0.160761
H1    H     H_    0.756260 0.306537 0.259133 0.207140
H2    H     H_    0.320996 0.235403 0.710350 0.193135
H3    H     H_    0.308921 0.125503 0.846191 0.200930
H4    H     H_    0.777370 0.212955 0.117222 0.208073
H5    H     H_    0.354905 0.494815 0.088585 0.186274
H6    H     H_    0.545833 0.555013 0.927395 0.186770
C19   C     C_2   0.566540 0.954772 0.483611 0.022438
C20   C     C_2   0.432433 0.044989 0.515287 0.015765
N1    N     N_2   0.953500 0.457650 0.478520 -0.140649
N2    N     N_2   0.046500 0.542350 0.521480 -0.136872
H7    H     H_    0.023433 0.379089 0.438972 0.219298
H8    H     H_    0.976578 0.620979 0.560986 0.230398
N3    N     N_R   0.586136 0.704832 0.785657 0.211404
O9    O     O_R   0.686432 0.770514 0.833554 -0.306917
O10   O     O_R   0.544861 0.786970 0.727974 -0.388072
N4    N     N_R   0.304066 0.626264 0.238382 0.221259
O11   O     O_R   0.156659 0.626532 0.211838 -0.324843
O12   O     O_R   0.348954 0.744431 0.282983 -0.339365
N5    N     N_R   0.752737 0.316921 0.954967 0.216947
O13   O     O_R   0.868202 0.419277 0.975665 -0.312446
O14   O     O_R   0.792668 0.235350 0.886727 -0.310835
N6    N     N_R   0.278770 0.194525 0.023299 0.208266
O15   O     O_R   0.128202 0.209724 0.001812 -0.313750
O16   O     O_R   0.285652 0.105769 0.084895 -0.323130
Br1   Br    Br    0.768184 0.014813 0.399681 -0.393969
Br2   Br    Br    0.226849 0.983947 0.596968 -0.396338

loop_
_geom_bond_atom_site_label_1
_geom_bond_atom_site_label_2
_geom_bond_distance
_ccdc_geom_bond_type
N6    O16   1.301863 A    
O7    Zn2   1.930869 S    
C14   H4    1.083595 S    
C18   N5    1.444041 S    
N1    N2    1.282585 D    
C8    N4    1.438581 S    
C19   Br1   1.945143 S    
O7    C3    1.292807 A    
N3    O9    1.301881 A    
C19   C20   1.353377 D    
C17   N6    1.444803 S    
O6    C4    1.287531 A    
C13   C15   1.385186 A    
N6    O15   1.300626 A    
C11   C17   1.470670 S    
N5    O14   1.301746 A    
C6    C8    1.409987 A    
C12   C18   1.467158 S    
Zn2   N1    2.011303 S    
N2    H8    1.029327 S    
N3    O10   1.301491 A    
C14   C16   1.383216 A    
Zn1   N2    2.011303 S    
O2    C2    1.270466 A    
O3    Zn2   1.984247 S    
O8    C4    1.298451 A    
O1    C1    1.269167 A    
C10   H5    1.083602 S    
C1    C19   1.400186 S    
C12   C14   1.389910 A    
O4    C2    1.288062 A    
C7    C9    1.396922 A    
C2    C20   1.399957 S    
O5    C3    1.286034 A    
C8    C10   1.396869 A    
C11   C13   1.391701 A    
C6    C16   1.409150 A    
O2    Zn2   1.964090 S    
C7    N3    1.442894 S    
C5    C15   1.402771 A    
C20   Br2   1.946974 S    
C10   C12   1.407483 A    
C4    C6    1.458376 S    
O5    Zn1   1.945779 S    
O1    Zn1   1.964091 S    
N4    O11   1.301598 A    
C16   H1    1.083589 S    
N1    H7    1.029333 S    
C17   C18   1.351762 D    
C5    C7    1.406289 A    
C15   H2    1.081974 S    
O6    Zn2   1.945778 S    
C9    C11   1.409866 A    
C3    C5    1.442168 S    
C9    H6    1.083409 S    
N5    O13   1.301493 A    
O4    Zn1   1.984247 S    
N4    O12   1.301582 A    
O3    C1    1.289219 A    
O8    Zn1   1.930868 S    
C13   H3    1.083383 S    
