data_mof_unit_65407.cif
_audit_creation_date              2012-12-10T19:29:24-0500
_audit_creation_method            fapswitch 2.2
_symmetry_space_group_name_H-M    P1
_symmetry_Int_Tables_number       1
_space_group_crystal_system       triclinic
_cell_length_a                    15.910221
_cell_length_b                    17.781673
_cell_length_c                    16.47328
_cell_angle_alpha                 91.178833
_cell_angle_beta                  90.361865
_cell_angle_gamma                 90.51312
_cell_volume                      4659.18965938

loop_
_atom_site_label
_atom_site_type_symbol
_atom_type_description
_atom_site_fract_x
_atom_site_fract_y
_atom_site_fract_z
_atom_type_partial_charge
C1    C     C_R   0.500867 0.355226 0.499074 0.879766
C2    C     C_R   0.482675 0.154678 0.568157 0.426072
C3    C     C_R   0.498229 0.885754 0.503216 -0.068026
C4    C     C_R   0.501775 0.114247 0.496782 -0.068021
C5    C     C_1   0.499488 0.966323 0.500892 0.073573
C6    C     C_1   0.500516 0.033678 0.499104 0.073572
C7    C     C_R   0.553546 0.550685 0.829890 0.168062
C8    C     C_R   0.446455 0.449315 0.170109 0.168065
C9    C     C_R   0.551928 0.549003 0.743152 0.617974
C10   C     C_R   0.448073 0.450997 0.256848 0.617971
C11   C     C_R   0.448929 0.451862 0.741892 -0.141974
C12   C     C_R   0.499134 0.644775 0.500926 0.879757
C13   C     C_R   0.551071 0.548139 0.258108 -0.141975
C14   C     C_R   0.448001 0.450989 0.828012 0.315881
C15   C     C_R   0.551998 0.549011 0.171988 0.315879
C16   C     C_R   0.339630 0.499951 0.499762 0.820671
C17   C     C_R   0.660369 0.500049 0.500238 0.820678
C18   C     C_R   0.500657 0.500744 0.873046 -0.057741
C19   C     C_R   0.499343 0.499256 0.126954 -0.057741
C20   C     C_1   0.499967 0.500009 0.962791 0.089721
C21   C     C_1   0.500032 0.499991 0.037208 0.089720
C22   C     C_3   0.972186 0.433537 0.531296 -0.399123
C23   C     C_R   0.477888 0.768400 0.575317 0.415633
C24   C     C_3   0.027814 0.566461 0.468704 -0.399124
C25   C     C_3   0.026995 0.443018 0.454729 0.363798
C26   C     C_3   0.973005 0.556979 0.545271 0.363797
C27   C     C_1   0.250232 0.500299 0.499279 -0.131685
C28   C     C_1   0.749768 0.499700 0.500721 -0.131682
C29   C     C_3   0.028786 0.493289 0.574932 0.361408
C30   C     C_3   0.971214 0.506709 0.425068 0.361408
C31   C     C_3   0.083577 0.501226 0.499083 0.005149
C32   C     C_3   0.916423 0.498772 0.500917 0.005148
C33   C     C_1   0.174931 0.500706 0.499079 0.111471
C34   C     C_R   0.522139 0.231602 0.424689 0.415625
C35   C     C_1   0.825069 0.499293 0.500921 0.111472
C36   C     C_R   0.478207 0.847940 0.575603 0.270933
C37   C     C_R   0.521821 0.152062 0.424403 0.270939
C38   C     C_R   0.497848 0.727867 0.503281 -0.188936
C39   C     C_R   0.502154 0.272134 0.496719 -0.188923
C40   C     C_R   0.516881 0.766631 0.432437 -0.374463
C41   C     C_R   0.483097 0.233369 0.567556 -0.374464
C42   C     C_R   0.517304 0.845322 0.431835 0.426072
Cu1   Cu    Cu3+1 0.500000 0.499980 0.580420 1.030137
Cu2   Cu    Cu3+1 0.500000 0.500020 0.419580 1.030139
H1    H     H_    0.949981 0.379605 0.556708 0.192026
H2    H     H_    0.010781 0.483030 0.689038 0.347354
H3    H     H_    0.460591 0.940967 0.640043 0.367222
H4    H     H_    0.539464 0.059036 0.359968 0.367220
H5    H     H_    0.444925 0.763631 0.689905 0.383869
H6    H     H_    0.555145 0.236373 0.310115 0.383868
H7    H     H_    0.532251 0.735570 0.377309 0.180314
H8    H     H_    0.467708 0.264430 0.622678 0.180308
H9    H     H_    0.548226 0.847427 0.317614 0.337601
H10   H     H_    0.451714 0.152571 0.682365 0.337601
H11   H     H_    0.602600 0.597356 0.928706 0.368782
H12   H     H_    0.050018 0.620392 0.443292 0.192026
H13   H     H_    0.397401 0.402643 0.071294 0.368782
H14   H     H_    0.636537 0.629239 0.735376 0.367272
H15   H     H_    0.363464 0.370760 0.264624 0.367270
H16   H     H_    0.006260 0.356406 0.386237 0.346610
H17   H     H_    0.993740 0.643592 0.613763 0.346610
H18   H     H_    0.408490 0.413781 0.707196 0.158971
H19   H     H_    0.591509 0.586220 0.292803 0.158973
H20   H     H_    0.363686 0.371212 0.828924 0.333094
H21   H     H_    0.636312 0.628789 0.171076 0.333095
H22   H     H_    0.989219 0.516968 0.310962 0.347354
N1    N     N_R   0.499980 0.499970 0.701220 -0.224336
N2    N     N_R   0.500020 0.500030 0.298780 -0.224335
O1    O     O_R   0.499990 0.391240 0.567930 -0.612669
O2    O     O_3   0.942988 0.615702 0.594444 -0.682877
O3    O     O_3   0.396282 0.402123 0.869042 -0.698515
O4    O     O_3   0.603716 0.597878 0.130958 -0.698515
O5    O     O_3   0.939282 0.511886 0.346162 -0.686874
O6    O     O_3   0.060718 0.488112 0.653838 -0.686875
O7    O     O_3   0.458597 0.885958 0.647215 -0.710931
O8    O     O_3   0.541458 0.114045 0.352797 -0.710933
O9    O     O_3   0.457124 0.728796 0.643993 -0.681702
O10   O     O_3   0.542926 0.271208 0.356022 -0.681717
O11   O     O_3   0.536391 0.884009 0.362252 -0.707518
O12   O     O_R   0.500010 0.608760 0.432070 -0.612669
O13   O     O_3   0.463565 0.115989 0.637732 -0.707521
O14   O     O_3   0.607279 0.601419 0.869166 -0.710323
O15   O     O_3   0.392722 0.398580 0.130834 -0.710323
O16   O     O_3   0.602444 0.596245 0.698748 -0.662503
O17   O     O_3   0.397557 0.403754 0.301251 -0.662514
O18   O     O_R   0.500000 0.391270 0.432120 -0.478029
O19   O     O_R   0.500000 0.608730 0.567880 -0.478028
O20   O     O_R   0.379070 0.499980 0.567900 -0.578325
O21   O     O_R   0.620930 0.500020 0.432100 -0.578320
O22   O     O_R   0.379080 0.500010 0.432080 -0.536800
O23   O     O_R   0.620920 0.499990 0.567920 -0.536800
O24   O     O_3   0.057012 0.384296 0.405556 -0.682876

loop_
_geom_bond_atom_site_label_1
_geom_bond_atom_site_label_2
_ccdc_geom_bond_type
H17   O2    S    
C25   C31   S    
C38   C40   A    
C3    C42   A    
C16   O22   A    
C22   C29   S    
C34   C37   A    
C14   O3    S    
C14   C18   A    
C17   O23   A    
C11   H18   S    
H15   O17   S    
C10   O17   S    
C27   C33   T    
C26   C32   S    
C15   O4    S    
C22   C32   S    
Cu1   O20   S    
H9    O11   S    
C24   C26   S    
C5    C6    T    
C11   C14   A    
C2    C41   A    
C8    O15   S    
C25   C30   S    
H20   O3    S    
H4    O8    S    
C15   C19   A    
C28   C35   T    
C4    C37   A    
C22   C25   S    
C31   C33   S    
C41   H8    S    
C16   C27   S    
C40   C42   A    
C42   O11   S    
Cu1   O1    S    
Cu2   O18   S    
H6    O10   S    
C11   N1    A    
C24   C30   S    
H16   O24   S    
C40   H7    S    
C8    C19   A    
C34   C39   A    
C32   C35   S    
Cu2   O12   S    
C17   O21   A    
C4    C6    S    
C30   O5    S    
C29   O6    S    
H22   O5    S    
Cu1   O23   S    
C2    C4    A    
Cu1   Cu2   S    
C9    N1    A    
C36   O7    S    
H14   O16   S    
C13   H19   S    
C7    C18   A    
C22   H1    S    
H13   O15   S    
C23   O9    S    
H11   O14   S    
C8    C10   A    
C37   O8    S    
C13   C15   A    
C26   O2    S    
Cu2   N2    S    
C23   C38   A    
H2    O6    S    
Cu2   O22   S    
C1    O18   A    
C7    C9    A    
C25   O24   S    
C12   O19   A    
C19   C21   S    
C17   C28   S    
C3    C5    S    
C10   N2    A    
C24   H12   S    
H21   O4    S    
Cu1   O19   S    
C24   C31   S    
H3    O7    S    
C29   C31   S    
C34   O10   S    
C30   C32   S    
C3    C36   A    
C12   O12   A    
H5    O9    S    
C18   C20   S    
C12   C38   S    
C1    O1    A    
C1    C39   S    
C9    O16   S    
C7    O14   S    
C20   C21   T    
C39   C41   A    
C26   C29   S    
Cu1   N1    S    
C23   C36   A    
C16   O20   A    
C2    O13   S    
H10   O13   S    
Cu2   O21   S    
C13   N2    A    
