data_mof_unit_8869.cif
_audit_creation_date              2012-12-10T17:33:57-0500
_audit_creation_method            fapswitch 2.2
_symmetry_space_group_name_H-M    P1
_symmetry_Int_Tables_number       1
_space_group_crystal_system       triclinic
_cell_length_a                    10.608152
_cell_length_b                    12.035606
_cell_length_c                    12.884647
_cell_angle_alpha                 93.018639
_cell_angle_beta                  90.634546
_cell_angle_gamma                 86.674717
_cell_volume                      1639.95267579

loop_
_atom_site_label
_atom_site_type_symbol
_atom_type_description
_atom_site_fract_x
_atom_site_fract_y
_atom_site_fract_z
_atom_type_partial_charge
C1    C     C_R   0.497908 0.521681 0.700302 0.873234
C2    C     C_R   0.495568 0.447000 0.974315 0.180243
C3    C     C_R   0.505564 0.552741 0.025616 0.195756
C4    C     C_R   0.742019 0.501172 0.504821 0.827350
C5    C     C_R   0.509854 0.561058 0.132313 -0.289045
C6    C     C_R   0.495655 0.360191 0.137724 -0.208629
C7    C     C_R   0.491304 0.351008 0.030334 -0.244950
C8    C     C_R   0.431584 0.947840 0.374515 -0.294676
C9    C     C_R   0.431592 0.833699 0.390381 -0.004559
C10   C     C_R   0.524555 0.861201 0.556899 0.002284
C11   C     C_R   0.525149 0.977297 0.544650 -0.016379
C12   C     C_3   0.121367 0.501476 0.507628 0.188394
C13   C     C_R   0.474402 0.022072 0.453672 -0.014313
C14   C     C_R   0.467800 0.139939 0.444891 0.457919
C15   C     C_R   0.582928 0.163854 0.604183 0.564000
C16   C     C_R   0.502260 0.478276 0.299688 0.883453
C17   C     C_R   0.577984 0.048494 0.620165 -0.465202
C18   C     C_R   0.257939 0.500418 0.504748 0.819862
C19   C     C_3   0.934708 0.410611 0.577740 -0.397661
C20   C     C_3   0.078834 0.409001 0.576630 -0.411061
C21   C     C_3   0.927527 0.479944 0.395387 -0.400890
C22   C     C_3   0.920908 0.616838 0.551629 -0.402614
C23   C     C_3   0.071703 0.482415 0.395192 -0.410446
C24   C     C_3   0.878418 0.502333 0.507481 0.188146
C25   C     C_3   0.281752 0.181015 0.357905 0.063760
C26   C     C_3   0.230683 0.198163 0.248104 -0.345794
C27   C     C_3   0.090613 0.175853 0.239196 -0.979686
C28   C     C_3   0.751107 0.194066 0.720574 0.061905
C29   C     C_3   0.733239 0.174783 0.835875 -0.354935
C30   C     C_3   0.855129 0.128116 0.885263 -0.963256
C31   C     C_3   0.065137 0.615726 0.553508 -0.388914
C32   C     C_R   0.503460 0.465443 0.188383 -0.060554
C33   C     C_R   0.497355 0.534382 0.811577 -0.053550
C34   C     C_R   0.510522 0.648667 0.969582 -0.228356
C35   C     C_R   0.506575 0.639484 0.862169 -0.213739
C36   C     C_R   0.490454 0.438809 0.867646 -0.284683
H1    H     H_    0.905027 0.326892 0.549868 0.181081
H2    H     H_    0.900583 0.427192 0.658756 0.158518
H3    H     H_    0.398110 0.977008 0.300546 0.167674
H4    H     H_    0.616185 0.013862 0.690451 0.165616
H5    H     H_    0.397268 0.777922 0.329336 0.133009
H6    H     H_    0.564679 0.825526 0.626144 0.114587
H7    H     H_    0.116150 0.325344 0.546806 0.168849
H8    H     H_    0.113189 0.402975 0.359537 0.168614
H9    H     H_    0.883513 0.684986 0.502617 0.187284
H10   H     H_    0.883944 0.634913 0.631654 0.160988
H11   H     H_    0.099357 0.630827 0.634747 0.163081
H12   H     H_    0.094832 0.685349 0.507492 0.186280
H13   H     H_    0.481829 0.357493 0.828618 0.187341
H14   H     H_    0.239467 0.247136 0.411305 0.159820
H15   H     H_    0.249920 0.100629 0.383957 0.126059
H16   H     H_    0.244653 0.285077 0.227367 0.220484
H17   H     H_    0.283927 0.140584 0.191804 0.223575
H18   H     H_    0.076416 0.086880 0.252027 0.265039
H19   H     H_    0.055358 0.194649 0.160194 0.271098
H20   H     H_    0.034970 0.228846 0.297290 0.260038
H21   H     H_    0.820980 0.258441 0.715241 0.154270
H22   H     H_    0.793832 0.118117 0.678240 0.119963
H23   H     H_    0.885955 0.544087 0.343816 0.166741
H24   H     H_    0.703645 0.255201 0.877357 0.232890
H25   H     H_    0.657828 0.115997 0.845375 0.210923
H26   H     H_    0.885111 0.046263 0.846707 0.261512
H27   H     H_    0.839392 0.116368 0.968943 0.267660
H28   H     H_    0.931372 0.186746 0.878392 0.263190
H29   H     H_    0.115542 0.422304 0.657353 0.161428
H30   H     H_    0.899044 0.397253 0.363552 0.168970
H31   H     H_    0.099930 0.550374 0.346426 0.168419
H32   H     H_    0.517400 0.642517 0.171373 0.156196
H33   H     H_    0.491489 0.285656 0.180757 0.199830
H34   H     H_    0.518053 0.730044 0.008633 0.136426
H35   H     H_    0.484254 0.269560 0.991295 0.138512
H36   H     H_    0.512013 0.713878 0.819002 0.156286
N1    N     N_R   0.523380 0.207800 0.519350 -0.167411
N2    N     N_R   0.476620 0.792180 0.480650 -0.100339
O1    O     O_R   0.506240 0.421700 0.658830 -0.569049
O2    O     O_3   0.635994 0.236696 0.677297 -0.615354
O3    O     O_R   0.491240 0.609310 0.646410 -0.642195
O4    O     O_R   0.692710 0.406190 0.506230 -0.608076
O5    O     O_R   0.677700 0.593810 0.493810 -0.629577
O6    O     O_R   0.508760 0.390690 0.353590 -0.568850
O7    O     O_R   0.493760 0.578300 0.341170 -0.638874
O8    O     O_R   0.322300 0.406190 0.506190 -0.634055
O9    O     O_R   0.307290 0.593810 0.493770 -0.627742
O10   O     O_3   0.414783 0.186747 0.357563 -0.627550
Zn1   Zn    Zn3+2 0.510020 0.374730 0.508290 0.996798
Zn2   Zn    Zn3+2 0.489980 0.625270 0.491710 0.927611

loop_
_geom_bond_atom_site_label_1
_geom_bond_atom_site_label_2
_ccdc_geom_bond_type
C6    H33   S    
C6    C32   A    
C8    C13   A    
C30   H28   S    
C21   H30   S    
C10   H6    S    
C1    O3    A    
C2    C7    A    
C14   O10   S    
C27   H18   S    
C1    C33   S    
C28   H21   S    
C12   C23   S    
C26   C27   S    
O6    Zn1   S    
C28   C29   S    
C21   H23   S    
C7    H35   S    
C4    C24   S    
C27   H19   S    
C33   C36   A    
C34   C35   A    
C23   H31   S    
C25   H14   S    
C19   H1    S    
C18   O8    A    
O1    Zn1   S    
C19   C20   S    
C8    C9    A    
C25   O10   S    
C10   N2    A    
C8    H3    S    
C34   H34   S    
O7    Zn2   S    
C5    C32   A    
C15   O2    S    
C31   H11   S    
C13   C14   A    
C5    H32   S    
C29   H25   S    
C22   C31   S    
C1    O1    A    
C14   N1    A    
C20   H29   S    
C4    O5    A    
C27   H20   S    
C3    C34   A    
C25   C26   S    
C23   H8    S    
C16   O6    A    
C17   H4    S    
C25   H15   S    
C4    O4    A    
C29   C30   S    
C19   H2    S    
C26   H16   S    
C29   H24   S    
C12   C20   S    
C18   O9    A    
N2    Zn2   S    
N1    Zn1   S    
O4    Zn1   S    
C22   H10   S    
O3    Zn2   S    
C31   H12   S    
C30   H26   S    
C12   C31   S    
C22   C24   S    
C9    N2    A    
C28   O2    S    
C26   H17   S    
C20   H7    S    
C2    C36   A    
C15   C17   A    
C11   C17   A    
C15   N1    A    
C3    C5    A    
C35   H36   S    
C6    C7    A    
C28   H22   S    
C16   C32   S    
O8    Zn1   S    
C9    H5    S    
O9    Zn2   S    
C21   C23   S    
C2    C3    A    
C11   C13   A    
C16   O7    A    
C33   C35   A    
C19   C24   S    
C10   C11   A    
C22   H9    S    
C21   C24   S    
C12   C18   S    
C30   H27   S    
O5    Zn2   S    
C36   H13   S    
