data_mof_unit_51445.cif
_audit_creation_date              2012-12-10T20:36:41-0500
_audit_creation_method            fapswitch 2.2
_symmetry_space_group_name_H-M    P1
_symmetry_Int_Tables_number       1
_space_group_crystal_system       triclinic
_cell_length_a                    10.493408
_cell_length_b                    10.656778
_cell_length_c                    9.87285
_cell_angle_alpha                 89.883229
_cell_angle_beta                  90.713711
_cell_angle_gamma                 90.335772
_cell_volume                      1103.93378677

loop_
_atom_site_label
_atom_site_type_symbol
_atom_type_description
_atom_site_fract_x
_atom_site_fract_y
_atom_site_fract_z
_atom_type_partial_charge
C1    C     C_R   0.504602 0.260036 0.500242 0.868117
C2    C     C_3   0.957421 0.596711 0.427042 -0.198049
C3    C     C_3   0.037934 0.488107 0.370719 -0.162078
C4    C     C_3   0.122391 0.497941 0.497978 0.002560
C5    C     C_R   0.518475 0.063778 0.623879 0.139878
C6    C     C_R   0.526177 0.128868 0.501946 -0.108171
C7    C     C_R   0.558932 0.065608 0.382967 -0.233137
C8    C     C_R   0.558634 0.935706 0.382772 -0.235339
C9    C     C_R   0.525822 0.871516 0.501619 -0.103839
C10   C     C_R   0.518345 0.935915 0.623718 0.126739
C11   C     C_3   0.420499 0.927909 0.732294 -0.476311
C12   C     C_R   0.257344 0.498844 0.499199 0.871915
C13   C     C_3   0.420551 0.070131 0.732367 -0.494962
C14   C     C_R   0.438595 0.407033 0.070568 0.220634
C15   C     C_R   0.570023 0.585083 0.072707 -0.133803
C16   C     C_R   0.570010 0.585113 0.928763 -0.141387
C17   C     C_R   0.438519 0.407087 0.928060 0.219406
C18   C     C_3   0.299650 0.377151 0.920614 -0.516280
C19   C     C_3   0.299772 0.377237 0.074348 -0.523488
C20   C     C_R   0.504495 0.740038 0.500012 0.876183
C21   C     C_R   0.742576 0.500586 0.500924 0.853340
C22   C     C_3   0.042892 0.400481 0.574193 -0.200675
C23   C     C_3   0.956271 0.392020 0.447649 0.131682
C24   C     C_3   0.877489 0.499539 0.502688 -0.004365
C25   C     C_3   0.962109 0.509278 0.629727 -0.164200
C26   C     C_3   0.044565 0.606517 0.553890 -0.171490
H1    H     H_    0.459710 0.886748 0.827511 0.203075
H2    H     H_    0.329024 0.111096 0.695995 0.192388
H3    H     H_    0.459690 0.111214 0.827693 0.203211
H4    H     H_    0.624610 0.655313 0.127545 0.140729
H5    H     H_    0.624547 0.655390 0.875076 0.144266
H6    H     H_    0.242436 0.454457 0.875339 0.223650
H7    H     H_    0.280645 0.283014 0.876429 0.193946
H8    H     H_    0.280753 0.283242 0.119005 0.196990
H9    H     H_    0.082584 0.320730 0.633381 0.125614
H10   H     H_    0.927201 0.518293 0.734941 0.146809
H11   H     H_    0.085800 0.694169 0.596987 0.130041
H12   H     H_    0.918012 0.676709 0.368039 0.137478
H13   H     H_    0.575700 0.115323 0.288967 0.170671
H14   H     H_    0.328907 0.886060 0.696064 0.198761
N1    N     N_R   0.499140 0.499140 0.142800 -0.106210
N2    N     N_R   0.499140 0.499180 0.857150 -0.105035
O1    O     O_R   0.500020 0.316790 0.614690 -0.615131
O2    O     O_R   0.500000 0.316760 0.385350 -0.624433
O3    O     O_R   0.313960 0.499990 0.614650 -0.621571
O4    O     O_R   0.313940 0.499950 0.385310 -0.622537
O5    O     O_R   0.500000 0.683240 0.614650 -0.619323
O6    O     O_R   0.499980 0.683210 0.385310 -0.623184
O7    O     O_R   0.686060 0.500050 0.614690 -0.625553
O8    O     O_R   0.686040 0.500010 0.385350 -0.628263
Zn1   Zn    Zn3+2 0.500010 0.500020 0.653130 0.935720
Zn2   Zn    Zn3+2 0.499990 0.499980 0.346870 0.931781
C27   C     C_3   0.899020 0.271054 0.389475 -0.427830
C28   C     C_3   0.003144 0.179391 0.347556 -0.339310
C29   C     C_3   0.945141 0.057750 0.292708 -0.886698
H15   H     H_    0.886603 0.011181 0.371460 0.265177
H16   H     H_    0.884334 0.077276 0.202275 0.259105
H17   H     H_    0.022433 0.992994 0.263061 0.247252
H18   H     H_    0.063069 0.223007 0.267971 0.219566
H19   H     H_    0.065158 0.156897 0.436332 0.216414
H20   H     H_    0.837894 0.226804 0.467598 0.196885
H21   H     H_    0.838331 0.294851 0.300119 0.212363
H22   H     H_    0.243373 0.455112 0.117294 0.213432
H23   H     H_    0.071019 0.478865 0.265085 0.131502
H24   H     H_    0.575117 0.886654 0.288648 0.165377

loop_
_geom_bond_atom_site_label_1
_geom_bond_atom_site_label_2
_ccdc_geom_bond_type
C15   C16   A    
C4    C26   S    
C23   C24   S    
C13   H2    S    
C27   C28   S    
C6    C7    A    
C16   N2    A    
C4    C12   S    
C4    C22   S    
C9    C10   A    
C2    H12   S    
N1    Zn2   S    
C5    C13   S    
C11   H1    S    
N2    Zn1   S    
C29   H15   S    
O2    Zn2   S    
C21   O7    A    
C17   C18   S    
C8    H24   S    
C2    C26   S    
C26   H11   S    
C28   H19   S    
C3    H23   S    
C16   H5    S    
C22   H9    S    
C11   C13   S    
C14   C17   A    
O1    Zn1   S    
C20   O6    A    
C27   H20   S    
C14   N1    A    
C5    C6    A    
C13   H3    S    
C21   O8    A    
C22   C25   S    
C23   C27   S    
O6    Zn2   S    
C2    C3    S    
C28   H18   S    
C29   H16   S    
C2    C24   S    
C11   H14   S    
C18   H7    S    
C21   C24   S    
C20   O5    A    
C18   H6    S    
C10   C11   S    
O3    Zn1   S    
C25   H10   S    
C5    C10   A    
C1    C6    S    
C9    C20   S    
O4    Zn2   S    
C7    C8    A    
C24   C25   S    
C15   N1    A    
C15   H4    S    
C12   O4    A    
C18   C19   S    
C27   H21   S    
C29   H17   S    
O8    Zn2   S    
C7    H13   S    
C17   N2    A    
C12   O3    A    
O5    Zn1   S    
C1    O2    A    
C25   C26   S    
C28   C29   S    
C3    C23   S    
C14   C19   S    
C1    O1    A    
C22   C23   S    
C3    C4    S    
C19   H22   S    
C8    C9    A    
O7    Zn1   S    
C19   H8    S    
