data_mof_unit_29250.cif
_audit_creation_date              2013-03-05T16:19:46-0500
_audit_creation_method            fapswitch 2.2
_symmetry_space_group_name_H-M    P1
_symmetry_Int_Tables_number       1
_space_group_crystal_system       triclinic
_cell_length_a                    10.808153
_cell_length_b                    9.808255
_cell_length_c                    27.531325
_cell_angle_alpha                 90.127305
_cell_angle_beta                  89.867012
_cell_angle_gamma                 90.594734
_cell_volume                      2918.39941402

loop_
_atom_site_label
_atom_site_type_symbol
_atom_site_description
_atom_site_fract_x
_atom_site_fract_y
_atom_site_fract_z
_atom_type_partial_charge
O1    O     O_R   0.314910 0.616040 0.499990 -0.573419
O2    O     O_R   0.314910 0.383960 0.499990 -0.546401
C1    C     C_R   0.258394 0.499279 0.501066 1.085261
O3    O     O_R   0.500140 0.616020 0.428740 -0.585935
O4    O     O_R   0.500140 0.383980 0.428740 -0.560121
C2    C     C_R   0.499390 0.499237 0.405774 1.081783
Zn1   Zn    Zn3+2 0.500150 0.654960 0.499980 1.091345
Zn2   Zn    Zn3+2 0.500150 0.345040 0.499980 1.101133
O5    O     O_R   0.685320 0.616040 0.499970 -0.578099
O6    O     O_R   0.685320 0.383960 0.499970 -0.595248
O7    O     O_R   0.500090 0.616050 0.571230 -0.615235
O8    O     O_R   0.500090 0.383950 0.571230 -0.608977
C3    C     C_R   0.742258 0.500781 0.504265 1.031926
C4    C     C_R   0.497430 0.499939 0.593968 1.021717
C5    C     C_R   0.315943 0.525391 0.179814 0.679285
O9    O     O_2   0.236127 0.598499 0.206814 -0.408582
N1    N     N_R   0.409814 0.459347 0.202540 -0.328417
C6    C     C_R   0.492003 0.380235 0.178006 0.667907
C7    C     C_R   0.521134 0.564949 0.269925 -0.192230
C8    C     C_R   0.550811 0.571816 0.319334 0.251598
C9    C     C_R   0.386281 0.405943 0.335314 0.582866
C10   C     C_R   0.359798 0.398450 0.286120 0.709108
C11   C     C_R   0.427095 0.477922 0.253476 -0.036366
C12   C     C_R   0.395184 0.445910 0.102515 -0.108204
C13   C     C_R   0.305590 0.520330 0.128735 -0.160029
C14   C     C_R   0.214367 0.593785 0.103102 0.244576
C15   C     C_R   0.484789 0.368103 0.127336 -0.208252
C16   C     C_R   0.480086 0.493738 0.352826 -0.369701
C17   C     C_R   0.480662 0.498899 0.646736 -0.393329
C18   C     C_R   0.299609 0.501946 0.974304 0.068778
C19   C     C_R   0.513675 0.423030 0.976195 -0.088297
C20   C     C_R   0.408987 0.464448 0.949666 0.063966
C21   C     C_R   0.190390 0.515243 0.947183 -0.141817
C22   C     C_R   0.191397 0.510935 0.896486 0.308880
C23   C     C_R   0.305361 0.496108 0.871562 -0.125956
C24   C     C_R   0.413631 0.468295 0.898503 -0.155611
C25   C     C_R   0.526829 0.444773 0.874435 -0.223877
C26   C     C_R   0.530038 0.450885 0.823673 0.652279
N2    N     N_R   0.426747 0.485843 0.798348 -0.335382
C27   C     C_R   0.316391 0.510370 0.820811 0.671862
C28   C     C_R   0.381152 0.397495 0.717196 0.666344
C29   C     C_R   0.402425 0.398876 0.667422 0.557357
C30   C     C_R   0.535421 0.600085 0.676611 0.234310
C31   C     C_R   0.510431 0.599306 0.726384 -0.191126
C32   C     C_R   0.435893 0.496929 0.746734 -0.030303
O10   O     O_2   0.219774 0.552597 0.794063 -0.419398
C33   C     C_R   0.302184 0.517317 0.025634 -0.027954
C34   C     C_R   0.397651 0.451577 0.051365 0.009878
C35   C     C_R   0.497539 0.392658 0.025923 -0.051210
C36   C     C_R   0.214070 0.594912 0.051977 0.179569
H1    H     H_    0.101599 0.520639 0.965160 0.222266
O11   O     O_2   0.583212 0.318580 0.202811 -0.428461
C37   C     C_R   0.566726 0.285025 0.100501 0.217506
H2    H     H_    0.575535 0.621472 0.243551 0.235840
C38   C     C_R   0.629884 0.414632 0.952244 0.219267
C39   C     C_R   0.634709 0.421417 0.901543 0.651244
O12   O     O_2   0.635375 0.422217 0.799430 -0.402196
C40   C     C_R   0.573004 0.298772 0.050176 0.608944
H3    H     H_    0.554484 0.673817 0.749949 0.233757
C41   C     C_3   0.077872 0.624298 0.532345 0.486541
C42   C     C_3   0.073757 0.370766 0.530404 0.508596
H4    H     H_    0.107443 0.719836 0.514723 0.247368
H5    H     H_    0.109907 0.274696 0.515570 0.256188
C43   C     C_3   0.936014 0.620289 0.538032 -0.053817
C44   C     C_3   0.931838 0.366931 0.529134 -0.113719
H6    H     H_    0.915887 0.591160 0.576378 0.234902
H7    H     H_    0.898271 0.367384 0.567488 0.208649
C45   C     C_3   0.070421 0.503672 0.447937 0.085597
C46   C     C_3   0.122649 0.498337 0.502243 -0.563851
C47   C     C_3   0.879979 0.502126 0.504833 -0.520771
C48   C     C_3   0.926130 0.519416 0.451391 1.099735
C49   C     C_3   0.407826 0.080237 0.534177 0.470191
C50   C     C_3   0.407458 0.918205 0.534103 0.447112
H8    H     H_    0.430146 0.116781 0.571457 0.139759
H9    H     H_    0.428673 0.881892 0.571419 0.114194
H10   H     H_    0.370309 0.112852 0.442033 0.214516
H11   H     H_    0.368911 0.886633 0.442378 0.198453
C51   C     C_3   0.466610 0.080534 0.450080 0.119813
C52   C     C_3   0.465919 0.919552 0.450279 0.105907
C53   C     C_3   0.619673 0.080713 0.514645 -0.386621
C54   C     C_3   0.619226 0.920691 0.515034 -0.363423
N3    N     N_3   0.499750 0.138610 0.498940 -0.216412
N4    N     N_3   0.499750 0.861390 0.498940 -0.216302
H12   H     H_    0.694654 0.115234 0.491074 0.314654
H13   H     H_    0.695145 0.882051 0.492582 0.311072
H14   H     H_    0.643283 0.119889 0.551486 0.210455
H15   H     H_    0.638702 0.885216 0.552500 0.233611
F1    F     F_    0.320551 0.325610 0.365971 -0.540216
N5    N     N_R   0.640538 0.182638 0.123310 0.288344
O13   O     O_R   0.587245 0.086813 0.148732 -0.245501
O14   O     O_R   0.757556 0.172787 0.112732 -0.191202
N6    N     N_R   0.744317 0.418417 0.978970 0.277045
O15   O     O_R   0.757386 0.501054 0.015703 -0.304245
O16   O     O_R   0.839422 0.349371 0.964097 -0.208410
N7    N     N_R   0.623323 0.696953 0.657719 0.249728
O17   O     O_R   0.629206 0.819857 0.675519 -0.302133
O18   O     O_R   0.711081 0.655754 0.629035 -0.363762
F2    F     F_    0.746629 0.413456 0.879160 -0.508782
F3    F     F_    0.644188 0.210354 0.024622 -0.570865
F4    F     F_    0.132621 0.628640 0.577941 -0.534589
F5    F     F_    0.114132 0.372272 0.578254 -0.512169
F6    F     F_    0.270914 0.310887 0.269930 -0.518651
N8    N     N_R   0.886689 0.758385 0.531981 0.237004
O19   O     O_R   0.913890 0.830551 0.493769 -0.219615
O20   O     O_R   0.851999 0.823511 0.570801 -0.263513
N9    N     N_R   0.891689 0.235283 0.508951 0.213467
O21   O     O_R   0.907382 0.207374 0.463209 -0.207263
O22   O     O_R   0.885021 0.133116 0.538992 -0.295112
N10   N     N_R   0.128033 0.620251 0.421251 0.243852
O23   O     O_R   0.102718 0.746530 0.431387 -0.232943
O24   O     O_R   0.211563 0.598177 0.388133 -0.321648
N11   N     N_R   0.096118 0.378339 0.419212 0.279894
O25   O     O_R   0.061296 0.372520 0.373955 -0.111477
O26   O     O_R   0.161478 0.278158 0.435636 -0.285569
F7    F     F_    0.890446 0.644819 0.434178 -0.519479
F8    F     F_    0.864973 0.426045 0.421886 -0.535440
F9    F     F_    0.290314 0.126606 0.524157 -0.552303
F10   F     F_    0.289712 0.870243 0.523753 -0.566228
N12   N     N_R   0.541945 0.134311 0.409361 0.267704
O27   O     O_R   0.497148 0.127338 0.365585 -0.240578
O28   O     O_R   0.654849 0.178817 0.414585 -0.238682
N13   N     N_R   0.540683 0.866218 0.410042 0.258914
O29   O     O_R   0.484823 0.838630 0.369291 -0.289129
O30   O     O_R   0.660711 0.877276 0.409837 -0.222645
N14   N     N_R   0.124330 0.673338 0.128447 0.278340
O31   O     O_R   0.134307 0.805615 0.129279 -0.226935
O32   O     O_R   0.025844 0.614526 0.146269 -0.213201
F11   F     F_    0.345348 0.303102 0.639406 -0.537350
F12   F     F_    0.309868 0.297235 0.736997 -0.541847
N15   N     N_R   0.075002 0.514490 0.871529 0.267782
O33   O     O_R   0.990787 0.600461 0.885168 -0.239521
O34   O     O_R   0.043812 0.414585 0.842723 -0.193420
N16   N     N_R   0.134850 0.689745 0.027700 0.216444
O35   O     O_R   0.016350 0.689375 0.036208 -0.231364
O36   O     O_R   0.182199 0.781526 0.998879 -0.298495
N17   N     N_R   0.658567 0.648021 0.333822 0.290167
O37   O     O_R   0.700428 0.747685 0.307077 -0.202225
O38   O     O_R   0.726120 0.604808 0.369330 -0.214995

loop_
_geom_bond_atom_site_label_1
_geom_bond_atom_site_label_2
_geom_bond_distance
_ccdc_geom_bond_type
C43   N8    1.470706 S    
Zn1   N4    2.025035 S    
C38   C39   1.398419 A    
C37   C40   1.393782 A    
C17   C29   1.408856 A    
C28   C29   1.389042 A    
C42   F5    1.388737 S    
N7    O17   1.301268 A    
C12   C15   1.417049 A    
C39   F2    1.359194 S    
C53   H12   1.088743 S    
N11   O26   1.298784 A    
N16   O35   1.301434 A    
C6    O11   1.349510 S    
Zn1   O7    1.999219 S    
C38   N6    1.440703 S    
Zn2   N3    2.024818 S    
C20   C24   1.409935 A    
C24   C25   1.410875 A    
C1    C46   1.467376 S    
H10   C51   1.114069 S    
O2    C1    1.291295 A    
N10   O24   1.301014 A    
O4    C2    1.296602 A    
O7    C4    1.300800 A    
C5    C13   1.411706 A    
N9    O21   1.299249 A    
C31   H3    1.083411 S    
C44   C47   1.594114 S    
C41   H4    1.100309 S    
C22   C23   1.417228 A    
C45   N11   1.488445 S    
C42   H5    1.101155 S    
O5    C3    1.298484 A    
C53   H14   1.113104 S    
C25   C39   1.406885 A    
C2    C16   1.473858 S    
C19   C20   1.411895 A    
C45   C46   1.600511 S    
C44   H7    1.115746 S    
C49   F9    1.382117 S    
C30   N7    1.434229 S    
C47   C48   1.561518 S    
C43   C47   1.590193 S    
N5    O14   1.301705 A    
C29   F11   1.358274 S    
N2    C32   1.428517 S    
H11   C52   1.115606 S    
C9    F1    1.351468 S    
C9    C10   1.386583 A    
C17   C30   1.413582 A    
C50   H9    1.113220 S    
C51   N12   1.478995 S    
C19   C35   1.411777 A    
O3    Zn1   1.997340 S    
N11   O25   1.303400 A    
C54   N4    1.479208 S    
C21   C22   1.396302 A    
C33   C36   1.421830 A    
N12   O28   1.299932 A    
C52   N13   1.468256 S    
C40   F3    1.359258 S    
C12   C34   1.409635 A    
C18   C33   1.421181 A    
C12   C13   1.414443 A    
C53   N3    1.486067 S    
N2    C27   1.365601 A    
C51   C52   1.578915 S    
C53   C54   1.569555 S    
C8    C16   1.417300 A    
C13   C14   1.417546 A    
O6    C3    1.300261 A    
C35   C40   1.407110 A    
O1    C1    1.292697 A    
C14   N14   1.432796 S    
C43   H6    1.114661 S    
N15   O34   1.301420 A    
C30   C31   1.396087 A    
C25   C26   1.399297 A    
C18   C20   1.413186 A    
C26   O12   1.350186 S    
C51   N3    1.502287 S    
C33   C34   1.414733 A    
Zn2   O8    1.997557 S    
N6    O16   1.301597 A    
N1    C6    1.362574 A    
C48   F7    1.378224 S    
N8    O20   1.300384 A    
N1    C11   1.426194 S    
C8    N17   1.434194 S    
C54   H15   1.110607 S    
C7    H2    1.083205 S    
C49   H8    1.112588 S    
C34   C35   1.413428 A    
C9    C16   1.408615 A    
O8    C4    1.297847 A    
C37   N5    1.435619 S    
N14   O31   1.300926 A    
O3    C2    1.307087 A    
C27   O10   1.348423 S    
C4    C17   1.463649 S    
N13   O30   1.300676 A    
C44   N9    1.466509 S    
C31   C32   1.398142 A    
C7    C11   1.396119 A    
N17   O38   1.296130 A    
N16   O36   1.301396 A    
C42   C46   1.560327 S    
Zn1   O5    2.041314 S    
N7    O18   1.299870 A    
C50   F10   1.382284 S    
C18   C21   1.405605 A    
O1    Zn1   2.034273 S    
O2    Zn2   2.042058 S    
C6    C15   1.402112 A    
C49   C50   1.589215 S    
C41   F4    1.389420 S    
C36   N16   1.437702 S    
O4    Zn2   1.999006 S    
N12   O27   1.301264 A    
C15   C37   1.415400 A    
C5    N1    1.363388 A    
C21   H1    1.080487 S    
C10   F6    1.357327 S    
C41   C43   1.540940 S    
C7    C8    1.399640 A    
C14   C36   1.407599 A    
C23   C27   1.409181 A    
N5    O13   1.301850 A    
N10   O23   1.300750 A    
C28   F12   1.357387 S    
C26   N2    1.364788 A    
N9    O22   1.302035 A    
C41   C46   1.566314 S    
C45   C48   1.571378 S    
N6    O15   1.301639 A    
C48   F8    1.386395 S    
N15   O33   1.301335 A    
C45   N10   1.490580 S    
C54   H13   1.096389 S    
C52   N4    1.504651 S    
C42   C44   1.534435 S    
C22   N15   1.435611 S    
Zn2   O6    2.033530 S    
C3    C47   1.488550 S    
N8    O19   1.300679 A    
N14   O32   1.301006 A    
C28   C32   1.396154 A    
C10   C11   1.390196 A    
N17   O37   1.301895 A    
C23   C24   1.416162 A    
C19   C38   1.420296 A    
N13   O29   1.301874 A    
C50   N4    1.499138 S    
C49   N3    1.497393 S    
C5    O9    1.348489 S    
