data_mof_unit_60712.cif
_audit_creation_date              2012-12-10T19:57:49-0500
_audit_creation_method            fapswitch 2.2
_symmetry_space_group_name_H-M    P1
_symmetry_Int_Tables_number       1
_space_group_crystal_system       triclinic
_cell_length_a                    38.994342
_cell_length_b                    32.084211
_cell_length_c                    21.800539
_cell_angle_alpha                 89.317482
_cell_angle_beta                  124.643719
_cell_angle_gamma                 90.326903
_cell_volume                      22437.3731135

loop_
_atom_site_label
_atom_site_type_symbol
_atom_type_description
_atom_site_fract_x
_atom_site_fract_y
_atom_site_fract_z
_atom_type_partial_charge
C1    C     C_R   0.419292 0.500023 0.419356 0.901155
C2    C     C_R   0.580709 0.499980 0.580651 0.901692
C3    C     C_R   0.919291 0.000017 0.419346 0.902012
C4    C     C_R   0.080709 0.999980 0.580652 0.902017
C5    C     C_R   0.272134 0.514598 0.324291 -0.185713
C6    C     C_R   0.727824 0.515099 0.675560 -0.185685
C7    C     C_R   0.772133 0.014369 0.324361 -0.185967
C8    C     C_R   0.227826 0.015490 0.675807 -0.186259
C9    C     C_R   0.293312 0.499996 0.294250 0.171318
C10   C     C_R   0.706689 0.499791 0.705731 0.171290
C11   C     C_R   0.793310 0.999880 0.294249 0.170960
C12   C     C_R   0.206689 0.999799 0.705730 0.170658
C13   C     C_R   0.271237 0.485325 0.221136 -0.180918
C14   C     C_R   0.728807 0.484435 0.778972 -0.181005
C15   C     C_R   0.771234 0.985303 0.221073 -0.181080
C16   C     C_R   0.228806 0.984060 0.778722 -0.180723
C17   C     C_1   0.162195 0.499938 0.163431 -0.070601
C18   C     C_1   0.837806 0.499851 0.836567 -0.070591
C19   C     C_1   0.662194 0.999858 0.163426 -0.070656
C20   C     C_1   0.337806 0.999856 0.836566 -0.070647
C21   C     C_1   0.337734 0.500059 0.338437 -0.071542
C22   C     C_1   0.662267 0.499877 0.661566 -0.071631
C23   C     C_1   0.837732 0.999986 0.338417 -0.071748
C24   C     C_1   0.162267 0.999883 0.661566 -0.071696
C25   C     C_1   0.375043 0.500066 0.375453 -0.191660
C26   C     C_1   0.624958 0.499932 0.624557 -0.191588
C27   C     C_1   0.875041 0.000034 0.375431 -0.191684
C28   C     C_1   0.124958 0.999935 0.624558 -0.191582
C29   C     C_1   0.124878 0.499961 0.125817 -0.178509
C30   C     C_1   0.875122 0.499922 0.874185 -0.178497
C31   C     C_1   0.624877 0.999919 0.125814 -0.178510
C32   C     C_1   0.375122 0.999925 0.874184 -0.178522
C33   C     C_R   0.500021 0.419289 0.000043 0.897924
C34   C     C_R   0.000020 0.919291 0.999996 0.915357
C35   C     C_R   0.499645 0.496946 0.880822 0.922040
C36   C     C_R   0.500358 0.497110 0.119317 0.921158
C37   C     C_R   0.999643 0.002884 0.880682 0.920877
C38   C     C_R   0.000357 0.997110 0.119317 0.921023
C39   C     C_R   0.499977 0.580714 0.999969 0.932192
C40   C     C_R   0.999978 0.080715 0.000002 0.915293
C41   C     C_R   0.499983 0.500046 0.619119 0.789063
C42   C     C_R   0.499922 0.500488 0.380763 0.787697
C43   C     C_R   0.000086 0.999498 0.619246 0.787532
C44   C     C_R   0.999922 0.000488 0.380763 0.787695
C45   C     C_R   0.000004 0.419425 0.000334 0.906457
C46   C     C_R   0.500003 0.919424 0.000333 0.906516
C47   C     C_R   0.080614 0.499984 0.080883 0.906845
C48   C     C_R   0.919386 0.499987 0.919118 0.906909
C49   C     C_R   0.580614 0.999979 0.080882 0.906833
C50   C     C_R   0.419386 0.999988 0.919118 0.906842
C51   C     C_R   0.999998 0.580662 0.999668 0.907470
C52   C     C_R   0.499999 0.080661 0.999669 0.907311
C53   C     C_R   0.977337 0.727867 0.020526 -0.180903
C54   C     C_R   0.022315 0.728679 0.976609 -0.181803
C55   C     C_R   0.477606 0.227858 0.021100 -0.181940
C56   C     C_R   0.522106 0.228686 0.976185 -0.181917
C57   C     C_R   0.999811 0.706649 0.998461 0.167685
C58   C     C_R   0.499839 0.206648 0.998526 0.168374
C59   C     C_R   0.522158 0.272117 0.976468 -0.182867
C60   C     C_R   0.477659 0.271281 0.021386 -0.183101
C61   C     C_R   0.022366 0.772111 0.976880 -0.178967
C62   C     C_R   0.977390 0.771290 0.020800 -0.183623
C63   C     C_R   0.499950 0.293322 0.999104 0.169470
C64   C     C_R   0.999921 0.793323 0.999018 0.168077
C65   C     C_1   0.999897 0.662229 0.998569 -0.069812
C66   C     C_1   0.499915 0.162228 0.998604 -0.070670
C67   C     C_1   0.500031 0.337737 0.999496 -0.072844
C68   C     C_1   0.000014 0.837739 0.999425 -0.069142
C69   C     C_1   0.500054 0.375043 0.999801 -0.179773
C70   C     C_1   0.000047 0.875044 0.999746 -0.179147
C71   C     C_2   0.531299 0.480415 0.814677 -0.119506
C72   C     C_2   0.468624 0.480966 0.185887 -0.118137
C73   C     C_2   0.031377 0.019037 0.814118 -0.117694
C74   C     C_2   0.968625 0.980964 0.185888 -0.118200
C75   C     C_1   0.999954 0.624917 0.998927 -0.178253
C76   C     C_1   0.499964 0.124917 0.998941 -0.178772
C77   C     C_R   0.977979 0.272260 0.933278 -0.181037
C78   C     C_R   0.021489 0.271291 0.068719 -0.181953
C79   C     C_R   0.476287 0.772244 0.933403 -0.180586
C80   C     C_R   0.523138 0.771305 0.068584 -0.180978
C81   C     C_R   0.999737 0.293407 0.001087 0.167924
C82   C     C_R   0.499716 0.793406 0.001084 0.167503
C83   C     C_R   0.523158 0.727869 0.068387 -0.179344
C84   C     C_R   0.476309 0.728816 0.933205 -0.179530
C85   C     C_R   0.021508 0.227855 0.068528 -0.179317
C86   C     C_R   0.977999 0.228832 0.933086 -0.183368
C87   C     C_R   0.499762 0.706712 0.000691 0.168259
C88   C     C_R   0.999781 0.206713 0.000706 0.168943
C89   C     C_1   0.999857 0.337839 0.001185 -0.070014
C90   C     C_1   0.499842 0.837838 0.001174 -0.069071
C91   C     C_1   0.499856 0.662286 0.000444 -0.065308
C92   C     C_1   0.999867 0.162287 0.000470 -0.069099
C93   C     C_1   0.499921 0.624973 0.000205 -0.178786
C94   C     C_1   0.999926 0.124974 0.000234 -0.179331
C95   C     C_1   0.999939 0.375157 0.000965 -0.178239
C96   C     C_1   0.499931 0.875157 0.000957 -0.177676
C97   C     C_2   0.497597 0.487948 0.814383 -0.255839
C98   C     C_2   0.502351 0.488804 0.186184 -0.257528
C99   C     C_2   0.997651 0.011170 0.813812 -0.258878
C100  C     C_2   0.002351 0.988805 0.186184 -0.257893
C101  C     C_2   0.526704 0.476729 0.743527 -0.263272
C102  C     C_2   0.473073 0.477482 0.257001 -0.262481
C103  C     C_2   0.026932 0.022514 0.743007 -0.262920
C104  C     C_2   0.973074 0.977480 0.257002 -0.262338
C105  C     C_2   0.500300 0.501725 0.685632 0.330230
C106  C     C_2   0.498802 0.503048 0.313404 0.330659
C107  C     C_2   0.001245 0.996907 0.686645 0.329904
C108  C     C_2   0.998801 0.003048 0.313403 0.330663
C109  C     C_R   0.227812 0.485276 0.177864 -0.182033
C110  C     C_R   0.772234 0.484416 0.822246 -0.181877
C111  C     C_R   0.727808 0.985254 0.177802 -0.181856
C112  C     C_R   0.272232 0.984041 0.821996 -0.182074
C113  C     C_R   0.206623 0.499895 0.207869 0.167872
C114  C     C_R   0.793377 0.499752 0.792117 0.167858
C115  C     C_R   0.706622 0.999779 0.207872 0.167875
C116  C     C_R   0.293377 0.999759 0.792114 0.167804
C117  C     C_R   0.228695 0.514550 0.281005 -0.180730
C118  C     C_R   0.771262 0.515082 0.718848 -0.180890
C119  C     C_R   0.728695 0.014324 0.281077 -0.181148
C120  C     C_R   0.271264 0.015472 0.719094 -0.180972
H1    H     H_    0.562068 0.477544 0.866372 0.162380
H2    H     H_    0.438021 0.477352 0.134216 0.162178
H3    H     H_    0.061971 0.022691 0.865790 0.162536
H4    H     H_    0.938022 0.977348 0.134217 0.162147
H5    H     H_    0.959893 0.710877 0.037510 0.141988
H6    H     H_    0.039766 0.712319 0.959524 0.142916
H7    H     H_    0.460346 0.210862 0.038466 0.141712
H8    H     H_    0.539370 0.212332 0.958705 0.141820
H9    H     H_    0.458157 0.712512 0.880684 0.142557
H10   H     H_    0.541355 0.710826 0.120749 0.142409
H11   H     H_    0.961142 0.212541 0.880468 0.140329
H12   H     H_    0.038408 0.210800 0.120995 0.142330
H13   H     H_    0.961116 0.289309 0.880803 0.141841
H14   H     H_    0.038386 0.287588 0.121330 0.142117
H15   H     H_    0.458128 0.789282 0.881028 0.142448
H16   H     H_    0.541332 0.787613 0.121093 0.142213
H17   H     H_    0.466645 0.486366 0.762880 0.171853
H18   H     H_    0.533232 0.487963 0.238005 0.170353
H19   H     H_    0.966774 0.011973 0.761980 0.170058
H20   H     H_    0.033232 0.987965 0.238005 0.170474
H21   H     H_    0.546763 0.454977 0.739958 0.129442
H22   H     H_    0.453820 0.454972 0.261978 0.130874
H23   H     H_    0.046138 0.045069 0.737989 0.131984
H24   H     H_    0.953823 0.954967 0.261982 0.130874
H25   H     H_    0.287563 0.473994 0.197729 0.140368
H26   H     H_    0.712515 0.472561 0.802483 0.140359
H27   H     H_    0.787558 0.974055 0.197610 0.140465
H28   H     H_    0.212512 0.971889 0.802041 0.142140
H29   H     H_    0.210795 0.473917 0.121223 0.142249
H30   H     H_    0.789284 0.472535 0.878991 0.142359
H31   H     H_    0.710789 0.973978 0.121108 0.142416
H32   H     H_    0.289281 0.971861 0.878548 0.142796
H33   H     H_    0.212361 0.525904 0.304381 0.141601
H34   H     H_    0.787561 0.526992 0.695375 0.141543
H35   H     H_    0.712364 0.025604 0.304505 0.141642
H36   H     H_    0.287564 0.027679 0.695814 0.141407
H37   H     H_    0.289161 0.525977 0.380921 0.136806
H38   H     H_    0.710763 0.527014 0.618835 0.136850
H39   H     H_    0.789160 0.025672 0.381039 0.137737
H40   H     H_    0.210766 0.027702 0.619275 0.136742
H41   H     H_    0.460427 0.287629 0.038939 0.140290
H42   H     H_    0.539448 0.289119 0.959172 0.140443
H43   H     H_    0.959974 0.787644 0.037965 0.140443
H44   H     H_    0.039841 0.789107 0.959970 0.144401
O1    O     O_R   0.439010 0.534430 0.439020 -0.617129
O2    O     O_R   0.560990 0.534430 0.560980 -0.617334
O3    O     O_R   0.939010 0.034430 0.439020 -0.608271
O4    O     O_R   0.060990 0.034430 0.560980 -0.621249
O5    O     O_R   0.060990 0.500040 0.112010 -0.616466
O6    O     O_R   0.939010 0.500040 0.887990 -0.616460
O7    O     O_R   0.560990 0.000040 0.112010 -0.616484
O8    O     O_R   0.439010 0.000040 0.887990 -0.616434
O9    O     O_R   0.060980 0.499970 0.009870 -0.615735
O10   O     O_R   0.939020 0.499970 0.990130 -0.615707
O11   O     O_R   0.560980 0.999970 0.009870 -0.615707
O12   O     O_R   0.439020 0.999970 0.990130 -0.615715
O13   O     O_R   0.000010 0.561020 0.051000 -0.615816
O14   O     O_R   0.999990 0.561020 0.949000 -0.616093
O15   O     O_R   0.500010 0.061020 0.051000 -0.615896
O16   O     O_R   0.499990 0.061020 0.949000 -0.616373
O17   O     O_R   0.439010 0.465570 0.438980 -0.612484
O18   O     O_R   0.560990 0.465570 0.561020 -0.612231
O19   O     O_R   0.939010 0.965570 0.438980 -0.621274
O20   O     O_R   0.060990 0.965570 0.561020 -0.608247
O21   O     O_R   0.500010 0.534430 0.590460 -0.597983
O22   O     O_R   0.499990 0.534430 0.409540 -0.600047
O23   O     O_R   0.000010 0.034430 0.590460 -0.639237
O24   O     O_R   0.999990 0.034430 0.409540 -0.599480
O25   O     O_R   0.500010 0.465570 0.590420 -0.639284
O26   O     O_R   0.499990 0.465570 0.409580 -0.638466
O27   O     O_R   0.000010 0.965570 0.590420 -0.599630
O28   O     O_R   0.999990 0.965570 0.409580 -0.638999
O29   O     O_R   0.534430 0.439010 0.034350 -0.621944
O30   O     O_R   0.465570 0.439010 0.965650 -0.622168
O31   O     O_R   0.034430 0.939010 0.034350 -0.615216
O32   O     O_R   0.965570 0.939010 0.965650 -0.619050
O33   O     O_R   0.534420 0.500000 0.943920 -0.618160
O34   O     O_R   0.465580 0.500000 0.056080 -0.617796
O35   O     O_R   0.034420 1.000000 0.943920 -0.617716
O36   O     O_R   0.965580 0.000000 0.056080 -0.617609
O37   O     O_R   0.465560 0.500000 0.875080 -0.630791
O38   O     O_R   0.534440 0.500000 0.124920 -0.630891
O39   O     O_R   0.965560 0.000000 0.875080 -0.630866
O40   O     O_R   0.034440 0.000000 0.124920 -0.630707
O41   O     O_R   0.534430 0.560990 0.034430 -0.612493
O42   O     O_R   0.465570 0.560990 0.965570 -0.612020
O43   O     O_R   0.034430 0.060990 0.034430 -0.619036
O44   O     O_R   0.965570 0.060990 0.965570 -0.615118
O45   O     O_R   0.000000 0.439050 0.051090 -0.615960
O46   O     O_R   0.000000 0.439050 0.948910 -0.615753
O47   O     O_R   0.500000 0.939050 0.051090 -0.615855
O48   O     O_R   0.500000 0.939050 0.948910 -0.615369
Zn1   Zn    Zn3+2 0.500000 0.545980 0.500000 0.978082
Zn2   Zn    Zn3+2 0.000000 0.045980 0.500000 0.964668
Zn3   Zn    Zn3+2 0.500000 0.454020 0.500000 0.952348
Zn4   Zn    Zn3+2 0.000000 0.954020 0.500000 0.964650
Zn5   Zn    Zn3+2 0.545980 0.500000 0.045940 0.960017
Zn6   Zn    Zn3+2 0.454020 0.500000 0.954060 0.960190
Zn7   Zn    Zn3+2 0.045980 0.000000 0.045940 0.959892
Zn8   Zn    Zn3+2 0.954020 1.000000 0.954060 0.959827
Zn9   Zn    Zn3+2 0.000010 0.500050 0.068180 0.967789
Zn10  Zn    Zn3+2 0.999990 0.500050 0.931820 0.967734
Zn11  Zn    Zn3+2 0.500010 0.000050 0.068180 0.967826
Zn12  Zn    Zn3+2 0.499990 0.000050 0.931820 0.967884
O49   O     O_3   0.481861 0.535625 0.695771 -0.585630
C121  C     C_3   0.439126 0.538378 0.636685 0.080452
H45   H     H_    0.423569 0.507320 0.623273 0.109536
H46   H     H_    0.435202 0.551889 0.585862 0.167871
C122  C     C_3   0.417315 0.566972 0.659506 -0.808433
H47   H     H_    0.431542 0.598502 0.672022 0.263006
H48   H     H_    0.383752 0.569580 0.613445 0.203166
H49   H     H_    0.420203 0.554190 0.709829 0.254118
O50   O     O_3   0.516032 0.537625 0.301053 -0.585171
C123  C     C_3   0.558746 0.541570 0.359517 0.081834
H50   H     H_    0.575220 0.510939 0.375130 0.108361
H51   H     H_    0.562475 0.555427 0.409462 0.169006
C124  C     C_3   0.579501 0.570508 0.334088 -0.809709
H52   H     H_    0.564360 0.601651 0.319352 0.262811
H53   H     H_    0.613027 0.574072 0.379632 0.203332
H54   H     H_    0.576775 0.557420 0.284550 0.254202
O51   O     O_3   0.984089 0.962292 0.699066 -0.585540
C125  C     C_3   0.941374 0.958279 0.640651 0.080663
H55   H     H_    0.937644 0.944402 0.590720 0.169758
H56   H     H_    0.924852 0.988885 0.624987 0.107661
C126  C     C_3   0.920687 0.929324 0.666193 -0.805165
H57   H     H_    0.923418 0.942431 0.715724 0.254005
H58   H     H_    0.887161 0.925705 0.620692 0.204759
H59   H     H_    0.935875 0.898204 0.680980 0.263210
O52   O     O_3   0.016026 0.037627 0.301046 -0.585070
C127  C     C_3   0.058740 0.041577 0.359507 0.081935
H60   H     H_    0.075218 0.010948 0.375121 0.108560
H61   H     H_    0.062470 0.055434 0.409453 0.168859
C128  C     C_3   0.079490 0.070517 0.334072 -0.810428
H62   H     H_    0.064347 0.101659 0.319333 0.262591
H63   H     H_    0.113017 0.074085 0.379612 0.203110
H64   H     H_    0.076764 0.057429 0.284533 0.254504

loop_
_geom_bond_atom_site_label_1
_geom_bond_atom_site_label_2
_ccdc_geom_bond_type
C34   O31   A    
O44   Zn8   S    
C14   C110  A    
C74   H4    S    
C40   O44   A    
O46   Zn10  S    
C106  O50   S    
C87   C91   S    
C61   H44   S    
C17   C29   T    
O29   Zn5   S    
C83   C87   A    
C84   C87   A    
C13   H25   S    
C19   C31   T    
C18   C114  S    
O31   Zn7   S    
C17   C113  S    
O30   Zn6   S    
C72   C98   D    
C10   C22   S    
C7    C11   A    
C54   H6    S    
O41   Zn5   S    
O52   C127  S    
C36   O38   A    
O39   Zn8   S    
C29   C47   S    
C60   C63   A    
C64   C68   S    
O38   Zn5   S    
C30   C48   S    
O12   Zn11  S    
C51   C75   S    
O37   Zn6   S    
C122  H49   S    
C85   H12   S    
C20   C32   T    
C128  H62   S    
C86   C88   A    
C86   H11   S    
O20   Zn4   S    
C112  C116  A    
C7    H39   S    
C127  H61   S    
C46   O47   A    
C39   O42   A    
C84   H9    S    
C120  H36   S    
O45   Zn9   S    
C50   O12   A    
O51   C125  S    
C2    O18   A    
O4    Zn2   S    
C9    C13   A    
C66   C76   T    
C39   C93   S    
C13   C109  A    
O7    Zn11  S    
O25   Zn3   S    
O32   Zn8   S    
C19   C115  S    
O6    Zn10  S    
C11   C15   A    
C58   C66   S    
O5    Zn9   S    
C12   C16   A    
O21   Zn1   S    
C73   H3    S    
C102  C106  D    
C62   C64   A    
O11   Zn12  S    
C112  H32   S    
C118  H34   S    
C18   C30   T    
C119  H35   S    
C23   C27   T    
C51   O14   A    
C100  H20   S    
O50   C123  S    
C2    O2    A    
C109  C113  A    
C81   C89   S    
C42   O22   A    
C104  C108  D    
C37   O35   A    
C71   C101  S    
C40   O43   A    
C43   O27   A    
C105  O49   S    
C38   O40   A    
C124  H52   S    
C55   C60   A    
C1    C25   S    
C99   H19   S    
O34   Zn6   S    
O10   Zn9   S    
C77   H13   S    
C31   C49   S    
C80   C83   A    
O33   Zn5   S    
O9    Zn10  S    
O26   Zn3   S    
C97   H17   S    
C47   O5    A    
C125  H55   S    
C48   O10   A    
C44   C108  S    
C55   H7    S    
C101  C105  D    
C124  H53   S    
C5    H37   S    
C63   C67   S    
C125  C126  S    
O40   Zn7   S    
C3    O3    A    
C15   C111  A    
O35   Zn7   S    
C83   H10   S    
C38   C100  S    
C21   C25   T    
C10   C14   A    
C40   C94   S    
C20   C116  S    
C126  H57   S    
C53   C57   A    
C35   O37   A    
C128  H63   S    
C74   C100  D    
C49   O7    A    
C37   C99   S    
C110  H30   S    
C127  H60   S    
C43   C107  S    
O42   Zn6   S    
C116  C120  A    
C115  C119  A    
C111  H31   S    
C67   C69   T    
C123  C124  S    
C5    C117  A    
C89   C95   T    
C61   C64   A    
C109  H29   S    
C52   O16   A    
C5    C9    A    
C122  H47   S    
O8    Zn12  S    
C7    C119  A    
O27   Zn4   S    
C91   C93   T    
C71   C97   D    
C53   C62   A    
C42   O26   A    
C125  H56   S    
C62   H43   S    
C16   C112  A    
C43   O23   A    
C8    C12   A    
O47   Zn11  S    
C104  H24   S    
O49   C121  S    
C37   O39   A    
C41   O21   A    
C2    C26   S    
C88   C92   S    
C82   C90   S    
C4    O20   A    
C42   C106  S    
C32   C50   S    
C114  C118  A    
C53   H5    S    
C44   O24   A    
C48   O6    A    
C78   C85   A    
O1    Zn1   S    
C98   H18   S    
C77   C86   A    
C121  H46   S    
C126  H58   S    
C117  H33   S    
O18   Zn3   S    
O36   Zn8   S    
C113  C117  A    
C59   C63   A    
C126  H59   S    
C123  H50   S    
C8    H40   S    
C110  C114  A    
C49   O11   A    
C35   O33   A    
C74   C104  S    
O48   Zn12  S    
C85   C88   A    
C34   O32   A    
O19   Zn4   S    
C73   C99   D    
C8    C120  A    
C34   C70   S    
C4    C28   S    
C1    O17   A    
C72   H2    S    
C1    O1    A    
C101  H21   S    
C71   H1    S    
C107  O51   S    
C24   C28   T    
C57   C65   S    
O22   Zn1   S    
C52   C76   S    
C103  H23   S    
C47   O9    A    
C6    H38   S    
C79   C82   A    
C50   O8    A    
O24   Zn2   S    
O17   Zn3   S    
C90   C96   T    
C54   C61   A    
C33   C69   S    
C123  H51   S    
C121  C122  S    
C79   H15   S    
C12   C24   S    
O43   Zn7   S    
C45   O46   A    
C80   H16   S    
C56   C59   A    
C41   O25   A    
C108  O52   S    
C16   H28   S    
C103  C107  D    
C128  H64   S    
C3    C27   S    
C52   O15   A    
C122  H48   S    
C59   H42   S    
C51   O13   A    
C60   H41   S    
C33   O30   A    
C15   H27   S    
C78   C81   A    
C9    C21   S    
C92   C94   T    
C79   C84   A    
C72   C102  S    
C127  C128  S    
C46   O48   A    
C39   O41   A    
C11   C23   S    
C80   C82   A    
C56   C58   A    
O16   Zn12  S    
C38   O36   A    
C56   H8    S    
C36   O34   A    
C77   C81   A    
C45   O45   A    
O23   Zn2   S    
C6    C10   A    
O2    Zn1   S    
C33   O29   A    
C78   H14   S    
C124  H54   S    
C4    O4    A    
C73   C103  S    
C46   C96   S    
C41   C105  S    
C111  C115  A    
C121  H45   S    
C22   C26   T    
C55   C58   A    
O15   Zn11  S    
C68   C70   T    
C14   H26   S    
O14   Zn10  S    
C36   C98   S    
C102  H22   S    
O3    Zn2   S    
O13   Zn9   S    
C35   C97   S    
C3    O19   A    
O28   Zn4   S    
C44   O28   A    
C65   C75   T    
C6    C118  A    
C54   C57   A    
C45   C95   S    
