data_mof_unit_8312.cif
_audit_creation_date              2012-12-11T15:58:45-0500
_audit_creation_method            fapswitch 2.2
_symmetry_space_group_name_H-M    P1
_symmetry_Int_Tables_number       1
_space_group_crystal_system       triclinic
_cell_length_a                    8.428562
_cell_length_b                    18.827567
_cell_length_c                    18.934927
_cell_angle_alpha                 98.72401
_cell_angle_beta                  94.332145
_cell_angle_gamma                 91.922955
_cell_volume                      2958.43094747

loop_
_atom_site_label
_atom_site_type_symbol
_atom_type_description
_atom_site_fract_x
_atom_site_fract_y
_atom_site_fract_z
_atom_type_partial_charge
Ba1   Ba    Ba6+2 0.152460 0.535140 0.468980 1.625950
Ba2   Ba    Ba6+2 0.657710 0.464850 0.530960 1.620116
C1    C     C_3   0.487252 0.773514 0.247894 -0.096395
C2    C     C_R   0.096393 0.903633 0.564559 0.031877
C3    C     C_R   0.249919 0.926883 0.594926 -0.076931
C4    C     C_3   0.925640 0.731726 0.328731 0.352981
C5    C     C_R   0.308565 0.996846 0.592869 -0.088113
C6    C     C_R   0.214062 0.045412 0.561283 0.029196
C7    C     C_R   0.060051 0.022797 0.530221 0.014133
C8    C     C_R   0.271296 0.116208 0.561068 -0.114827
C9    C     C_R   0.176236 0.166317 0.531303 -0.027531
C10   C     C_R   0.022002 0.143452 0.498448 0.024088
C11   C     C_R   0.964784 0.071421 0.498236 -0.005645
C12   C     C_3   0.428998 0.715737 0.290589 0.430758
C13   C     C_R   0.230396 0.238725 0.533708 0.008412
C14   C     C_R   0.131321 0.286364 0.503417 -0.299664
C15   C     C_R   0.978623 0.265866 0.471332 0.042656
C16   C     C_3   0.949311 0.807343 0.311055 -0.368360
C17   C     C_R   0.924257 0.192420 0.466452 -0.036419
C18   C     C_R   0.848228 0.928050 0.500023 -0.008044
C19   C     C_R   0.791457 0.855869 0.499397 -0.001817
C20   C     C_R   0.889631 0.806773 0.530857 -0.051858
C21   C     C_R   0.037866 0.833206 0.566472 -0.044846
C22   C     C_R   0.774837 0.166329 0.431853 -0.050316
C23   C     C_3   0.477338 0.699963 0.677757 0.552720
C24   C     C_R   0.716023 0.095992 0.434161 0.033436
C25   C     C_R   0.811163 0.048165 0.467143 0.004308
C26   C     C_R   0.752548 0.976800 0.468468 0.016390
C27   C     C_R   0.561879 0.072882 0.404460 -0.078649
C28   C     C_3   0.791611 0.377213 0.308978 0.381734
C29   C     C_R   0.502929 0.003057 0.406992 -0.092106
C30   C     C_R   0.597827 0.954392 0.438213 0.033241
C31   C     C_R   0.636204 0.833311 0.467724 -0.038543
C32   C     C_R   0.540209 0.883725 0.438954 -0.121036
C33   C     C_R   0.582071 0.760918 0.465556 -0.017495
C34   C     C_3   0.428239 0.771009 0.720490 -0.302416
C35   C     C_R   0.683211 0.712553 0.493291 -0.262436
C36   C     C_R   0.835619 0.733236 0.525605 0.072040
C37   C     C_R   0.610330 0.531716 0.301584 -0.117105
C38   C     C_R   0.466364 0.492781 0.276712 0.052469
C39   C     C_R   0.416942 0.482919 0.203464 -0.127164
C40   C     C_3   0.791640 0.361485 0.227179 0.109052
C41   C     C_R   0.509988 0.510909 0.154443 0.001672
C42   C     C_R   0.656927 0.547562 0.180047 -0.168056
C43   C     C_R   0.707749 0.556821 0.253227 0.041668
C44   C     C_R   0.476590 0.556168 0.036256 -0.069512
C45   C     C_3   0.908026 0.251328 0.701175 0.563544
C46   C     C_R   0.423983 0.547083 0.963548 -0.068399
C47   C     C_R   0.350133 0.481588 0.928834 0.070741
C48   C     C_R   0.327140 0.425901 0.969240 -0.077668
C49   C     C_R   0.379058 0.435188 0.042302 -0.082174
C50   C     C_R   0.455078 0.500436 0.076673 0.065104
C51   C     C_R   0.155168 0.436526 0.821635 -0.152912
C52   C     C_3   0.974000 0.638559 0.707187 0.348254
C53   C     C_R   0.111214 0.428751 0.747586 0.039720
C54   C     C_R   0.355756 0.493931 0.730958 0.092726
C55   C     C_R   0.400286 0.500994 0.804219 -0.186474
C56   C     C_3   0.867793 0.190128 0.744682 -0.055770
C57   C     C_R   0.302700 0.471052 0.850382 -0.023032
C58   C     C_R   0.219654 0.452394 0.702008 -0.057182
C59   C     C_3   0.047489 0.671825 0.783380 0.142469
C60   C     C_3   0.291868 0.317287 0.364700 0.319718
C61   C     C_3   0.287664 0.236478 0.339669 -0.389382
C62   C     C_3   0.466642 0.313564 0.714005 0.331488
C63   C     C_3   0.504392 0.298043 0.790783 -0.105559
C64   C     C_R   0.001616 0.951376 0.531312 0.006092
H1    H     H_    0.747522 0.409283 0.205428 0.043626
H2    H     H_    0.475823 0.775880 0.777951 0.106772
H3    H     H_    0.478030 0.817597 0.697661 0.065208
H4    H     H_    0.294837 0.774025 0.717424 0.099737
H5    H     H_    0.562863 0.815109 0.284695 0.081901
H6    H     H_    0.932578 0.847666 0.359349 0.073610
H7    H     H_    0.737270 0.178447 0.740797 0.103676
H8    H     H_    0.920090 0.139318 0.720836 0.068939
H9    H     H_    0.345950 0.333163 0.710479 -0.016078
H10   H     H_    0.551193 0.357156 0.705387 0.103670
H11   H     H_    0.012384 0.725821 0.374354 0.111462
H12   H     H_    0.850502 0.620199 0.713189 0.058787
H13   H     H_    0.325386 0.890692 0.619816 0.059114
H14   H     H_    0.390442 0.131562 0.584814 0.109788
H15   H     H_    0.111165 0.799418 0.595228 0.113071
H16   H     H_    0.701155 0.200343 0.403510 0.102913
H17   H     H_    0.486133 0.109026 0.379657 0.064642
H18   H     H_    0.383229 0.986903 0.383885 0.070956
H19   H     H_    0.420266 0.868638 0.416135 0.109022
H20   H     H_    0.802647 0.725407 0.344955 -0.068348
H21   H     H_    0.639844 0.658105 0.492876 0.049809
H22   H     H_    0.440360 0.591797 0.934589 0.074479
H23   H     H_    0.171882 0.691032 0.779168 0.128196
H24   H     H_    0.532639 0.607290 0.061025 0.067557
H25   H     H_    0.272276 0.374604 0.943963 0.073245
H26   H     H_    0.072575 0.418101 0.856804 0.079506
H27   H     H_    0.734058 0.566760 0.143110 0.081651
H28   H     H_    0.072001 0.815407 0.294172 0.147926
H29   H     H_    0.860760 0.815987 0.266549 0.127826
H30   H     H_    0.668263 0.386899 0.322874 -0.029014
H31   H     H_    0.871254 0.425558 0.328289 0.034643
H32   H     H_    0.300166 0.620454 0.273712 0.214257
H33   H     H_    0.237051 0.678645 0.219725 0.215524
H34   H     H_    0.169874 0.333595 0.375100 0.013968
H35   H     H_    0.676292 0.294352 0.141933 0.170029
H36   H     H_    0.731542 0.252571 0.211777 0.197981
H37   H     H_    0.951255 0.344790 0.150239 0.166833
H38   H     H_    0.992912 0.301700 0.220616 0.194714
H39   H     H_    0.153601 0.593559 0.651574 0.198944
H40   H     H_    0.980910 0.541920 0.645713 0.190881
H41   H     H_    0.946118 0.586688 0.824899 0.183514
H42   H     H_    0.146114 0.585556 0.820568 0.173252
H43   H     H_    0.951517 0.771254 0.779945 0.188340
H44   H     H_    0.846398 0.716022 0.824261 0.173223
H45   H     H_    0.373826 0.329917 0.414171 0.062047
H46   H     H_    0.536393 0.692783 0.314900 -0.031685
H47   H     H_    0.504556 0.709181 0.151147 0.196038
H48   H     H_    0.669167 0.712550 0.208582 0.192158
H49   H     H_    0.705613 0.716107 0.719948 0.161861
H50   H     H_    0.678231 0.658560 0.641091 0.154835
H51   H     H_    0.447287 0.653489 0.571249 0.174739
H52   H     H_    0.397687 0.737841 0.586943 0.149110
H53   H     H_    0.831364 0.272737 0.600623 0.216428
H54   H     H_    0.737737 0.200137 0.623450 0.203013
H55   H     H_    0.108850 0.285501 0.661285 0.116465
H56   H     H_    0.383449 0.800722 0.225878 0.114333
H57   H     H_    0.132456 0.212271 0.696150 0.151683
H58   H     H_    0.894184 0.258809 0.841612 0.201158
H59   H     H_    0.049877 0.206373 0.824920 0.189389
H60   H     H_    0.358522 0.206536 0.776065 0.207273
H61   H     H_    0.277700 0.281592 0.818048 0.187993
H62   H     H_    0.517197 0.349889 0.827944 0.076400
H63   H     H_    0.618457 0.272094 0.796068 0.153381
H64   H     H_    0.427763 0.013155 0.616545 0.071272
H65   H     H_    0.176231 0.340583 0.502616 0.067669
H66   H     H_    0.508849 0.531820 0.825220 0.088687
H67   H     H_    0.203239 0.222085 0.291268 0.117998
H68   H     H_    0.305549 0.453275 0.184887 0.094594
H69   H     H_    0.362490 0.390703 0.071547 0.069651
H70   H     H_    0.163266 0.376965 0.616668 0.122582
H71   H     H_    0.116938 0.459341 0.600473 0.206967
H72   H     H_    0.697051 0.496170 0.393346 0.192588
H73   H     H_    0.581294 0.569621 0.406033 0.206796
H74   H     H_    0.248786 0.206994 0.382206 0.057414
H75   H     H_    0.408318 0.219632 0.326440 0.122785
N1    N     N_3   0.338823 0.657837 0.242542 -0.503269
N2    N     N_3   0.847879 0.227933 0.626241 -0.517124
N3    N     N_3   0.081070 0.262300 0.705222 -0.513852
N4    N     N_3   0.925813 0.207153 0.820485 -0.495531
N5    N     N_3   0.381208 0.252816 0.814053 -0.505903
N6    N     N_3   0.200235 0.430605 0.626154 -0.447786
N7    N     N_3   0.665036 0.543788 0.375733 -0.477659
N8    N     N_3   0.683817 0.299587 0.197861 -0.493194
N9    N     N_3   0.953770 0.349995 0.206078 -0.477130
N10   N     N_3   0.061578 0.576430 0.680543 -0.541770
N11   N     N_3   0.052085 0.618910 0.832578 -0.480461
N12   N     N_3   0.961004 0.733479 0.814829 -0.477229
N13   N     N_3   0.579633 0.743460 0.189006 -0.504600
N14   N     N_3   0.646247 0.706891 0.669242 -0.524963
N15   N     N_3   0.390421 0.689432 0.607407 -0.419987
O1    O     O_2   0.118870 0.674530 0.547560 -0.438871
O2    O     O_2   0.793509 0.452110 0.747949 -0.495253
O3    O     O_3   0.831740 0.314354 0.730918 -0.614294
O4    O     O_3   0.870460 0.585330 0.542110 -0.497452
O5    O     O_3   0.436130 0.464210 0.414140 -0.505321
O6    O     O_2   0.629420 0.533310 0.672080 -0.474437
O7    O     O_3   0.442396 0.644264 0.718103 -0.652748
O8    O     O_2   0.558599 0.241998 0.529621 -0.499094
O9    O     O_3   0.478644 0.252249 0.662129 -0.629401
O10   O     O_3   0.354280 0.631750 0.418430 -0.487882
O11   O     O_2   0.250098 0.758204 0.471640 -0.496983
O12   O     O_3   0.345800 0.351722 0.310258 -0.619682
O13   O     O_3   0.979233 0.691747 0.661821 -0.648752
O14   O     O_3   0.328989 0.748317 0.341481 -0.616973
O15   O     O_2   0.180880 0.466650 0.327890 -0.447396
O16   O     O_3   0.939000 0.596010 0.380670 -0.462227
O17   O     O_2   0.036674 0.547725 0.252042 -0.479491
O18   O     O_3   0.951202 0.681222 0.268330 -0.610958
O19   O     O_2   0.691430 0.325420 0.452420 -0.466907
O20   O     O_3   0.939830 0.414660 0.457830 -0.500106
O21   O     O_3   0.456020 0.368240 0.581510 -0.457103
O22   O     O_3   0.844971 0.317842 0.338531 -0.652570
O23   O     O_3   0.374170 0.535780 0.585810 -0.460812
O24   O     O_3   0.871300 0.403980 0.619270 -0.489862
P1    P     P_3+3 0.947550 0.663200 0.567530 0.977248
P2    P     P_3+3 0.354660 0.445020 0.336980 0.993331
P3    P     P_3+3 0.908937 0.594796 0.287621 0.962541
P4    P     P_3+3 0.862750 0.336790 0.432410 0.960066
P5    P     P_3+3 0.905956 0.397530 0.710739 0.928982
P6    P     P_3+3 0.381025 0.725088 0.425996 0.918000
P7    P     P_3+3 0.450869 0.553505 0.676242 0.956889
P8    P     P_3+3 0.429214 0.275053 0.576279 0.917681

loop_
_geom_bond_atom_site_label_1
_geom_bond_atom_site_label_2
_ccdc_geom_bond_type
C60   O12   S    
C12   N1    S    
Ba1   O20   S    
C45   N2    S    
C23   N14   S    
H53   N2    S    
C61   H74   S    
C55   H66   S    
C52   O13   S    
H47   N13   S    
C12   O14   S    
Ba2   O6    S    
C51   C57   A    
C56   N4    S    
C5    C6    A    
C45   O3    S    
C34   H3    S    
C12   H46   S    
C28   H31   S    
C56   H8    S    
C24   C25   A    
C62   O9    S    
C36   P1    S    
Ba2   O24   S    
C61   H67   S    
C18   C64   A    
C33   C35   A    
C35   C36   A    
C22   C24   A    
C27   H17   S    
O6    P7    D    
C41   C50   S    
C55   C57   A    
C19   C31   A    
C13   C14   A    
C20   C36   A    
C44   C50   A    
C7    C11   A    
C54   C55   A    
O7    P7    S    
Ba1   Ba2   S    
H38   N9    S    
O5    P2    S    
C14   H65   S    
C40   N8    S    
C22   H16   S    
C7    C64   A    
C5    H64   S    
C28   H30   S    
C42   H27   S    
H33   N1    S    
H37   N9    S    
Ba2   O20   S    
H42   N11   S    
C9    C13   A    
C60   H45   S    
C34   H4    S    
C14   C15   A    
H50   N14   S    
C37   N7    S    
C46   H22   S    
H52   N15   S    
C58   N6    S    
C3    H13   S    
H43   N12   S    
C1    H56   S    
C47   C57   S    
C37   C43   A    
C62   H10   S    
Ba1   O5    S    
C53   C58   A    
H32   N1    S    
C23   N15   S    
C16   H29   S    
C39   C41   A    
H55   N3    S    
H54   N2    S    
O1    P1    D    
H51   N15   S    
H39   N10   S    
Ba2   O5    S    
C39   H68   S    
C59   H23   S    
C48   C49   A    
C38   P2    S    
C51   C53   A    
C16   H6    S    
C4    C16   S    
C44   C46   A    
H73   N7    S    
C61   H75   S    
O9    P8    S    
C49   C50   A    
C63   H62   S    
C26   C30   A    
C8    C9    A    
H72   N7    S    
C37   C38   A    
C3    C5    A    
C2    C21   A    
C8    H14   S    
C6    C7    A    
C4    H11   S    
C18   C26   A    
O11   P6    D    
C45   N3    S    
Ba1   O15   S    
C1    N13   S    
C29   H18   S    
C54   C58   A    
C59   N12   S    
C32   H19   S    
C30   C32   A    
H57   N3    S    
C1    H5    S    
C41   C42   A    
C60   C61   S    
Ba2   O19   S    
O15   P2    D    
C29   C30   A    
C54   P7    S    
C9    C10   A    
O14   P6    S    
C51   H26   S    
C31   C32   A    
C28   O22   S    
Ba2   P4    S    
C10   C11   A    
O21   P8    S    
O13   P1    S    
C1    C12   S    
C60   H34   S    
H41   N11   S    
Ba2   O4    S    
C46   C47   A    
Ba2   O21   S    
O12   P2    S    
C40   H1    S    
C16   H28   S    
Ba2   O23   S    
C15   C17   A    
O2    P5    D    
O4    P1    S    
C42   C43   A    
C43   P3    S    
H58   N4    S    
O20   P4    S    
C38   C39   A    
Ba1   P1    S    
H40   N10   S    
C21   H15   S    
H49   N14   S    
C23   C34   S    
O10   P6    S    
H71   N6    S    
Ba1   O4    S    
C35   H21   S    
C2    C3    A    
O8    P8    D    
C4    H20   S    
O18   P3    S    
C63   H63   S    
Ba1   P2    S    
C34   H2    S    
C52   N10   S    
C44   H24   S    
C52   C59   S    
C4    O18   S    
C13   P8    S    
Ba1   O16   S    
H60   N5    S    
C62   C63   S    
O3    P5    S    
Ba1   O1    S    
C17   C22   A    
C27   C29   A    
H44   N12   S    
H59   N4    S    
C45   C56   S    
C2    C64   A    
Ba1   O23   S    
O16   P3    S    
H36   N8    S    
C49   H69   S    
Ba1   O10   S    
C23   O7    S    
C33   P6    S    
C15   P4    S    
C10   C17   A    
H35   N8    S    
C31   C33   A    
C62   H9    S    
C28   C40   S    
C53   P5    S    
C40   N9    S    
C59   N11   S    
H70   N6    S    
O24   P5    S    
H61   N5    S    
C48   H25   S    
O23   P7    S    
C18   C19   A    
O17   P3    D    
C24   C27   A    
C6    C8    A    
C47   C48   A    
C25   C26   A    
C20   C21   A    
C11   C25   A    
C63   N5    S    
C19   C20   A    
H48   N13   S    
O22   P4    S    
C56   H7    S    
O19   P4    D    
C52   H12   S    
