data_mof_unit_58149.cif
_audit_creation_date              2013-03-05T15:41:55-0500
_audit_creation_method            fapswitch 2.2
_symmetry_space_group_name_H-M    P1
_symmetry_Int_Tables_number       1
_space_group_crystal_system       triclinic
_cell_length_a                    19.43126
_cell_length_b                    7.239564
_cell_length_c                    17.726341
_cell_angle_alpha                 89.992114
_cell_angle_beta                  107.722596
_cell_angle_gamma                 90.004459
_cell_volume                      2375.28856316

loop_
_atom_site_label
_atom_site_type_symbol
_atom_site_description
_atom_site_fract_x
_atom_site_fract_y
_atom_site_fract_z
_atom_type_partial_charge
O1    O     O_R   0.414820 0.494320 0.416790 -0.588221
O2    O     O_R   0.585180 0.994320 0.583210 -0.588518
O3    O     O_R   0.560270 0.819500 0.430140 -0.527934
O4    O     O_R   0.439730 0.319500 0.569860 -0.528140
C1    C     C_R   0.581682 0.655362 0.415272 0.869221
C2    C     C_R   0.418334 0.155346 0.584753 0.868717
O5    O     O_R   0.413840 0.823740 0.407440 -0.551169
O6    O     O_R   0.586160 0.323740 0.592560 -0.551281
O7    O     O_R   0.437710 0.998590 0.560350 -0.517487
O8    O     O_R   0.562290 0.498590 0.439650 -0.517759
C3    C     C_R   0.385061 0.656082 0.388990 0.748169
C4    C     C_R   0.614940 0.156084 0.611008 0.749497
O9    O     O_3   0.508000 0.662290 0.550200 -0.270881
O10   O     O_3   0.492000 0.162290 0.449800 -0.270786
V1    V     V_3+5 0.498520 0.935380 0.490690 1.237961
V2    V     V_3+5 0.501480 0.435380 0.509310 1.237732
C5    C     C_2   0.777267 0.259661 0.795686 -0.100786
C6    C     C_2   0.222781 0.759591 0.204233 -0.100823
C7    C     C_2   0.813210 0.103090 0.826480 0.226308
C8    C     C_2   0.186794 0.603077 0.173489 0.226615
H1    H     H_    0.800035 0.393373 0.817566 0.123029
H2    H     H_    0.200053 0.893257 0.182295 0.122793
C9    C     C_2   0.704849 0.258403 0.734197 0.003228
C10   C     C_2   0.295181 0.758333 0.265771 0.003317
C11   C     C_2   0.689387 0.150077 0.668977 0.352490
C12   C     C_2   0.310605 0.650046 0.331010 0.353130
H3    H     H_    0.663848 0.350215 0.743257 0.028720
H4    H     H_    0.336171 0.850292 0.256778 0.028856
C13   C     C_R   0.313195 0.012164 0.619198 0.269151
C14   C     C_R   0.686916 0.512351 0.380987 0.268905
C15   C     C_R   0.368886 0.146381 0.634508 -0.233700
C16   C     C_R   0.631154 0.646396 0.365553 -0.233259
C17   C     C_R   0.377879 0.271482 0.698242 0.387423
C18   C     C_R   0.622101 0.771289 0.301730 0.387081
C19   C     C_R   0.329354 0.268988 0.743562 -0.060988
C20   C     C_R   0.670628 0.768791 0.256418 -0.060967
C21   C     C_R   0.273458 0.136441 0.727465 -0.068524
C22   C     C_R   0.726553 0.636325 0.272570 -0.068365
C23   C     C_R   0.265649 0.006708 0.665736 -0.014161
C24   C     C_R   0.734419 0.506755 0.334391 -0.014213
C25   C     C_R   0.336397 0.395912 0.805565 -0.099095
C26   C     C_R   0.663567 0.895662 0.194380 -0.099251
C27   C     C_R   0.288686 0.393881 0.851095 0.394065
C28   C     C_R   0.711293 0.893683 0.148870 0.394122
C29   C     C_R   0.232875 0.261683 0.835524 -0.007082
C30   C     C_R   0.767111 0.761517 0.164465 -0.007111
C31   C     C_R   0.225160 0.133222 0.773409 0.012495
C32   C     C_R   0.774841 0.633093 0.226612 0.012476
C33   C     C_R   0.169428 0.000120 0.757632 0.056434
C34   C     C_R   0.830594 0.500058 0.242424 0.056435
C35   C     C_R   0.161952 0.872901 0.696272 -0.123292
C36   C     C_R   0.838110 0.372955 0.303850 -0.123219
C37   C     C_R   0.209170 0.876353 0.650743 -0.037844
C38   C     C_R   0.790928 0.376492 0.349425 -0.037889
C39   C     C_R   0.184664 0.255138 0.880852 -0.095055
C40   C     C_R   0.815323 0.755002 0.119139 -0.095028
C41   C     C_R   0.129766 0.121351 0.865747 -0.124725
C42   C     C_R   0.870235 0.621267 0.134266 -0.124770
C43   C     C_R   0.122510 0.994382 0.804060 -0.129568
C44   C     C_R   0.877504 0.494318 0.195982 -0.129554
H5    H     H_    0.379389 0.497410 0.819688 0.130322
H6    H     H_    0.620565 0.997123 0.180231 0.130338
H7    H     H_    0.190329 0.352088 0.928941 0.132581
H8    H     H_    0.809648 0.851938 0.071033 0.132659
H9    H     H_    0.080067 0.891238 0.792012 0.095623
H10   H     H_    0.919961 0.391220 0.208052 0.095631
H11   H     H_    0.119470 0.769931 0.683479 0.081885
H12   H     H_    0.880612 0.270045 0.316676 0.081923
H13   H     H_    0.200688 0.776219 0.603500 0.137052
H14   H     H_    0.799459 0.276483 0.396730 0.137301
O11   O     O_R   0.937810 0.773680 0.060480 -0.556284
O12   O     O_R   0.062190 0.273680 0.939520 -0.556352
O13   O     O_R   0.086190 0.439740 0.092580 -0.508850
O14   O     O_R   0.913810 0.939740 0.907420 -0.508683
C45   C     C_R   0.113992 0.606899 0.112968 0.743938
C46   C     C_R   0.886011 0.106901 0.887017 0.744180
O15   O     O_R   0.939760 0.444210 0.069890 -0.564073
O16   O     O_R   0.060240 0.944210 0.930110 -0.564130
O17   O     O_R   0.914790 0.269640 0.916760 -0.572823
O18   O     O_R   0.085210 0.769640 0.083240 -0.572833
C47   C     C_R   0.919285 0.612591 0.084862 0.825380
C48   C     C_R   0.080718 0.112614 0.915146 0.825268
O19   O     O_3   0.992050 0.601530 0.949880 -0.275653
O20   O     O_3   0.007950 0.101530 0.050120 -0.275667
V3    V     V_3+5 0.001480 0.328340 0.009300 1.184818
V4    V     V_3+5 0.998520 0.828340 0.990700 1.184821
N1    N     N_R   0.778069 0.925993 0.806912 0.095029
O21   O     O_R   0.812064 0.787248 0.787876 -0.353051
O22   O     O_R   0.714097 0.899383 0.814087 -0.394609
N2    N     N_R   0.221876 0.425962 0.193134 0.095922
O23   O     O_R   0.187885 0.287548 0.212380 -0.351754
O24   O     O_R   0.285821 0.399121 0.185942 -0.394157
O25   O     O_3   0.747656 0.062034 0.653006 -0.631437
C49   C     C_3   0.727657 0.907900 0.602559 0.320362
H15   H     H_    0.697024 0.950440 0.541384 0.073184
H16   H     H_    0.697600 0.804641 0.626819 0.080289
H17   H     H_    0.777602 0.838882 0.599178 0.087810
O26   O     O_3   0.252311 0.561446 0.346749 -0.631222
C50   C     C_3   0.272377 0.409763 0.398579 0.318775
H18   H     H_    0.303099 0.454890 0.459335 0.074387
H19   H     H_    0.302363 0.304776 0.375150 0.080480
H20   H     H_    0.222459 0.341922 0.402676 0.086745
N3    N     N_R   0.303760 0.884127 0.555105 0.082720
O27   O     O_R   0.318401 0.710064 0.569881 -0.372108
O28   O     O_R   0.283734 0.942618 0.482247 -0.396828
N4    N     N_R   0.696553 0.384949 0.445363 0.083071
O29   O     O_R   0.682160 0.210635 0.431000 -0.371330
O30   O     O_R   0.716414 0.444322 0.518084 -0.396815
O31   O     O_3   0.432899 0.401120 0.714740 -0.610226
C51   C     C_3   0.495844 0.320744 0.766410 0.212138
H21   H     H_    0.487285 0.276373 0.823019 0.025815
H22   H     H_    0.539443 0.425868 0.780926 0.086653
H23   H     H_    0.514836 0.202064 0.738150 -0.004797
O32   O     O_3   0.567031 0.900782 0.285156 -0.610596
C52   C     C_3   0.504126 0.820189 0.233508 0.211750
H24   H     H_    0.512718 0.775757 0.176928 0.025981
H25   H     H_    0.460486 0.925194 0.218929 0.086675
H26   H     H_    0.485172 0.701507 0.261818 -0.004605
O33   O     O_3   0.300446 0.512778 0.914805 -0.635955
C53   C     C_3   0.268730 0.684377 0.886793 0.166775
H27   H     H_    0.276653 0.779134 0.937909 0.086327
H28   H     H_    0.209506 0.669707 0.858026 0.029249
H29   H     H_    0.294723 0.748906 0.845335 0.038800
O34   O     O_3   0.699560 0.012651 0.085175 -0.635916
C54   C     C_3   0.731275 0.184231 0.113216 0.166874
H30   H     H_    0.723384 0.279041 0.062113 0.086360
H31   H     H_    0.790494 0.169553 0.142020 0.029231
H32   H     H_    0.705257 0.248710 0.154655 0.038709

loop_
_geom_bond_atom_site_label_1
_geom_bond_atom_site_label_2
_geom_bond_distance
_ccdc_geom_bond_type
C22   C24   1.414895 A    
N1    O21   1.301938 A    
C11   O25   1.401339 S    
O25   C49   1.408714 S    
C25   C27   1.402354 A    
C20   C26   1.407014 A    
O1    C3    1.332343 A    
C46   O17   1.341386 A    
C25   H5    1.083099 S    
C37   H13   1.081721 S    
C2    O7    1.309994 A    
O12   V3    1.991689 S    
C31   C33   1.412464 A    
O5    C3    1.334759 A    
C5    C9    1.494819 S    
O14   C46   1.329722 A    
C6    C10   1.494948 S    
C7    C46   1.493062 S    
C19   C21   1.411788 A    
C10   C12   1.352987 D    
C7    N1    1.444350 S    
C41   C43   1.402474 A    
N4    O29   1.300871 A    
C42   C44   1.402536 A    
C52   H24   1.113253 S    
C41   C48   1.478910 S    
C13   N3    1.434242 S    
C51   H21   1.113242 S    
O18   V4    2.006646 S    
C5    C7    1.355889 D    
C53   H28   1.112824 S    
C33   C35   1.398745 A    
C39   H7    1.083713 S    
C54   H32   1.113239 S    
C34   C36   1.398779 A    
C40   H8    1.083711 S    
C9    H3    1.086432 S    
C21   C31   1.417703 A    
C45   O18   1.341302 A    
C26   H6    1.083103 S    
C22   C32   1.417755 A    
C36   H12   1.083755 S    
C53   H29   1.113229 S    
C1    C16   1.490267 S    
O16   V4    2.019740 S    
O5    V1    2.015001 S    
C2    C15   1.490390 S    
C44   H10   1.084469 S    
O6    V2    2.014941 S    
C14   N4    1.434453 S    
O13   C45   1.329699 A    
C26   C28   1.402322 A    
C36   C38   1.394565 A    
O32   C52   1.411170 S    
C29   C31   1.414034 A    
C30   C32   1.414060 A    
O20   V3    1.783225 S    
O4    C2    1.312058 A    
C42   C47   1.479005 S    
C28   C30   1.409204 A    
C49   H17   1.109326 S    
C52   H25   1.109221 S    
C8    N2    1.444151 S    
C28   O34   1.382631 S    
C5    H1    1.085714 S    
C8    C45   1.492948 S    
C35   C37   1.394483 A    
C16   C18   1.416684 A    
O4    V2    2.019704 S    
O11   V4    1.991585 S    
O16   C48   1.333856 A    
N2    O24   1.301677 A    
C50   H18   1.109786 S    
C38   H14   1.081694 S    
O15   C47   1.333849 A    
O6    C4    1.334738 A    
C52   H26   1.112680 S    
C13   C23   1.414108 A    
C15   C17   1.416767 A    
O19   V4    1.783390 S    
C14   C24   1.414255 A    
N3    O28   1.301005 A    
O1    V2    2.006471 S    
C35   H11   1.083756 S    
O14   V4    2.014848 S    
C49   H16   1.112496 S    
O2    V1    2.006512 S    
C27   C29   1.409219 A    
C51   H23   1.112689 S    
O13   V3    2.014908 S    
C12   O26   1.401628 S    
C50   H19   1.112266 S    
C24   C38   1.409964 A    
C39   C41   1.404902 A    
C54   H30   1.109276 S    
C17   O31   1.385244 S    
O17   V3    2.006686 S    
O3    V1    2.019905 S    
C53   H27   1.109285 S    
O2    C4    1.332387 A    
C6    H2    1.085397 S    
C10   H4    1.086367 S    
O3    C1    1.312073 A    
C33   C43   1.402482 A    
O33   C53   1.408298 S    
C18   O32   1.385252 S    
C3    C12   1.498681 S    
C4    C11   1.498486 S    
C34   C44   1.402577 A    
C20   C22   1.411801 A    
O7    V1    2.004733 S    
C1    O8    1.309887 A    
C13   C15   1.417722 A    
O8    V2    2.004613 S    
O31   C51   1.411173 S    
C43   H9    1.084470 S    
C14   C16   1.417808 A    
N2    O23   1.301437 A    
C23   C37   1.409959 A    
N4    O30   1.301022 A    
C32   C34   1.412451 A    
C17   C19   1.412774 A    
C18   C20   1.412711 A    
C40   C42   1.404879 A    
C6    C8    1.355696 D    
C9    C11   1.352994 D    
C49   H15   1.109975 S    
C19   C25   1.407025 A    
C51   H22   1.109215 S    
O15   V3    2.019942 S    
C50   H20   1.109120 S    
C29   C39   1.408441 A    
C21   C23   1.414793 A    
O26   C50   1.408436 S    
O9    V2    1.784482 S    
C30   C40   1.408441 A    
N3    O27   1.300803 A    
C54   H31   1.112832 S    
N1    O22   1.301817 A    
O10   V1    1.784317 S    
O12   C48   1.330743 A    
C27   O33   1.382633 S    
O34   C54   1.408328 S    
O11   C47   1.330772 A    
