data_mof_unit_61965.cif
_audit_creation_date              2012-12-10T18:11:19-0500
_audit_creation_method            fapswitch 2.2
_symmetry_space_group_name_H-M    P1
_symmetry_Int_Tables_number       1
_space_group_crystal_system       orthorhombic
_cell_length_a                    18.35768
_cell_length_b                    18.357679
_cell_length_c                    34.518045
_cell_angle_alpha                 90.0
_cell_angle_beta                  90.0
_cell_angle_gamma                 90.0
_cell_volume                      11632.7329279

loop_
_atom_site_label
_atom_site_type_symbol
_atom_type_description
_atom_site_fract_x
_atom_site_fract_y
_atom_site_fract_z
_atom_type_partial_charge
C1    C     C_R   0.456047 0.050548 0.041697 0.461936
C2    C     C_R   0.043953 0.550548 0.458303 0.461938
C3    C     C_R   0.696238 0.803762 0.750000 -0.525607
C4    C     C_R   0.803765 0.303765 0.250000 -0.523198
C5    C     C_R   0.196238 0.696238 0.750000 -0.525607
C6    C     C_R   0.696235 0.803765 0.250000 -0.523197
C7    C     C_R   0.303762 0.196238 0.750000 -0.525608
C8    C     C_R   0.196235 0.303765 0.750000 -0.523197
C9    C     C_R   0.803762 0.696238 0.250000 -0.525607
C10   C     C_R   0.303765 0.803765 0.750000 -0.523196
C11   C     C_R   0.696238 0.196238 0.250000 -0.525607
C12   C     C_R   0.803765 0.696235 0.750000 -0.523196
C13   C     C_R   0.449451 0.956047 0.541697 0.461936
C14   C     C_R   0.196238 0.303762 0.250000 -0.525607
C15   C     C_R   0.696235 0.196235 0.750000 -0.523197
C16   C     C_R   0.303762 0.803762 0.250000 -0.525606
C17   C     C_R   0.500000 1.000000 0.102539 -0.424244
C18   C     C_R   0.500000 1.000000 0.897461 -0.424245
C19   C     C_R   0.000000 0.500000 0.102539 -0.424245
C20   C     C_R   0.000000 0.500000 0.897461 -0.424245
C21   C     C_R   1.000000 0.500000 0.602539 -0.424245
C22   C     C_R   0.000000 0.500000 0.397461 -0.424245
C23   C     C_R   0.500000 1.000000 0.602539 -0.424245
C24   C     C_R   0.449451 0.043953 0.458303 0.461936
C25   C     C_R   0.500000 0.000000 0.397461 -0.424245
C26   C     C_R   0.043953 0.449451 0.541697 0.461936
C27   C     C_R   0.956047 0.449451 0.458303 0.461935
C28   C     C_R   0.550548 0.043953 0.541697 0.461937
C29   C     C_R   0.550549 0.956047 0.458303 0.461937
C30   C     C_R   0.458116 0.052168 0.082067 0.415757
C31   C     C_R   0.541884 0.052167 0.917933 0.415756
C32   C     C_R   0.947832 0.458116 0.082067 0.415757
C33   C     C_R   0.543953 0.050548 0.958303 0.461939
C34   C     C_R   0.947832 0.541884 0.917933 0.415757
C35   C     C_R   0.541884 0.947832 0.082067 0.415755
C36   C     C_R   0.458116 0.947832 0.917933 0.415756
C37   C     C_R   0.052168 0.541884 0.082067 0.415757
C38   C     C_R   0.052168 0.458116 0.917933 0.415756
C39   C     C_R   0.958116 0.552167 0.582067 0.415756
C40   C     C_R   0.041884 0.552167 0.417933 0.415756
C41   C     C_R   0.447832 0.958116 0.582067 0.415756
C42   C     C_R   0.447832 0.041884 0.417933 0.415756
C43   C     C_R   0.041884 0.447832 0.582067 0.415756
C44   C     C_R   0.949452 0.456047 0.041697 0.461937
C45   C     C_R   0.958116 0.447832 0.417933 0.415757
C46   C     C_R   0.552167 0.041884 0.582067 0.415756
C47   C     C_R   0.552168 0.958116 0.417933 0.415756
C48   C     C_R   0.500000 0.999999 0.021299 -0.356233
C49   C     C_R   0.500000 0.999999 0.978701 -0.356232
C50   C     C_R   0.000000 0.500000 0.021299 -0.356233
C51   C     C_R   0.000000 0.500000 0.978701 -0.356232
C52   C     C_R   1.000000 0.500000 0.521299 -0.356233
C53   C     C_R   1.000000 0.500000 0.478701 -0.356233
C54   C     C_R   0.500000 0.000000 0.521299 -0.356233
C55   C     C_R   0.949452 0.543953 0.958303 0.461936
C56   C     C_R   0.500000 1.000000 0.478701 -0.356232
C57   C     C_R   0.500000 0.000000 0.355089 0.804578
C58   C     C_R   0.500000 1.000000 0.644911 0.804578
C59   C     C_R   0.000000 0.500000 0.355089 0.804579
C60   C     C_R   1.000000 0.500000 0.644911 0.804578
C61   C     C_R   0.000000 0.500000 0.855089 0.804579
C62   C     C_R   0.000000 0.500000 0.144911 0.804578
C63   C     C_R   0.500000 1.000000 0.855089 0.804579
C64   C     C_R   0.500000 1.000000 0.144911 0.804578
C65   C     C_R   0.359882 0.140118 0.250000 0.970779
C66   C     C_R   0.543952 0.949451 0.041697 0.461936
C67   C     C_R   0.640119 0.859881 0.750000 0.972996
C68   C     C_R   0.859882 0.359882 0.250000 0.970779
C69   C     C_R   0.140119 0.640119 0.750000 0.972996
C70   C     C_R   0.640118 0.859882 0.250000 0.970779
C71   C     C_R   0.359881 0.140119 0.750000 0.972996
C72   C     C_R   0.140118 0.640118 0.250000 0.970779
C73   C     C_R   0.859881 0.359881 0.750000 0.972996
C74   C     C_R   0.359882 0.859882 0.750000 0.970780
C75   C     C_R   0.640119 0.140119 0.250000 0.972995
C76   C     C_R   0.859882 0.640118 0.750000 0.970780
C77   C     C_R   0.456047 0.949451 0.958303 0.461934
C78   C     C_R   0.140119 0.359881 0.250000 0.972996
C79   C     C_R   0.640118 0.140118 0.750000 0.970779
C80   C     C_R   0.359881 0.859881 0.250000 0.972996
C81   C     C_R   0.140118 0.359882 0.750000 0.970780
C82   C     C_R   0.859881 0.640119 0.250000 0.972996
C83   C     C_R   0.233051 0.820369 0.237208 0.540053
C84   C     C_R   0.766944 0.179627 0.762794 0.543481
C85   C     C_R   0.179630 0.233051 0.237208 0.540054
C86   C     C_R   0.820373 0.766944 0.762794 0.543480
C87   C     C_R   0.766949 0.179631 0.237208 0.540054
C88   C     C_R   0.050549 0.543953 0.041697 0.461935
C89   C     C_R   0.233056 0.820373 0.762794 0.543480
C90   C     C_R   0.820369 0.766949 0.237208 0.540054
C91   C     C_R   0.179627 0.233056 0.762794 0.543481
C92   C     C_R   0.233051 0.179630 0.762792 0.540055
C93   C     C_R   0.766944 0.820373 0.237206 0.543481
C94   C     C_R   0.179630 0.766949 0.762792 0.540055
C95   C     C_R   0.820373 0.233056 0.237206 0.543481
C96   C     C_R   0.766949 0.820369 0.762792 0.540055
C97   C     C_R   0.233056 0.179627 0.237206 0.543481
C98   C     C_R   0.820369 0.233051 0.762792 0.540054
C99   C     C_R   0.050549 0.456047 0.958303 0.461937
C100  C     C_R   0.179627 0.766944 0.237206 0.543482
C101  C     C_R   0.733051 0.320369 0.737208 0.540054
C102  C     C_R   0.266944 0.679627 0.262794 0.543481
C103  C     C_R   0.679630 0.733051 0.737208 0.540055
C104  C     C_R   0.320373 0.266944 0.262794 0.543481
C105  C     C_R   0.266949 0.679630 0.737208 0.540055
C106  C     C_R   0.733056 0.320373 0.262794 0.543482
C107  C     C_R   0.320369 0.266949 0.737208 0.540055
C108  C     C_R   0.679627 0.733056 0.262794 0.543481
C109  C     C_R   0.733051 0.679630 0.262792 0.540054
C110  C     C_R   0.956047 0.550548 0.541697 0.461936
C111  C     C_R   0.266944 0.320373 0.737206 0.543481
C112  C     C_R   0.679631 0.266949 0.262792 0.540054
C113  C     C_R   0.320373 0.733056 0.737206 0.543480
C114  C     C_R   0.266949 0.320369 0.262792 0.540054
C115  C     C_R   0.733056 0.679627 0.737206 0.543480
C116  C     C_R   0.320369 0.733051 0.262792 0.540053
C117  C     C_R   0.679627 0.266944 0.737206 0.543481
C118  C     C_R   0.196235 0.696235 0.250000 -0.523198
C119  C     C_R   0.803762 0.303762 0.750000 -0.525607
C120  C     C_R   0.303765 0.196235 0.250000 -0.523197
F1    F     F_    0.214942 0.888697 0.225561 -0.511082
F2    F     F_    0.785050 0.888699 0.225556 -0.509847
F3    F     F_    0.111303 0.785058 0.774439 -0.511082
F4    F     F_    0.888699 0.214950 0.225555 -0.509847
F5    F     F_    0.785058 0.888697 0.774439 -0.511082
F6    F     F_    0.214950 0.111301 0.225556 -0.509847
F7    F     F_    0.888697 0.214942 0.774439 -0.511082
F8    F     F_    0.111301 0.785050 0.225556 -0.509847
F9    F     F_    0.714942 0.388697 0.725561 -0.511082
F10   F     F_    0.285050 0.611301 0.274444 -0.509847
F11   F     F_    0.611303 0.714942 0.725561 -0.511082
F12   F     F_    0.785050 0.111301 0.774444 -0.509847
F13   F     F_    0.388699 0.285050 0.274444 -0.509847
F14   F     F_    0.285058 0.611303 0.725561 -0.511082
F15   F     F_    0.714950 0.388699 0.274445 -0.509847
F16   F     F_    0.388697 0.285058 0.725561 -0.511082
F17   F     F_    0.611301 0.714950 0.274444 -0.509847
F18   F     F_    0.714942 0.611303 0.274439 -0.511082
F19   F     F_    0.285050 0.388699 0.725556 -0.509847
F20   F     F_    0.611303 0.285058 0.274439 -0.511082
F21   F     F_    0.388699 0.714950 0.725556 -0.509847
F22   F     F_    0.285058 0.388697 0.274439 -0.511082
F23   F     F_    0.111303 0.214942 0.225561 -0.511082
F24   F     F_    0.714950 0.611301 0.725556 -0.509847
F25   F     F_    0.388697 0.714942 0.274439 -0.511082
F26   F     F_    0.611301 0.285050 0.725556 -0.509847
F27   F     F_    0.888699 0.785050 0.774444 -0.509847
F28   F     F_    0.785058 0.111303 0.225560 -0.511082
F29   F     F_    0.214950 0.888699 0.774444 -0.509847
F30   F     F_    0.888697 0.785058 0.225561 -0.511082
F31   F     F_    0.111301 0.214950 0.774444 -0.509847
F32   F     F_    0.214942 0.111303 0.774439 -0.511082
H1    H     H_    0.409550 0.091838 0.995332 0.355904
H2    H     H_    0.090449 0.591838 0.504668 0.355904
H3    H     H_    0.408161 0.909551 0.495332 0.355903
H4    H     H_    0.408161 0.090449 0.504668 0.355904
H5    H     H_    0.090449 0.408161 0.495332 0.355903
H6    H     H_    0.909551 0.408161 0.504668 0.355904
H7    H     H_    0.591838 0.090450 0.495332 0.355903
H8    H     H_    0.591839 0.909550 0.504668 0.355903
H9    H     H_    0.439200 0.116004 0.126215 0.334062
H10   H     H_    0.560800 0.116003 0.873785 0.334062
H11   H     H_    0.883997 0.439200 0.126215 0.334062
H12   H     H_    0.590450 0.091837 0.004668 0.355903
H13   H     H_    0.883997 0.560800 0.873785 0.334062
H14   H     H_    0.560800 0.883996 0.126215 0.334062
H15   H     H_    0.439200 0.883997 0.873785 0.334062
H16   H     H_    0.116003 0.560800 0.126215 0.334061
H17   H     H_    0.116003 0.439200 0.873785 0.334062
H18   H     H_    0.939200 0.616003 0.626215 0.334061
H19   H     H_    0.060800 0.616003 0.373785 0.334062
H20   H     H_    0.383997 0.939200 0.626215 0.334062
H21   H     H_    0.383996 0.060800 0.373785 0.334062
H22   H     H_    0.060800 0.383997 0.626215 0.334062
H23   H     H_    0.908162 0.409551 0.995332 0.355904
H24   H     H_    0.939200 0.383997 0.373785 0.334061
H25   H     H_    0.616003 0.060800 0.626215 0.334062
H26   H     H_    0.616003 0.939200 0.373785 0.334062
H27   H     H_    0.908162 0.590450 0.004668 0.355903
H28   H     H_    0.590448 0.908159 0.995332 0.355904
H29   H     H_    0.409550 0.908161 0.004667 0.355903
H30   H     H_    0.091839 0.590449 0.995332 0.355904
H31   H     H_    0.091839 0.409551 0.004668 0.355903
H32   H     H_    0.909550 0.591838 0.495332 0.355904
O1    O     O_3   0.500000 0.000000 0.250000 -0.586757
O2    O     O_R   0.500000 0.939280 0.663170 -0.611893
O3    O     O_R   0.939280 0.500000 0.336830 -0.611893
O4    O     O_R   0.060720 0.500000 0.663170 -0.611893
O5    O     O_R   0.000000 0.439280 0.836830 -0.611893
O6    O     O_R   0.000000 0.560720 0.163170 -0.611893
O7    O     O_R   0.560720 0.000000 0.836830 -0.611893
O8    O     O_R   0.439280 0.000000 0.163170 -0.611893
O9    O     O_R   1.000000 0.560720 0.836830 -0.611893
O10   O     O_R   0.000000 0.439280 0.163170 -0.611893
O11   O     O_R   0.439280 0.000000 0.836830 -0.611892
O12   O     O_3   0.500000 0.000000 0.750000 -0.586757
O13   O     O_R   0.560720 0.000000 0.163170 -0.611893
O14   O     O_R   0.414510 0.146140 0.272820 -0.575408
O15   O     O_R   0.585490 0.853860 0.727180 -0.575570
O16   O     O_R   0.853860 0.414510 0.272820 -0.575408
O17   O     O_R   0.146140 0.585490 0.727180 -0.575569
O18   O     O_R   0.585490 0.853860 0.272820 -0.575408
O19   O     O_R   0.414510 0.146140 0.727180 -0.575570
O20   O     O_R   0.146140 0.585490 0.272820 -0.575409
O21   O     O_R   0.853860 0.414510 0.727180 -0.575570
O22   O     O_R   0.414510 0.853860 0.727180 -0.575408
O23   O     O_3   0.000000 0.500000 0.250000 -0.586757
O24   O     O_R   0.585490 0.146140 0.272820 -0.575569
O25   O     O_R   0.853860 0.585490 0.727180 -0.575408
O26   O     O_R   0.146140 0.414510 0.272820 -0.575569
O27   O     O_R   0.585490 0.146140 0.727180 -0.575408
O28   O     O_R   0.414510 0.853860 0.272820 -0.575569
O29   O     O_R   0.146140 0.414510 0.727180 -0.575408
O30   O     O_R   0.853860 0.585490 0.272820 -0.575569
O31   O     O_R   0.914510 0.646140 0.772820 -0.575408
O32   O     O_R   0.085490 0.353860 0.227180 -0.575569
O33   O     O_R   0.353860 0.914510 0.772820 -0.575408
O34   O     O_3   0.000000 0.500000 0.750000 -0.586757
O35   O     O_R   0.646140 0.085490 0.227180 -0.575569
O36   O     O_R   0.085490 0.353860 0.772820 -0.575408
O37   O     O_R   0.914510 0.646140 0.227180 -0.575570
O38   O     O_R   0.646140 0.085490 0.772820 -0.575408
O39   O     O_R   0.353860 0.914510 0.227180 -0.575570
O40   O     O_R   0.914510 0.353860 0.227180 -0.575408
O41   O     O_R   0.085490 0.646140 0.772820 -0.575570
O42   O     O_R   0.353860 0.085490 0.227180 -0.575408
O43   O     O_R   0.646140 0.914510 0.772820 -0.575569
O44   O     O_R   0.085490 0.646140 0.227180 -0.575408
O45   O     O_R   0.500000 0.939280 0.336830 -0.611893
O46   O     O_R   0.914510 0.353860 0.772820 -0.575569
O47   O     O_R   0.646140 0.914510 0.227180 -0.575408
O48   O     O_R   0.353860 0.085490 0.772820 -0.575569
O49   O     O_3   0.411618 0.101039 0.023509 -0.629206
O50   O     O_3   0.588382 0.101038 0.976491 -0.629205
O51   O     O_3   0.898961 0.411618 0.023509 -0.629206
O52   O     O_3   0.898961 0.588382 0.976491 -0.629206
O53   O     O_3   0.588381 0.898960 0.023509 -0.629206
O54   O     O_3   0.411617 0.898961 0.976491 -0.629206
O55   O     O_3   0.101039 0.588382 0.023509 -0.629206
O56   O     O_R   0.500000 0.060720 0.663170 -0.611893
O57   O     O_3   0.101039 0.411618 0.976491 -0.629206
O58   O     O_3   0.911618 0.601039 0.523509 -0.629206
O59   O     O_3   0.088382 0.601039 0.476491 -0.629206
O60   O     O_3   0.398961 0.911618 0.523509 -0.629206
O61   O     O_3   0.398961 0.088382 0.476491 -0.629207
O62   O     O_3   0.088382 0.398961 0.523509 -0.629205
O63   O     O_3   0.911618 0.398961 0.476491 -0.629206
O64   O     O_3   0.601039 0.088382 0.523509 -0.629206
O65   O     O_3   0.601039 0.911618 0.476491 -0.629206
O66   O     O_3   0.418397 0.106263 0.100300 -0.630288
O67   O     O_R   0.060720 0.500000 0.336830 -0.611893
O68   O     O_3   0.581604 0.106262 0.899700 -0.630288
O69   O     O_3   0.893737 0.418396 0.100300 -0.630288
O70   O     O_3   0.893737 0.581604 0.899700 -0.630288
O71   O     O_3   0.581603 0.893736 0.100300 -0.630288
O72   O     O_3   0.418396 0.893737 0.899700 -0.630287
O73   O     O_3   0.106263 0.581604 0.100300 -0.630287
O74   O     O_3   0.106263 0.418396 0.899700 -0.630288
O75   O     O_3   0.918396 0.606263 0.600300 -0.630287
O76   O     O_3   0.081604 0.606263 0.399700 -0.630288
O77   O     O_3   0.393737 0.918396 0.600300 -0.630288
O78   O     O_R   0.939280 0.500000 0.663170 -0.611893
O79   O     O_3   0.393737 0.081603 0.399700 -0.630289
O80   O     O_3   0.081604 0.393737 0.600300 -0.630287
O81   O     O_3   0.918396 0.393737 0.399700 -0.630288
O82   O     O_3   0.606263 0.081604 0.600300 -0.630288
O83   O     O_3   0.606263 0.918397 0.399700 -0.630289
O84   O     O_R   0.500000 0.060720 0.336830 -0.611893
Zn1   Zn    Zn3+2 0.413200 0.000000 0.217600 1.079253
Zn2   Zn    Zn3+2 0.086800 0.500000 0.282400 1.079254
Zn3   Zn    Zn3+2 0.500000 0.913200 0.717600 1.079254
Zn4   Zn    Zn3+2 0.500000 0.086800 0.282400 1.079254
Zn5   Zn    Zn3+2 0.086800 0.500000 0.717600 1.079254
Zn6   Zn    Zn3+2 0.913200 0.500000 0.282400 1.079254
Zn7   Zn    Zn3+2 0.500000 0.086800 0.717600 1.079253
Zn8   Zn    Zn3+2 0.500000 0.913200 0.282400 1.079254
Zn9   Zn    Zn3+2 0.586800 0.000000 0.782400 1.079254
Zn10  Zn    Zn3+2 0.000000 0.413200 0.217600 1.079253
Zn11  Zn    Zn3+2 1.000000 0.586800 0.782400 1.079254
Zn12  Zn    Zn3+2 0.586800 0.000000 0.217600 1.079254
Zn13  Zn    Zn3+2 0.413200 0.000000 0.782400 1.079254
Zn14  Zn    Zn3+2 1.000000 0.586800 0.217600 1.079253
Zn15  Zn    Zn3+2 1.000000 0.413200 0.782400 1.079254
Zn16  Zn    Zn3+2 0.913200 0.500000 0.717600 1.079253

loop_
_geom_bond_atom_site_label_1
_geom_bond_atom_site_label_2
_ccdc_geom_bond_type
C95   F4    S    
O9    Zn11  S    
C23   C58   S    
C91   F31   S    
O45   Zn8   S    
C69   O17   A    
C73   C119  S    
C58   O2    A    
C24   C42   A    
C112  F20   S    
C37   C88   A    
C103  C115  A    
C79   O38   A    
C55   O52   S    
C90   F30   S    
C104  C120  A    
C86   F27   S    
C85   F23   S    
C13   C41   A    
C5    C94   A    
C40   O76   S    
C111  F19   S    
C98   C119  A    
C62   O6    A    
C82   O37   A    
C106  C112  A    
H17   O74   S    
C79   O27   A    
C28   C46   A    
C36   O72   S    
O25   Zn16  S    
O47   Zn12  S    
C29   C47   A    
O27   Zn7   S    
C114  F22   S    
H2    O59   S    
C105  C113  A    
H19   O76   S    
C103  F11   S    
C37   O73   S    
C75   O35   A    
O39   Zn1   S    
C26   C52   A    
C36   C77   A    
O42   Zn1   S    
C7    C71   S    
C116  F25   S    
C8    C111  A    
O16   Zn6   S    
C18   C63   S    
O23   Zn2   S    
O4    Zn5   S    
C107  C111  A    
C19   C62   S    
O34   Zn16  S    
O44   Zn14  S    
C16   C116  A    
C20   C61   S    
C57   O45   A    
C108  C109  A    
C51   C55   A    
O12   Zn3   S    
C10   C74   S    
H13   O70   S    
C28   O64   S    
C98   F7    S    
C89   C94   A    
H11   O69   S    
C70   O47   A    
O7    Zn9   S    
C44   C50   A    
O12   Zn9   S    
C19   C37   A    
O1    Zn4   S    
C68   O16   A    
C82   O30   A    
O13   Zn12  S    
O2    Zn3   S    
C39   C110  A    
C15   C79   S    
O84   Zn4   S    
C10   C89   A    
C1    O49   S    
O34   Zn11  S    
O24   Zn4   S    
C87   C95   A    
C32   O69   S    
C26   C43   A    
H10   O68   S    
C71   O48   A    
C31   C33   A    
C59   O3    A    
H18   O75   S    
C70   O18   A    
C52   C110  A    
O48   Zn13  S    
H5    O62   S    
C78   O26   A    
O14   Zn4   S    
C102  C118  A    
C50   C88   A    
C9    C82   S    
C72   O20   A    
C12   C115  A    
C20   C34   A    
C94   F3    S    
C27   C45   A    
C45   O81   S    
C22   C40   A    
C34   C55   A    
C60   O4    A    
C23   C46   A    
C21   C43   A    
O22   Zn3   S    
C61   O5    A    
C17   C30   A    
C24   O61   S    
C68   O40   A    
C25   C42   A    
C25   C57   S    
O6    Zn14  S    
C58   O56   A    
C19   C32   A    
C38   O74   S    
O67   Zn2   S    
C80   O28   A    
C73   O46   A    
C64   O8    A    
H30   O55   S    
C50   C51   S    
O23   Zn6   S    
C54   C56   S    
O28   Zn8   S    
C51   C99   A    
C81   O29   A    
C89   F29   S    
C104  F13   S    
C73   O21   A    
H12   O50   S    
C8    C81   S    
C101  C119  A    
C60   O78   A    
C42   O79   S    
C17   C35   A    
C102  C116  A    
C93   F2    S    
C57   O84   A    
C21   C60   S    
O12   Zn13  S    
C87   F28   S    
O1    Zn8   S    
C78   O32   A    
C91   C92   A    
C4    C68   S    
C28   C54   A    
H26   O83   S    
C97   F6    S    
C5    C105  A    
C35   C66   A    
O19   Zn7   S    
O34   Zn15  S    
C14   C114  A    
C88   O55   S    
C5    C69   S    
C65   O42   A    
C84   F12   S    
C16   C83   A    
C83   F1    S    
O11   Zn13  S    
C15   C117  A    
C117  F26   S    
C16   C80   S    
C9    C109  A    
C29   O65   S    
C99   O57   S    
C71   O19   A    
H16   O73   S    
O46   Zn15  S    
C92   F32   S    
C107  F16   S    
C27   O63   S    
C4    C95   A    
C20   C38   A    
C75   O24   A    
C110  O58   S    
O33   Zn13  S    
C113  F21   S    
C21   C39   A    
C67   O43   A    
C46   O82   S    
C6    C93   A    
O40   Zn10  S    
O20   Zn2   S    
C74   O22   A    
H14   O71   S    
C32   C44   A    
H1    O49   S    
C8    C91   A    
C4    C106  A    
H27   O52   S    
O38   Zn9   S    
C30   O66   S    
O43   Zn9   S    
C86   C96   A    
C3    C96   A    
O12   Zn7   S    
C39   O75   S    
H24   O81   S    
O23   Zn10  S    
C104  C114  A    
C43   O80   S    
O18   Zn8   S    
C48   C49   S    
O29   Zn5   S    
H4    O61   S    
O10   Zn10  S    
O34   Zn5   S    
H23   O51   S    
C83   C100  A    
C12   C76   S    
C66   O53   S    
C59   O67   A    
O35   Zn12  S    
C63   O11   A    
C44   O51   S    
C100  C118  A    
H6    O63   S    
C62   O10   A    
O1    Zn12  S    
C61   O9    A    
C22   C59   S    
C52   C53   S    
C90   C93   A    
O15   Zn3   S    
C13   C54   A    
C2    O59   S    
C3    C103  A    
C6    C70   S    
C25   C47   A    
C115  F24   S    
O37   Zn14  S    
C6    C108  A    
H15   O72   S    
C11   C112  A    
C100  F8    S    
O32   Zn10  S    
H8    O65   S    
C3    C67   S    
C102  F10   S    
C14   C85   A    
C38   C99   A    
C2    C53   A    
C69   O41   A    
C9    C90   A    
C11   C87   A    
C27   C53   A    
C1    C48   A    
C15   C84   A    
C29   C56   A    
O1    Zn1   S    
O26   Zn2   S    
O41   Zn11  S    
C106  F15   S    
C67   O15   A    
C23   C41   A    
O56   Zn7   S    
C12   C86   A    
C34   O70   S    
C108  F17   S    
C84   C98   A    
C97   C120  A    
C41   O77   S    
H20   O77   S    
C101  C117  A    
O21   Zn16  S    
C11   C75   S    
H25   O82   S    
H3    O60   S    
O23   Zn14  S    
C47   O83   S    
C81   O36   A    
C76   O31   A    
H9    O66   S    
C77   O54   S    
H28   O53   S    
C24   C56   A    
C76   O25   A    
C63   O7    A    
C7    C92   A    
O5    Zn15  S    
C74   O33   A    
O30   Zn6   S    
C1    C30   A    
C65   C120  S    
C49   C77   A    
C96   F5    S    
O36   Zn15  S    
C7    C107  A    
C14   C78   S    
H7    O64   S    
H21   O79   S    
C85   C97   A    
H22   O80   S    
C65   O14   A    
C13   O60   S    
O3    Zn6   S    
C2    C40   A    
C22   C45   A    
O78   Zn16  S    
H29   O54   S    
O8    Zn1   S    
C33   C49   A    
C72   C118  S    
C35   O71   S    
H32   O58   S    
C109  F18   S    
C31   O68   S    
O31   Zn11  S    
C18   C31   A    
H31   O57   S    
C48   C66   A    
C64   O13   A    
C18   C36   A    
C10   C113  A    
C33   O50   S    
C26   O62   S    
C17   C64   S    
O17   Zn5   S    
C105  F14   S    
C80   O39   A    
C72   O44   A    
C101  F9    S    
