data_mof_unit_54972.cif
_audit_creation_date              2012-10-26T19:35:18-0400
_audit_creation_method            fapswitch 2.2
_symmetry_space_group_name_H-M    P1
_symmetry_Int_Tables_number       1
_space_group_crystal_system       triclinic
_cell_length_a                    10.86935
_cell_length_b                    10.836967
_cell_length_c                    9.595568
_cell_angle_alpha                 90.287431
_cell_angle_beta                  89.863378
_cell_angle_gamma                 90.83505
_cell_volume                      1130.13222898

loop_
_atom_site_label
_atom_site_type_symbol
_atom_type_description
_atom_site_fract_x
_atom_site_fract_y
_atom_site_fract_z
_atom_type_partial_charge
C1    C     C_R   0.496700 0.262655 0.499598 0.544476
C2    C     C_R   0.464775 0.935403 0.374563 -0.145002
C3    C     C_R   0.480520 0.871292 0.500608 0.056394
C4    C     C_R   0.262516 0.500257 0.499811 0.611756
C5    C     C_R   0.476411 0.938406 0.625195 0.039682
C6    C     C_3   0.558778 0.936494 0.749345 -0.294894
C7    C     C_3   0.558453 0.076173 0.748254 -0.271546
C8    C     C_R   0.600179 0.540113 0.072809 0.126185
C9    C     C_R   0.412648 0.435335 0.074550 0.045782
C10   C     C_R   0.412237 0.435851 0.925145 0.041535
C11   C     C_R   0.602311 0.536305 0.926863 0.205726
C12   C     C_R   0.068761 0.623872 0.499962 -0.039171
C13   C     C_3   0.675033 0.653303 0.918583 0.136434
C14   C     C_3   0.664378 0.661595 0.077336 -0.243862
C15   C     C_R   0.495893 0.737761 0.500453 0.652456
C16   C     C_R   0.737404 0.505377 0.499906 0.608197
C17   C     C_R   0.134653 0.737447 0.487768 0.246791
C18   C     C_R   0.078495 0.847755 0.526883 -0.035959
C19   C     C_R   0.952337 0.849166 0.545306 -0.188015
C20   C     C_R   0.881193 0.743604 0.512735 0.260768
C21   C     C_R   0.938284 0.626510 0.506226 0.004011
C22   C     C_1   0.324215 0.358382 0.147353 0.242840
C23   C     C_R   0.128848 0.508646 0.497810 0.020116
C24   C     C_1   0.323434 0.359312 0.851956 0.250832
C25   C     C_3   0.866757 0.738605 0.873832 -0.114036
C26   C     C_3   0.222114 0.748905 0.274327 -0.100573
C27   C     C_1   0.145566 0.963341 0.529324 0.224969
C28   C     C_3   0.754587 0.843485 0.363215 -0.136566
C29   C     C_R   0.060831 0.398629 0.495891 -0.132301
C30   C     C_R   0.933421 0.400653 0.494897 -0.152971
C31   C     C_R   0.871401 0.512646 0.499408 0.038774
C32   C     C_R   0.477229 0.065502 0.623998 0.062190
C33   C     C_R   0.482028 0.129865 0.498851 0.025896
C34   C     C_R   0.466383 0.064083 0.373504 -0.146458
Cu1   Cu    Cu3+1 0.499990 0.499980 0.640670 1.013408
Cu2   Cu    Cu3+1 0.500010 0.500020 0.359330 0.984665
H1    H     H_    0.106848 0.310593 0.494072 0.162662
H2    H     H_    0.461790 0.111198 0.274430 0.143324
H3    H     H_    0.460093 0.887174 0.275761 0.111222
H4    H     H_    0.511486 0.897539 0.842415 0.124500
H5    H     H_    0.959884 0.718044 0.833132 0.150898
H6    H     H_    0.877978 0.775827 0.981257 0.094858
H7    H     H_    0.826505 0.809539 0.805444 0.115361
H8    H     H_    0.159764 0.672841 0.238067 0.118496
H9    H     H_    0.309675 0.738263 0.216488 0.146068
H10   H     H_    0.183290 0.839890 0.246422 0.112700
H11   H     H_    0.671319 0.825579 0.301898 0.138020
H12   H     H_    0.650333 0.898449 0.723715 0.144695
H13   H     H_    0.833016 0.836571 0.288393 0.098253
H14   H     H_    0.748099 0.938871 0.405251 0.114883
H15   H     H_    0.510134 0.116922 0.839388 0.150460
H16   H     H_    0.649899 0.118235 0.723814 0.133778
H17   H     H_    0.626534 0.724329 0.859025 0.114701
H18   H     H_    0.753270 0.656518 0.133772 0.155305
H19   H     H_    0.601517 0.736159 0.110182 0.071246
H20   H     H_    0.907583 0.936259 0.565277 0.114811
H21   H     H_    0.882530 0.313890 0.491724 0.109837
N1    N     N_R   0.500790 0.500930 0.147930 -0.273116
N2    N     N_R   0.500790 0.500890 0.852020 -0.289924
N3    N     N_1   0.253164 0.295700 0.204087 -0.305062
N4    N     N_1   0.252167 0.296875 0.794897 -0.285394
N5    N     N_1   0.197627 0.057147 0.531303 -0.294125
O1    O     O_R   0.500000 0.319640 0.618810 -0.506453
O2    O     O_3   0.245915 0.742904 0.419072 -0.565501
O3    O     O_3   0.760032 0.756955 0.473440 -0.567309
O4    O     O_R   0.500010 0.319680 0.381230 -0.514046
O5    O     O_R   0.319640 0.499980 0.618820 -0.495110
O6    O     O_R   0.319650 0.500020 0.381230 -0.478730
O7    O     O_R   0.499990 0.680320 0.618770 -0.500542
O8    O     O_R   0.500000 0.680360 0.381190 -0.494306
O9    O     O_R   0.680350 0.499980 0.618770 -0.461921
O10   O     O_R   0.680360 0.500020 0.381180 -0.498050
O11   O     O_3   0.795873 0.628613 0.872592 -0.539015

loop_
_geom_bond_atom_site_label_1
_geom_bond_atom_site_label_2
_ccdc_geom_bond_type
C25   H6    S    
C12   C17   A    
C4    O5    A    
Cu1   O1    S    
Cu2   O6    S    
C28   H11   S    
C6    C7    S    
C27   N5    T    
C29   C30   A    
C11   C13   S    
C9    C10   A    
C2    H3    S    
Cu2   N1    S    
Cu1   Cu2   S    
C16   O10   A    
C19   H20   S    
Cu1   O5    S    
C30   C31   A    
C10   N2    A    
C5    C32   A    
C14   H19   S    
C32   C33   A    
C2    C34   A    
C19   C20   A    
C2    C3    A    
C7    H15   S    
Cu1   O9    S    
C13   C14   S    
C16   C31   S    
C8    N1    A    
C21   C31   A    
C12   C23   A    
C25   H7    S    
C24   N4    T    
C16   O9    A    
C6    H12   S    
C8    C11   A    
C11   N2    A    
C1    O1    A    
C26   H8    S    
Cu1   N2    S    
C14   H18   S    
C25   O11   S    
Cu2   O8    S    
C7    H16   S    
C28   O3    S    
C13   H17   S    
C17   O2    S    
C22   N3    T    
C5    C6    S    
C15   O7    A    
Cu2   O4    S    
C9    C22   S    
C29   H1    S    
C26   H10   S    
C1    C33   S    
C30   H21   S    
C23   C29   A    
C20   O3    S    
C6    H4    S    
C33   C34   A    
C20   C21   A    
Cu1   O7    S    
C17   C18   A    
C9    N1    A    
C28   H13   S    
C25   H5    S    
C4    O6    A    
C15   O8    A    
C26   O2    S    
C18   C19   A    
C3    C15   S    
C8    C14   S    
C7    C32   S    
C26   H9    S    
C10   C24   S    
C4    C23   S    
C34   H2    S    
C28   H14   S    
C12   C21   A    
C18   C27   S    
Cu2   O10   S    
C13   O11   S    
C3    C5    A    
C1    O4    A    
