data_mof_unit_43910.cif
_audit_creation_date              2012-12-10T18:06:41-0500
_audit_creation_method            fapswitch 2.2
_symmetry_space_group_name_H-M    P1
_symmetry_Int_Tables_number       1
_space_group_crystal_system       triclinic
_cell_length_a                    12.652774
_cell_length_b                    13.069178
_cell_length_c                    15.251781
_cell_angle_alpha                 84.441012
_cell_angle_beta                  98.634105
_cell_angle_gamma                 96.950503
_cell_volume                      2467.17682388

loop_
_atom_site_label
_atom_site_type_symbol
_atom_type_description
_atom_site_fract_x
_atom_site_fract_y
_atom_site_fract_z
_atom_type_partial_charge
C1    C     C_R   0.441447 0.308461 0.505522 0.856977
C2    C     C_R   0.403433 0.446804 0.097713 0.110975
C3    C     C_R   0.307971 0.490820 0.061924 0.154931
C4    C     C_R   0.460298 0.401679 0.041473 -0.008782
C5    C     C_R   0.435403 0.422365 0.948828 0.027292
C6    C     C_R   0.330834 0.452045 0.913509 0.089341
C7    C     C_R   0.269438 0.487175 0.971576 -0.290476
C8    C     C_R   0.542359 0.338286 0.074865 -0.237918
C9    C     C_R   0.610787 0.309595 0.019721 0.187658
C10   C     C_R   0.601886 0.351495 0.930544 0.147389
C11   C     C_R   0.516934 0.412723 0.897095 0.032983
C12   C     C_R   0.435065 0.511371 0.335563 0.846028
C13   C     C_R   0.676581 0.336508 0.874142 -0.199332
C14   C     C_R   0.668254 0.383254 0.787568 -0.230812
C15   C     C_R   0.521668 0.471169 0.816345 -0.220062
C16   C     C_R   0.708520 0.919185 0.595353 -0.210813
C17   C     C_R   0.595782 0.798722 0.501939 -0.053743
C18   C     C_R   0.297753 0.165146 0.455527 0.093833
C19   C     C_R   0.264654 0.057299 0.457842 0.248402
C20   C     C_R   0.341572 0.988497 0.484364 -0.280803
C21   C     C_R   0.449388 0.024535 0.511316 0.037264
C22   C     C_R   0.472780 0.125439 0.537492 0.072246
C23   C     C_R   0.557094 0.691254 0.492459 0.864679
C24   C     C_R   0.533548 0.961335 0.518523 0.062884
C25   C     C_R   0.629803 0.987637 0.576690 0.154084
C26   C     C_R   0.644862 0.080902 0.616762 -0.265206
C27   C     C_R   0.568468 0.150568 0.595577 -0.185249
C28   C     C_R   0.526214 0.873327 0.469758 0.033144
C29   C     C_R   0.688866 0.822881 0.561321 -0.248335
C30   C     C_R   0.401273 0.198702 0.502388 -0.200775
C31   C     C_R   0.143414 0.643288 0.627883 -0.316601
C32   C     C_R   0.763417 0.380994 0.391663 0.277807
C33   C     C_R   0.860587 0.368548 0.364313 -0.261878
C34   C     C_R   0.563100 0.484191 0.664484 0.844104
C35   C     C_R   0.954289 0.416496 0.405306 -0.236112
C36   C     C_R   0.953591 0.477099 0.476446 0.019849
C37   C     C_R   0.853486 0.496268 0.498263 0.165785
C38   C     C_R   0.049275 0.522229 0.523333 -0.019127
C39   C     C_R   0.045928 0.590643 0.590039 0.141325
C40   C     C_R   0.945592 0.606071 0.614308 0.043527
C41   C     C_R   0.851543 0.563452 0.563942 -0.241492
C42   C     C_R   0.149681 0.500754 0.505912 -0.057934
C43   C     C_R   0.239315 0.622878 0.603572 -0.000748
C44   C     C_R   0.391220 0.506859 0.241416 -0.041453
C45   C     C_R   0.590044 0.450857 0.758506 -0.063663
C46   C     C_R   0.252276 0.537871 0.117114 -0.201217
C47   C     C_R   0.293740 0.545885 0.206460 -0.215134
C48   C     C_R   0.444837 0.457588 0.187119 -0.267371
H1    H     H_    0.191907 0.513771 0.946032 0.140748
H2    H     H_    0.740305 0.287642 0.895575 0.151314
H3    H     H_    0.742846 0.765131 0.584797 0.148768
H4    H     H_    0.717251 0.101504 0.662041 0.146447
H5    H     H_    0.781262 0.937055 0.641066 0.140054
H6    H     H_    0.317043 0.906355 0.482391 0.166633
H7    H     H_    0.584404 0.223438 0.625833 0.165362
H8    H     H_    0.314606 0.662705 0.632441 0.134968
H9    H     H_    0.472725 0.533933 0.797877 0.146410
H10   H     H_    0.148380 0.702498 0.673214 0.136555
H11   H     H_    0.160816 0.443505 0.463214 0.117896
H12   H     H_    0.025299 0.404962 0.378211 0.147108
H13   H     H_    0.863981 0.320851 0.310631 0.148993
H14   H     H_    0.776929 0.583464 0.577521 0.213050
H15   H     H_    0.721723 0.365485 0.743291 0.156480
H16   H     H_    0.177841 0.570053 0.090849 0.136769
H17   H     H_    0.250061 0.583226 0.247902 0.156362
H18   H     H_    0.521419 0.431724 0.214566 0.147933
H19   H     H_    0.551396 0.307812 0.143488 0.145615
N1    N     N_R   0.239390 0.551900 0.544730 -0.106577
N2    N     N_R   0.759950 0.448600 0.455730 -0.133769
O1    O     O_R   0.374950 0.371210 0.521360 -0.623757
O2    O     O_R   0.542050 0.338030 0.492790 -0.616409
O3    O     O_R   0.368720 0.526070 0.390200 -0.616452
O4    O     O_R   0.535820 0.492890 0.361630 -0.632775
O5    O     O_R   0.457950 0.661970 0.507210 -0.608989
O6    O     O_R   0.625050 0.628790 0.478640 -0.627787
O7    O     O_R   0.464180 0.507110 0.638370 -0.608752
O8    O     O_R   0.631280 0.473930 0.609800 -0.640431
Zn1   Zn    Zn3+2 0.388420 0.522150 0.519080 0.911013
Zn2   Zn    Zn3+2 0.611580 0.477850 0.480920 0.909426
C49   C     C_3   0.451952 0.860257 0.381354 -0.467570
C50   C     C_3   0.511124 0.832421 0.307129 -0.343182
C51   C     C_3   0.438653 0.834272 0.217564 -0.871190
H20   H     H_    0.365129 0.779189 0.221588 0.263433
H21   H     H_    0.415216 0.913311 0.197519 0.259581
H22   H     H_    0.482379 0.811223 0.165969 0.255110
H23   H     H_    0.583979 0.887961 0.301455 0.226169
H24   H     H_    0.536936 0.753716 0.322109 0.222767
H25   H     H_    0.384431 0.799445 0.390941 0.222832
H26   H     H_    0.417421 0.933316 0.356379 0.223641
C52   C     C_3   0.226788 0.239831 0.397883 -0.428731
C53   C     C_3   0.218765 0.223648 0.298489 -0.354082
C54   C     C_3   0.136491 0.288323 0.242672 -0.881068
H27   H     H_    0.054572 0.261097 0.259006 0.252870
H28   H     H_    0.155678 0.371080 0.255584 0.267997
H29   H     H_    0.137461 0.280745 0.170914 0.257728
H30   H     H_    0.298784 0.246827 0.276468 0.219506
H31   H     H_    0.195060 0.141349 0.285713 0.240464
H32   H     H_    0.146161 0.231910 0.419663 0.200671
H33   H     H_    0.257384 0.321636 0.403187 0.223634
C55   C     C_3   0.151116 0.010844 0.428339 -0.941337
H34   H     H_    0.149624 0.967171 0.369139 0.236491
H35   H     H_    0.123215 0.956328 0.482762 0.244464
H36   H     H_    0.092410 0.068270 0.411611 0.247200
C56   C     C_3   0.934428 0.664956 0.693726 -0.441810
C57   C     C_3   0.862937 0.601435 0.757124 -0.331849
C58   C     C_3   0.864529 0.654884 0.842026 -0.887074
H37   H     H_    0.947073 0.662776 0.879481 0.254864
H38   H     H_    0.836448 0.732686 0.825602 0.260997
H39   H     H_    0.810088 0.608005 0.884950 0.261232
H40   H     H_    0.778483 0.591365 0.724369 0.220876
H41   H     H_    0.891220 0.523845 0.775267 0.228522
H42   H     H_    0.012230 0.685691 0.734602 0.207930
H43   H     H_    0.900629 0.738484 0.669242 0.193387
C59   C     C_3   0.667110 0.318173 0.344432 -0.413685
C60   C     C_3   0.669759 0.202052 0.370105 -0.361105
C61   C     C_3   0.571916 0.139710 0.322505 -0.896492
H44   H     H_    0.496439 0.162364 0.340146 0.263000
H45   H     H_    0.570607 0.151533 0.249336 0.256184
H46   H     H_    0.576530 0.056735 0.342982 0.265607
H47   H     H_    0.743260 0.175391 0.352183 0.216820
H48   H     H_    0.671032 0.186642 0.443011 0.254877
H49   H     H_    0.590032 0.338321 0.355760 0.263352
H50   H     H_    0.668828 0.333096 0.271754 0.166213
C62   C     C_3   0.696241 0.240574 0.058888 -0.955777
H51   H     H_    0.777229 0.282856 0.055206 0.241996
H52   H     H_    0.690945 0.215094 0.129859 0.243726
H53   H     H_    0.686857 0.170407 0.021614 0.243873
C63   C     C_3   0.274732 0.434397 0.819333 -0.405053
C64   C     C_3   0.271539 0.321714 0.797473 -0.331533
C65   C     C_3   0.211653 0.305392 0.704392 -0.856068
H54   H     H_    0.127408 0.323877 0.699255 0.253104
H55   H     H_    0.252631 0.355507 0.653893 0.292708
H56   H     H_    0.210594 0.223494 0.690222 0.246236
H57   H     H_    0.354216 0.300092 0.800437 0.234121
H58   H     H_    0.230414 0.269571 0.846906 0.219372
H59   H     H_    0.189959 0.452352 0.812261 0.197699
H60   H     H_    0.309621 0.487724 0.768063 0.206675

loop_
_geom_bond_atom_site_label_1
_geom_bond_atom_site_label_2
_ccdc_geom_bond_type
C13   H2    S    
C57   H40   S    
C60   H48   S    
C37   N2    A    
O1    Zn1   S    
C17   C29   A    
C6    C7    A    
C65   H55   S    
C35   C36   A    
C4    C8    A    
C63   C64   S    
O2    Zn2   S    
C59   C60   S    
C26   C27   A    
C17   C23   S    
C31   C43   A    
C37   C41   A    
C31   H10   S    
C1    C30   S    
C36   C37   A    
C52   H32   S    
O7    Zn1   S    
C38   C42   A    
C3    C7    A    
C63   H59   S    
C34   O8    A    
C5    C6    A    
C27   H7    S    
C58   H37   S    
C60   C61   S    
C9    C62   S    
C61   H44   S    
C18   C19   A    
C49   H26   S    
C16   H5    S    
C55   H34   S    
O3    Zn1   S    
C53   H30   S    
C64   H58   S    
C11   C15   A    
C19   C20   A    
C31   C39   A    
C8    C9    A    
C18   C30   A    
C9    C10   A    
C50   H23   S    
C44   C47   A    
C12   O3    A    
C13   C14   A    
C42   N1    A    
C15   H9    S    
C41   H14   S    
C55   H35   S    
C56   C57   S    
C21   C22   A    
C50   C51   S    
C14   C45   A    
O8    Zn2   S    
N1    Zn1   S    
C18   C52   S    
C24   C25   A    
C7    H1    S    
C20   H6    S    
C53   C54   S    
C56   H42   S    
C4    C5    A    
C2    C48   A    
C16   C29   A    
C55   H36   S    
C64   H57   S    
C46   H16   S    
C35   H12   S    
C2    C4    A    
C63   H60   S    
C26   H4    S    
C40   C56   S    
C54   H28   S    
O4    Zn2   S    
C34   C45   S    
C1    O2    A    
C53   H31   S    
C50   H24   S    
C62   H53   S    
C59   H50   S    
C40   C41   A    
C51   H20   S    
C51   H21   S    
C22   C27   A    
N2    Zn2   S    
C65   H56   S    
C15   C45   A    
C23   O5    A    
C52   H33   S    
C39   C40   A    
C62   H52   S    
C64   C65   S    
C29   H3    S    
C16   C25   A    
C46   C47   A    
C22   C30   A    
C17   C28   A    
C24   C28   A    
C23   O6    A    
C49   C50   S    
C10   C13   A    
C42   H11   S    
C19   C55   S    
C5    C11   A    
C32   N2    A    
C51   H22   S    
C57   C58   S    
C43   N1    A    
C3    C46   A    
C1    O1    A    
C61   H46   S    
C48   H18   S    
C32   C33   A    
C36   C38   A    
C2    C3    A    
C25   C26   A    
C6    C63   S    
C49   H25   S    
C52   C53   S    
C38   C39   A    
C58   H38   S    
C14   H15   S    
C54   H27   S    
C33   C35   A    
C61   H45   S    
C65   H54   S    
C54   H29   S    
C57   H41   S    
C28   C49   S    
C10   C11   A    
C56   H43   S    
C59   H49   S    
C43   H8    S    
C20   C21   A    
C8    H19   S    
C33   H13   S    
C60   H47   S    
O5    Zn1   S    
C21   C24   A    
C12   C44   S    
C32   C59   S    
C12   O4    A    
O6    Zn2   S    
C47   H17   S    
C44   C48   A    
C34   O7    A    
C62   H51   S    
C58   H39   S    
