data_mof_unit_64926.cif
_audit_creation_date              2012-12-10T21:07:04-0500
_audit_creation_method            fapswitch 2.2
_symmetry_space_group_name_H-M    P1
_symmetry_Int_Tables_number       1
_space_group_crystal_system       triclinic
_cell_length_a                    10.657967
_cell_length_b                    15.819764
_cell_length_c                    15.098288
_cell_angle_alpha                 90.345356
_cell_angle_beta                  89.842585
_cell_angle_gamma                 89.098729
_cell_volume                      2545.29837478

loop_
_atom_site_label
_atom_site_type_symbol
_atom_type_description
_atom_site_fract_x
_atom_site_fract_y
_atom_site_fract_z
_atom_type_partial_charge
C1    C     C_R   0.498864 0.338914 0.499755 0.914019
C2    C     C_R   0.491507 0.086857 0.499576 0.137423
C3    C     C_R   0.506374 0.955469 0.419598 -0.169308
C4    C     C_R   0.493614 0.044531 0.580403 -0.169328
C5    C     C_1   0.509267 0.824274 0.500733 -0.023184
C6    C     C_1   0.490728 0.175727 0.499268 -0.023182
C7    C     C_1   0.493792 0.250585 0.499295 -0.085019
C8    C     C_1   0.506206 0.749415 0.500705 -0.085034
C9    C     C_R   0.404693 0.457619 0.952837 0.021778
C10   C     C_R   0.595302 0.542385 0.047163 0.021764
C11   C     C_R   0.499782 0.499673 0.905120 -0.124919
C12   C     C_R   0.501137 0.661086 0.500245 0.914032
C13   C     C_R   0.500214 0.500330 0.094880 -0.124932
C14   C     C_R   0.594573 0.541811 0.952638 0.421077
C15   C     C_R   0.405421 0.458195 0.047362 0.421070
C16   C     C_R   0.259914 0.501914 0.500089 0.957101
C17   C     C_R   0.740086 0.498081 0.499912 0.957093
C18   C     C_1   0.500072 0.499858 0.806970 0.291377
C19   C     C_1   0.499926 0.500143 0.193030 0.291339
C20   C     C_R   0.188169 0.793746 0.458186 0.063202
C21   C     C_R   0.811819 0.206254 0.541908 0.063182
C22   C     C_R   0.137097 0.718151 0.490055 0.384146
C23   C     C_R   0.872187 0.498505 0.499763 -0.195303
C24   C     C_R   0.862907 0.281833 0.510010 0.384175
C25   C     C_R   0.126242 0.647596 0.433069 -0.161074
C26   C     C_R   0.873755 0.352411 0.566965 -0.161072
C27   C     C_R   0.169127 0.652438 0.344812 0.352153
C28   C     C_R   0.830854 0.347606 0.655221 0.352138
C29   C     C_R   0.225470 0.726665 0.314901 0.362185
C30   C     C_R   0.774487 0.273396 0.685157 0.362186
C31   C     C_R   0.233652 0.796829 0.371054 -0.300171
C32   C     C_R   0.766307 0.203211 0.629035 -0.300157
C33   C     C_R   0.931777 0.568949 0.464367 0.406728
C34   C     C_R   0.127813 0.501488 0.500238 -0.195297
C35   C     C_R   0.068223 0.431044 0.535635 0.406739
C36   C     C_3   0.303658 0.412639 0.901287 -0.644827
C37   C     C_3   0.696339 0.587364 0.098713 -0.644821
C38   C     C_3   0.192358 0.871440 0.516039 -0.708286
C39   C     C_3   0.807646 0.128533 0.484094 -0.708283
C40   C     C_R   0.938471 0.429235 0.535346 0.019616
C41   C     C_R   0.061529 0.570761 0.464660 0.019627
C42   C     C_R   0.502005 0.957011 0.580829 -0.166213
C43   C     C_R   0.497985 0.042989 0.419172 -0.166174
C44   C     C_R   0.508483 0.913143 0.500425 0.137422
Cl1   Cl    Cl    0.083971 0.712212 0.600937 -0.525128
Cl2   Cl    Cl    0.712366 0.593966 0.891771 -0.476669
Cl3   Cl    Cl    0.916060 0.287724 0.399131 -0.525141
Cl4   Cl    Cl    0.148759 0.566799 0.270869 -0.424864
Cl5   Cl    Cl    0.851234 0.433268 0.729133 -0.424837
Cl6   Cl    Cl    0.284709 0.734199 0.206393 -0.494760
Cl7   Cl    Cl    0.715216 0.265912 0.793661 -0.494815
Cl8   Cl    Cl    0.844095 0.656231 0.422277 -0.551757
Cl9   Cl    Cl    0.155906 0.343766 0.577730 -0.551755
Cl10  Cl    Cl    0.287622 0.406045 0.108230 -0.476693
H1    H     H_    0.274897 0.854218 0.346274 0.206465
H2    H     H_    0.766681 0.618557 0.056582 0.289747
H3    H     H_    0.652520 0.636887 0.141685 0.239485
H4    H     H_    0.747468 0.541238 0.141074 0.245562
H5    H     H_    0.233262 0.925856 0.480611 0.227046
H6    H     H_    0.095761 0.889819 0.537037 0.272088
H7    H     H_    0.250035 0.858384 0.575664 0.251397
H8    H     H_    0.766719 0.074137 0.519541 0.227044
H9    H     H_    0.749998 0.141565 0.424449 0.251408
H10   H     H_    0.904251 0.110140 0.463127 0.272083
H11   H     H_    0.725044 0.145836 0.653835 0.206461
H12   H     H_    0.489732 0.079115 0.642562 0.173828
H13   H     H_    0.510257 0.920885 0.357439 0.173845
H14   H     H_    0.502469 0.923617 0.643294 0.174231
H15   H     H_    0.497521 0.076383 0.356707 0.174236
H16   H     H_    0.233302 0.381460 0.943417 0.289746
H17   H     H_    0.252547 0.458759 0.858910 0.245552
H18   H     H_    0.347478 0.363104 0.858330 0.239501
N1    N     N_1   0.499960 0.500020 0.270550 -0.060624
N2    N     N_1   0.500040 0.499980 0.729450 -0.060620
O1    O     O_R   0.500000 0.378020 0.573650 -0.607907
O2    O     O_R   0.500000 0.621980 0.426350 -0.607895
O3    O     O_R   0.500060 0.378020 0.426320 -0.599497
O4    O     O_R   0.499940 0.621980 0.573680 -0.599492
O5    O     O_R   0.316730 0.500010 0.573660 -0.585303
O6    O     O_R   0.683270 0.499990 0.426340 -0.585311
O7    O     O_R   0.316790 0.500010 0.426330 -0.585557
O8    O     O_R   0.683210 0.499990 0.573670 -0.585555
Zn1   Zn    Zn3+2 0.499960 0.500000 0.598370 1.079734
Zn2   Zn    Zn3+2 0.500040 0.500000 0.401630 1.079732

loop_
_geom_bond_atom_site_label_1
_geom_bond_atom_site_label_2
_ccdc_geom_bond_type
C27   Cl4   S    
C30   C32   A    
C30   Cl7   S    
C11   C18   S    
C27   C29   A    
C1    O3    A    
N2    Zn1   S    
O6    Zn2   S    
O1    Zn1   S    
O2    Zn2   S    
C14   Cl2   S    
C33   Cl8   S    
C39   H10   S    
C3    C43   A    
C17   C23   S    
C10   C37   S    
C24   C26   A    
C17   O8    A    
C11   C14   A    
C35   Cl9   S    
C23   C40   A    
C34   C35   A    
C16   C34   S    
C37   H2    S    
O4    Zn1   S    
C23   C33   A    
C22   C25   A    
C12   O4    A    
C9    C36   S    
N1    Zn2   S    
C37   H4    S    
C36   H17   S    
C38   H7    S    
C43   H15   S    
C42   H14   S    
C2    C6    S    
C34   C41   A    
C42   C44   A    
C36   H16   S    
C29   Cl6   S    
C21   C32   A    
C3    C44   A    
C13   C19   S    
C1    O1    A    
C15   Cl10  S    
C19   N1    T    
C10   C14   A    
C25   C41   S    
O3    Zn2   S    
C17   O6    A    
C2    C4    A    
C20   C38   S    
C28   Cl5   S    
C21   C39   S    
C2    C43   A    
C8    C12   S    
C9    C11   A    
C38   H6    S    
C5    C44   S    
C20   C22   A    
C13   C15   A    
C12   O2    A    
O7    Zn2   S    
C39   H8    S    
C1    C7    S    
C24   Cl3   S    
C3    H13   S    
C10   C13   A    
C5    C8    T    
C6    C7    T    
C25   C27   A    
C39   H9    S    
C26   C28   A    
C16   O5    A    
C33   C41   A    
C28   C30   A    
C35   C40   A    
C9    C15   A    
C29   C31   A    
O5    Zn1   S    
C26   C40   S    
C4    C42   A    
C16   O7    A    
C38   H5    S    
C22   Cl1   S    
C4    H12   S    
C18   N2    T    
O8    Zn1   S    
C21   C24   A    
C31   H1    S    
C37   H3    S    
C36   H18   S    
C32   H11   S    
C20   C31   A    
