data_mof_unit_28800.cif
_audit_creation_date              2013-03-05T15:52:19-0500
_audit_creation_method            fapswitch 2.2
_symmetry_space_group_name_H-M    P1
_symmetry_Int_Tables_number       1
_space_group_crystal_system       triclinic
_cell_length_a                    10.666449
_cell_length_b                    10.688831
_cell_length_c                    17.08638
_cell_angle_alpha                 80.269422
_cell_angle_beta                  99.289869
_cell_angle_gamma                 118.305238
_cell_volume                      1683.02162743

loop_
_atom_site_label
_atom_site_type_symbol
_atom_site_description
_atom_site_fract_x
_atom_site_fract_y
_atom_site_fract_z
_atom_type_partial_charge
O1    O     O_R   0.754020 0.497590 0.609930 -0.431351
O2    O     O_R   0.481420 0.271390 0.600630 -0.474009
C1    C     C_R   0.357609 0.221103 0.625787 0.566942
O3    O     O_R   0.263810 0.254550 0.589590 -0.448176
O4    O     O_R   0.300820 0.531200 0.560890 -0.432512
C2    C     C_R   0.369048 0.655506 0.585112 0.586682
O5    O     O_R   0.491480 0.744020 0.564270 -0.521312
O6    O     O_R   0.726290 0.693800 0.583010 -0.483108
C3    C     C_R   0.776943 0.618764 0.626938 0.568038
O7    O     O_R   0.747830 0.500190 0.434090 -0.409486
O8    O     O_R   0.475680 0.273800 0.437630 -0.511341
C4    C     C_R   0.351841 0.226252 0.400486 0.526660
O9    O     O_R   0.257620 0.257160 0.413750 -0.463929
O10   O     O_R   0.295080 0.533620 0.397890 -0.474714
C5    C     C_R   0.365461 0.654503 0.360898 0.562821
O11   O     O_R   0.485280 0.746620 0.388440 -0.472491
O12   O     O_R   0.720550 0.696220 0.420010 -0.436298
C6    C     C_R   0.704406 0.586578 0.389176 0.545432
Cr1   Cr    Cr6+3 0.608440 0.389080 0.519680 1.187023
Cr2   Cr    Cr6+3 0.288640 0.400090 0.490760 1.193922
Cr3   Cr    Cr6+3 0.602940 0.710800 0.489510 1.155628
O13   O     O_3   0.500010 0.499990 0.499980 -0.349398
C7    C     C_R   0.290650 0.741032 0.799492 -0.004187
C8    C     C_R   0.179005 0.631965 0.757961 -0.124211
C9    C     C_R   0.196381 0.606695 0.685066 -0.015074
C10   C     C_R   0.412355 0.826769 0.677879 -0.120864
C11   C     C_R   0.405954 0.846127 0.755585 0.158563
C12   C     C_3   0.072189 0.478252 0.777853 0.113646
C13   C     C_3   0.097270 0.449538 0.697809 0.365341
C14   C     C_R   0.319015 0.696591 0.646377 0.001710
H1    H     H_    0.962787 0.465207 0.779590 0.136649
C15   C     C_1   0.823293 0.656823 0.705975 -0.021068
C16   C     C_1   0.851241 0.685421 0.773479 -0.005795
C17   C     C_1   0.328324 0.152780 0.705008 0.084107
C18   C     C_1   0.292910 0.107149 0.771685 0.064264
C19   C     C_1   0.334743 0.665142 0.278018 -0.000605
C20   C     C_1   0.321122 0.673864 0.207324 -0.037721
C21   C     C_R   0.797588 0.649746 0.148241 -0.012364
C22   C     C_R   0.770266 0.522148 0.196595 -0.052220
C23   C     C_R   0.736560 0.502934 0.273285 -0.039269
C24   C     C_R   0.723375 0.728268 0.249930 0.181836
C25   C     C_R   0.761207 0.745775 0.172210 -0.098868
C26   C     C_3   0.856508 0.441968 0.216119 -0.182887
C27   C     C_3   0.822303 0.421363 0.301803 0.375459
C28   C     C_R   0.725332 0.610067 0.304549 -0.013195
C29   C     C_R   0.300250 0.112065 0.170558 0.031656
C30   C     C_R   0.273998 0.222463 0.183252 -0.003007
C31   C     C_R   0.289868 0.255737 0.259275 -0.021530
C32   C     C_R   0.384479 0.088822 0.309915 -0.071814
C33   C     C_R   0.365798 0.052474 0.232789 -0.101867
C34   C     C_3   0.142698 0.242701 0.160081 -0.216394
C35   C     C_3   0.155374 0.271810 0.245272 0.068000
C36   C     C_R   0.336336 0.183396 0.323571 0.056350
O14   O     O_R   0.163320 0.092900 0.874450 -0.387812
O15   O     O_R   0.934650 0.822080 0.882840 -0.480368
C37   C     C_R   0.892111 0.702479 0.855642 0.552928
O16   O     O_R   0.915520 0.604140 0.893670 -0.509333
O17   O     O_R   0.191760 0.638110 0.923230 -0.450025
C38   C     C_R   0.284433 0.750712 0.882914 0.545249
O18   O     O_R   0.406180 0.826930 0.920660 -0.439706
O19   O     O_R   0.358620 0.062870 0.901950 -0.479396
C39   C     C_R   0.252441 0.057722 0.851517 0.524769
O20   O     O_R   0.163910 0.085460 0.050210 -0.486241
O21   O     O_R   0.935200 0.815170 0.045770 -0.508885
C40   C     C_R   0.882895 0.688825 0.082055 0.558826
O22   O     O_R   0.916120 0.596690 0.069430 -0.514719
O23   O     O_R   0.192310 0.631200 0.086170 -0.517626
C41   C     C_R   0.312002 0.701240 0.124125 0.548460
O24   O     O_R   0.406770 0.819480 0.096420 -0.462174
O25   O     O_R   0.359170 0.055960 0.064880 -0.480081
C42   C     C_R   0.256039 0.054697 0.095604 0.544124
Cr4   Cr    Cr6+3 0.052530 0.947560 0.964210 1.134603
Cr5   Cr    Cr6+3 0.059970 0.626800 0.992920 1.063940
Cr6   Cr    Cr6+3 0.373320 0.938440 0.995370 1.117945
O26   O     O_3   0.161940 0.837600 0.984160 -0.359282
H2    H     H_    0.505141 0.905205 0.647985 0.196147
H3    H     H_    0.807410 0.344875 0.184239 0.180760
N1    N     N_R   0.734234 0.271492 0.332433 0.091627
O27   O     O_R   0.696161 0.167619 0.289282 -0.291904
O28   O     O_R   0.705395 0.239574 0.406445 -0.256650
N2    N     N_R   0.951659 0.495944 0.355090 0.101265
O29   O     O_R   0.997806 0.423440 0.410044 -0.201705
O30   O     O_R   0.029414 0.633820 0.342782 -0.364098
H4    H     H_    0.428384 0.038005 0.358779 0.183505
H5    H     H_    0.393375 0.971579 0.222749 0.172867
H6    H     H_    0.045135 0.144147 0.143616 0.191458
H7    H     H_    0.163233 0.338624 0.116480 0.147007
H8    H     H_    0.171538 0.380107 0.251627 0.110944
N3    N     N_R   0.041339 0.156963 0.289806 0.117473
O31   O     O_R   0.974935 0.188342 0.334616 -0.204780
O32   O     O_R   0.020220 0.025675 0.293918 -0.299732
N4    N     N_R   0.529813 0.959488 0.791527 0.093614
O33   O     O_R   0.570659 0.090316 0.759098 -0.314653
O34   O     O_R   0.624803 0.928765 0.835998 -0.253106
N5    N     N_R   0.117244 0.403775 0.848073 0.129764
O35   O     O_R   0.251517 0.437156 0.868460 -0.248533
O36   O     O_R   0.021416 0.306383 0.892981 -0.282936
N6    N     N_R   0.165793 0.357058 0.706518 0.125120
O37   O     O_R   0.303595 0.408622 0.723400 -0.337478
O38   O     O_R   0.086004 0.219284 0.712815 -0.271445
N7    N     N_R   0.970698 0.403227 0.640288 0.065143
O39   O     O_R   0.855111 0.287398 0.658304 -0.241000
O40   O     O_R   0.980155 0.462811 0.567054 -0.261200
N8    N     N_R   0.690027 0.834769 0.269735 0.089796
O41   O     O_R   0.757897 0.906999 0.330142 -0.161313
O42   O     O_R   0.626258 0.890196 0.214558 -0.327053
H9    H     H_    0.774685 0.841547 0.133143 0.177025
H10   H     H_    0.972161 0.510360 0.208428 0.149214

loop_
_geom_bond_atom_site_label_1
_geom_bond_atom_site_label_2
_geom_bond_distance
_ccdc_geom_bond_type
O15   C37   1.280158 A    
N7    O39   1.301452 A    
C24   C25   1.406675 A    
N5    O35   1.302382 A    
N8    O42   1.299545 A    
N2    O29   1.300424 A    
O4    Cr2   1.939433 S    
C7    C38   1.460712 S    
O8    Cr1   1.943520 S    
C10   C11   1.394935 A    
O11   Cr3   2.058241 S    
C13   N6    1.460760 S    
C12   N5    1.469016 S    
C32   H4    1.083092 S    
C12   C13   1.540820 S    
C21   C25   1.393928 A    
C31   C35   1.501257 S    
C21   C22   1.395558 A    
N1    O28   1.300183 A    
C5    O11   1.262297 A    
C20   C41   1.399169 S    
C37   O16   1.247015 A    
C17   C18   1.206187 T    
O16   Cr5   2.061503 S    
C3    C15   1.418813 S    
C41   O24   1.258534 A    
O25   Cr6   1.937329 S    
C10   H2    1.083915 S    
C7    C8    1.403926 A    
O25   C42   1.286793 A    
O23   Cr5   1.941565 S    
C7    C11   1.428335 A    
N3    O32   1.302668 A    
C8    C12   1.508017 S    
C25   H9    1.083794 S    
O15   Cr4   1.944096 S    
C33   H5    1.082233 S    
C16   C37   1.416922 S    
C38   O18   1.292265 A    
N7    O40   1.300771 A    
Cr3   O13   1.973791 S    
Cr5   O26   1.974029 S    
C35   N3    1.460318 S    
C23   C28   1.403035 A    
Cr4   O26   1.973949 S    
C34   H6    1.112590 S    
N8    O41   1.297508 A    
N2    O30   1.302454 A    
O6    Cr3   1.940701 S    
C9    C13   1.501135 S    
C31   C36   1.396760 A    
O1    Cr1   2.063470 S    
Cr6   O26   1.976792 S    
C34   C35   1.511129 S    
O10   Cr2   1.932988 S    
O24   Cr6   2.052907 S    
Cr1   O13   1.973839 S    
O1    C3    1.275054 A    
C8    C9    1.376347 A    
C27   N2    1.471357 S    
C34   H7    1.111634 S    
C22   C23   1.370982 A    
N1    O27   1.301413 A    
O6    C3    1.255026 A    
C30   C34   1.498088 S    
O14   C39   1.306755 A    
C1    C17   1.431496 S    
O17   C38   1.308275 A    
O5    Cr3   2.053094 S    
O22   Cr5   2.050347 S    
O12   Cr3   1.933155 S    
O23   C41   1.265458 A    
C26   C27   1.520618 S    
C30   C31   1.367668 A    
C21   C40   1.446864 S    
C35   H8    1.108458 S    
O7    Cr1   2.049407 S    
N4    O34   1.301703 A    
O12   C6    1.291785 A    
C13   N7    1.461495 S    
C11   N4    1.436038 S    
C4    O9    1.258678 A    
C29   C42   1.426465 S    
C2    C14   1.459945 S    
O20   C42   1.284339 A    
C32   C33   1.393619 A    
N6    O38   1.300770 A    
C1    O3    1.255395 A    
C6    C28   1.460140 S    
C5    C19   1.398852 S    
C9    C14   1.394218 A    
C29   C30   1.391906 A    
C19   C20   1.186149 T    
O9    Cr2   2.057786 S    
O2    Cr1   1.931775 S    
C12   H1    1.112452 S    
C4    C36   1.423292 S    
Cr2   O13   1.976671 S    
C22   C26   1.497980 S    
O8    C4    1.267927 A    
N5    O36   1.300523 A    
C10   C14   1.408355 A    
C2    O5    1.261706 A    
O19   Cr6   1.934097 S    
C26   H3    1.109771 S    
C29   C33   1.406601 A    
C24   N8    1.445685 S    
C15   C16   1.197665 T    
C27   N1    1.473360 S    
O2    C1    1.284413 A    
C40   O22   1.252784 A    
O21   C40   1.278106 A    
O4    C2    1.279831 A    
O7    C6    1.306684 A    
C32   C36   1.396696 A    
O18   Cr6   2.056202 S    
N4    O33   1.300230 A    
C18   C39   1.433977 S    
C26   H10   1.112699 S    
O21   Cr4   1.930735 S    
O19   C39   1.292325 A    
O3    Cr2   2.051197 S    
C23   C27   1.517511 S    
O14   Cr4   2.049592 S    
O20   Cr4   2.061825 S    
N6    O37   1.302317 A    
C24   C28   1.444913 A    
O10   C5    1.260883 A    
N3    O31   1.299063 A    
O17   Cr5   1.933697 S    
