data_mof_unit_67216.cif
_audit_creation_date              2013-03-05T16:01:24-0500
_audit_creation_method            fapswitch 2.2
_symmetry_space_group_name_H-M    P1
_symmetry_Int_Tables_number       1
_space_group_crystal_system       triclinic
_cell_length_a                    20.186175
_cell_length_b                    20.035238
_cell_length_c                    8.442163
_cell_angle_alpha                 90.0
_cell_angle_beta                  91.919468
_cell_angle_gamma                 89.964917
_cell_volume                      3412.38824549

loop_
_atom_site_label
_atom_site_type_symbol
_atom_site_description
_atom_site_fract_x
_atom_site_fract_y
_atom_site_fract_z
_atom_type_partial_charge
P1    P     P_3+3 0.136530 0.426510 0.931350 0.478080
P2    P     P_3+3 0.136530 0.573490 0.431350 0.475542
P3    P     P_3+3 0.636530 0.926510 0.931350 0.470514
P4    P     P_3+3 0.636530 0.073490 0.431350 0.477107
O1    O     O_2   0.130070 0.404060 0.104920 -0.353910
O2    O     O_2   0.130070 0.595940 0.604920 -0.358767
O3    O     O_2   0.630070 0.904060 0.104920 -0.368198
O4    O     O_2   0.630070 0.095940 0.604920 -0.362513
O5    O     O_3   0.075780 0.466370 0.861070 -0.416774
O6    O     O_3   0.075780 0.533630 0.361070 -0.412020
O7    O     O_3   0.575780 0.966370 0.861070 -0.412005
O8    O     O_3   0.575780 0.033630 0.361070 -0.407144
O9    O     O_3   0.022320 0.344950 0.359800 -0.395193
O10   O     O_3   0.022320 0.655050 0.859800 -0.398830
O11   O     O_3   0.522320 0.844950 0.359800 -0.402579
O12   O     O_3   0.522320 0.155050 0.859800 -0.395206
O13   O     O_2   0.138081 0.298682 0.264546 -0.327033
O14   O     O_2   0.138659 0.700929 0.768637 -0.324372
O15   O     O_2   0.629632 0.790979 0.236866 -0.334655
O16   O     O_2   0.637489 0.202802 0.766393 -0.313707
O17   O     O_3   0.204820 0.480268 0.943166 -0.546012
O18   O     O_3   0.205939 0.521015 0.440058 -0.552910
O19   O     O_3   0.705548 0.979462 0.941625 -0.551011
O20   O     O_3   0.706710 0.022168 0.437611 -0.553919
O21   O     O_3   0.052675 0.206028 0.329596 -0.445877
O22   O     O_3   0.052632 0.793958 0.827534 -0.443188
O23   O     O_3   0.546242 0.706207 0.352949 -0.457922
O24   O     O_3   0.549928 0.294166 0.830307 -0.459251
H1    H     H_    0.956148 0.239179 0.290884 0.157187
H2    H     H_    0.956185 0.760833 0.788377 0.152518
H3    H     H_    0.449533 0.740102 0.323410 0.137667
H4    H     H_    0.454261 0.258766 0.790669 0.164111
C1    C     C_3   0.958810 0.133665 0.334968 -0.652035
C2    C     C_3   0.958902 0.866695 0.827706 -0.641081
C3    C     C_3   0.451952 0.640510 0.417427 -0.771055
C4    C     C_3   0.454124 0.364175 0.834927 -0.650260
H5    H     H_    0.967048 0.118827 0.210851 0.265286
H6    H     H_    0.968516 0.880882 0.703877 0.262155
H7    H     H_    0.401323 0.643173 0.464521 0.209514
H8    H     H_    0.462410 0.379388 0.711071 0.271716
H9    H     H_    0.984554 0.097236 0.414591 0.264061
H10   H     H_    0.983773 0.903561 0.907629 0.266043
H11   H     H_    0.448861 0.617396 0.298183 0.283077
H12   H     H_    0.478564 0.401081 0.915446 0.260247
P5    P     P_3+3 0.863410 0.426100 0.379280 0.469614
P6    P     P_3+3 0.863410 0.573900 0.879280 0.446951
P7    P     P_3+3 0.363410 0.926100 0.379280 0.462087
P8    P     P_3+3 0.363410 0.073900 0.879280 0.463064
P9    P     P_3+3 0.917468 0.281605 0.927488 0.492432
P10   P     P_3+3 0.916011 0.716835 0.428257 0.516217
P11   P     P_3+3 0.416446 0.782598 0.929557 0.496834
P12   P     P_3+3 0.415538 0.216499 0.429501 0.493611
O25   O     O_2   0.869860 0.403670 0.205810 -0.396689
O26   O     O_2   0.869860 0.596330 0.705810 -0.359674
O27   O     O_2   0.369860 0.903670 0.205810 -0.366789
O28   O     O_2   0.369860 0.096330 0.705810 -0.369605
O29   O     O_3   0.977590 0.344880 0.951200 -0.332648
O30   O     O_3   0.977590 0.655120 0.451200 -0.320287
O31   O     O_3   0.477590 0.844880 0.951200 -0.322248
O32   O     O_3   0.477590 0.155120 0.451200 -0.318902
O33   O     O_2   0.866226 0.293886 0.056308 -0.391920
O34   O     O_2   0.865568 0.704279 0.558098 -0.390497
O35   O     O_2   0.363500 0.799747 0.050604 -0.398647
O36   O     O_2   0.365039 0.203491 0.559164 -0.409145
O37   O     O_3   0.798148 0.482711 0.348431 -0.558058
O38   O     O_3   0.791140 0.526771 0.848803 -0.638661
O39   O     O_3   0.297431 0.981684 0.346506 -0.615589
O40   O     O_3   0.297556 0.018250 0.846386 -0.615408
O41   O     O_3   0.949738 0.202780 0.980676 -0.549934
O42   O     O_3   0.947370 0.796467 0.477585 -0.559674
O43   O     O_3   0.446795 0.705703 0.002519 -0.539237
O44   O     O_3   0.446486 0.296060 0.480623 -0.551943
C5    C     C_3   0.001066 0.183286 0.880794 0.597799
C6    C     C_3   0.999465 0.814971 0.378698 0.593533
C7    C     C_3   0.477302 0.668710 0.882593 0.554774
C8    C     C_3   0.498141 0.315503 0.381559 0.579216
H13   H     H_    0.997379 0.208720 0.763686 -0.113269
H14   H     H_    0.996840 0.788016 0.263375 -0.117712
H15   H     H_    0.447214 0.669935 0.769932 -0.011277
H16   H     H_    0.495158 0.289487 0.265074 -0.103248
C9    C     C_3   0.996618 0.106838 0.851471 -0.152886
C10   C     C_3   0.994915 0.891020 0.343476 -0.153647
C11   C     C_3   0.483617 0.594853 0.936252 -0.111448
C12   C     C_3   0.493154 0.391746 0.350175 -0.114120
H17   H     H_    0.010120 0.080645 0.964261 0.182971
H18   H     H_    0.007620 0.918737 0.454633 0.180766
H19   H     H_    0.505699 0.594224 0.058732 0.142497
H20   H     H_    0.506376 0.418527 0.462349 0.179214
C13   C     C_3   0.780127 0.482954 0.972765 0.325696
C14   C     C_3   0.767435 0.497961 0.490339 0.342652
C15   C     C_3   0.269508 0.998069 0.987295 0.269153
C16   C     C_3   0.269383 0.001636 0.487598 0.270688
H21   H     H_    0.812161 0.494102 0.077281 0.149134
H22   H     H_    0.803117 0.494919 0.591536 0.113010
H23   H     H_    0.307886 0.994847 0.081722 0.146582
H24   H     H_    0.307729 0.004494 0.582180 0.145482
C17   C     C_3   0.708093 0.489759 0.021653 -0.770287
C18   C     C_3   0.709386 0.450786 0.516611 -0.916875
C19   C     C_3   0.214972 0.046670 0.034994 -0.660343
C20   C     C_3   0.214725 0.953060 0.534434 -0.661959
H25   H     H_    0.673512 0.480378 0.918984 0.246439
H26   H     H_    0.677146 0.447567 0.407704 0.275413
H27   H     H_    0.181268 0.057045 0.931237 0.270126
H28   H     H_    0.180904 0.943124 0.430645 0.270970
H29   H     H_    0.697445 0.453560 0.117076 0.223231
H30   H     H_    0.679277 0.468459 0.616160 0.249952
H31   H     H_    0.185838 0.025173 0.131969 0.270949
H32   H     H_    0.185717 0.974321 0.631943 0.271074
H33   H     H_    0.699321 0.541003 0.066652 0.256993
H34   H     H_    0.727556 0.400500 0.549133 0.273738
H35   H     H_    0.236455 0.093999 0.080000 0.199294
H36   H     H_    0.236153 0.905479 0.578273 0.200251
Ba1   Ba    Ba6+2 0.999980 0.452130 0.155200 1.601047
Ba2   Ba    Ba6+2 0.999980 0.547870 0.655200 1.599313
Ba3   Ba    Ba6+2 0.499980 0.952130 0.155200 1.596374
Ba4   Ba    Ba6+2 0.499980 0.047870 0.655200 1.592524
C21   C     C_3   0.184265 0.543425 0.992655 0.398248
C22   C     C_3   0.188024 0.457998 0.495414 0.393601
C23   C     C_3   0.686857 0.042778 0.993699 0.391177
C24   C     C_3   0.691321 0.960012 0.501242 0.382682
H37   H     H_    0.161797 0.539678 0.110010 0.082167
H38   H     H_    0.169280 0.462414 0.616560 0.082576
H39   H     H_    0.666841 0.039059 0.113690 0.087810
H40   H     H_    0.673308 0.966296 0.622634 0.094456
H41   H     H_    0.148320 0.565726 0.905413 0.128983
H42   H     H_    0.149971 0.434534 0.415278 0.122915
H43   H     H_    0.649516 0.065668 0.910704 0.124483
H44   H     H_    0.653603 0.933869 0.425037 0.106480
C25   C     C_3   0.244489 0.588712 0.005472 -0.850869
C26   C     C_3   0.249333 0.413771 0.499748 -0.847161
C27   C     C_3   0.748025 0.087172 0.999946 -0.850429
C28   C     C_3   0.754399 0.918351 0.508529 -0.851132
H45   H     H_    0.279190 0.570295 0.100226 0.300012
H46   H     H_    0.287905 0.435260 0.581617 0.294665
H47   H     H_    0.785626 0.066657 0.085859 0.292366
H48   H     H_    0.793423 0.944400 0.580849 0.301389
H49   H     H_    0.230090 0.640310 0.034434 0.187870
H50   H     H_    0.237194 0.362982 0.541017 0.186720
H51   H     H_    0.735091 0.138395 0.036952 0.192265
H52   H     H_    0.745454 0.869170 0.562843 0.176741
H53   H     H_    0.269123 0.589932 0.890264 0.284007
H54   H     H_    0.269002 0.409820 0.378876 0.281214
H55   H     H_    0.769401 0.089804 0.880637 0.278357
H56   H     H_    0.772019 0.910312 0.386835 0.276491
O45   O     O_3   0.924190 0.533610 0.949240 -0.400537
O46   O     O_3   0.924190 0.466390 0.449240 -0.361664
O47   O     O_3   0.424190 0.033610 0.949240 -0.365006
O48   O     O_3   0.424190 0.966390 0.449240 -0.365600
P13   P     P_3+3 0.083834 0.716017 0.886867 0.512353
P14   P     P_3+3 0.084217 0.284241 0.385473 0.515625
P15   P     P_3+3 0.583102 0.216640 0.886645 0.520061
P16   P     P_3+3 0.584149 0.784242 0.379528 0.529185
C29   C     C_3   0.985322 0.203669 0.366524 0.364113
C30   C     C_3   0.985149 0.796837 0.863005 0.362394
C31   C     C_3   0.481168 0.710256 0.407347 0.421789
C32   C     C_3   0.482436 0.294896 0.866635 0.342716
H57   H     H_    0.978248 0.215823 0.493231 0.017087
H58   H     H_    0.977616 0.785710 0.990086 0.014309
H59   H     H_    0.480087 0.733160 0.527285 0.042735
H60   H     H_    0.475435 0.282505 0.993285 0.024050
H61   H     H_    0.904765 0.132250 0.355355 0.222823
H62   H     H_    0.904603 0.868287 0.844618 0.221345
H63   H     H_    0.483445 0.608892 0.497367 0.288332
H64   H     H_    0.399971 0.364139 0.854251 0.225224
C33   C     C_R   0.242756 0.306862 0.002407 -0.072442
C34   C     C_R   0.243622 0.692222 0.500862 -0.098531
C35   C     C_R   0.742397 0.806697 0.002485 -0.081425
C36   C     C_R   0.742797 0.192906 0.501220 -0.082154
C37   C     C_R   0.152044 0.348668 0.820189 0.294627
C38   C     C_R   0.150996 0.652030 0.321978 0.300997
C39   C     C_R   0.652576 0.848996 0.818163 0.284172
C40   C     C_R   0.650858 0.152043 0.321342 0.303143
C41   C     C_R   0.112488 0.338273 0.683447 -0.470380
C42   C     C_R   0.110612 0.663167 0.186833 -0.468860
C43   C     C_R   0.615829 0.840445 0.676008 -0.476152
C44   C     C_R   0.611211 0.162519 0.184754 -0.471864
C45   C     C_R   0.124768 0.285263 0.582587 0.195302
C46   C     C_R   0.122957 0.716100 0.085769 0.186160
C47   C     C_R   0.632126 0.790791 0.568351 0.255503
C48   C     C_R   0.622659 0.216209 0.085171 0.184616
C49   C     C_R   0.173290 0.238211 0.623718 -0.304043
C50   C     C_R   0.171698 0.762953 0.126722 -0.300846
C51   C     C_R   0.682626 0.745294 0.607522 -0.178629
C52   C     C_R   0.669966 0.264231 0.128327 -0.289504
C53   C     C_R   0.211193 0.244486 0.765358 0.094965
C54   C     C_R   0.210289 0.756095 0.267257 0.096816
C55   C     C_R   0.716468 0.748624 0.755898 0.082609
C56   C     C_R   0.709357 0.256802 0.267582 0.103306
C57   C     C_R   0.202440 0.301139 0.863427 0.014096
C58   C     C_R   0.201954 0.699076 0.364311 0.024264
C59   C     C_R   0.703887 0.802359 0.860158 0.007473
C60   C     C_R   0.701378 0.199518 0.364185 0.014550
H65   H     H_    0.074763 0.374378 0.649129 0.156929
H66   H     H_    0.072674 0.627283 0.152847 0.156282
H67   H     H_    0.576425 0.875120 0.644459 0.155249
H68   H     H_    0.574070 0.126003 0.149514 0.157515
C61   C     C_R   0.800364 0.702180 0.943233 -0.034492
C62   C     C_R   0.798941 0.298721 0.445156 -0.034705
C63   C     C_R   0.298604 0.200836 0.946272 -0.035784
C64   C     C_R   0.299249 0.798477 0.445737 -0.021893
C65   C     C_R   0.789165 0.757019 0.045514 0.059347
C66   C     C_R   0.789694 0.242364 0.544239 0.065942
C67   C     C_R   0.288812 0.256717 0.046428 0.065128
C68   C     C_R   0.290527 0.741705 0.543955 0.083209
C69   C     C_R   0.849011 0.653103 0.988789 0.238710
C70   C     C_R   0.848388 0.346996 0.489569 0.204021
C71   C     C_R   0.347514 0.152108 0.991298 0.198766
C72   C     C_R   0.348112 0.847243 0.490790 0.187871
C73   C     C_R   0.884572 0.660555 0.132706 -0.417221
C74   C     C_R   0.886505 0.337374 0.629349 -0.487420
C75   C     C_R   0.383601 0.159904 0.134436 -0.465180
C76   C     C_R   0.384899 0.838688 0.632946 -0.443234
C77   C     C_R   0.871537 0.713131 0.234986 0.253275
C78   C     C_R   0.873974 0.284436 0.731557 0.221059
C79   C     C_R   0.371106 0.212864 0.236052 0.210554
C80   C     C_R   0.373920 0.784497 0.732579 0.190936
C81   C     C_R   0.823790 0.760885 0.192430 -0.185327
C82   C     C_R   0.826038 0.236960 0.688773 -0.144467
C83   C     C_R   0.323945 0.261034 0.192592 -0.204972
C84   C     C_R   0.327378 0.735885 0.687683 -0.301507
C85   C     C_R   0.762684 0.698749 0.800076 -0.094267
C86   C     C_R   0.757393 0.305432 0.308445 -0.106512
C87   C     C_R   0.258289 0.195164 0.807586 -0.097316
C88   C     C_R   0.257930 0.804975 0.308804 -0.105144
H69   H     H_    0.182596 0.197935 0.542727 0.194836
H70   H     H_    0.181037 0.803196 0.045723 0.196402
H71   H     H_    0.693677 0.706140 0.524289 0.165233
H72   H     H_    0.676936 0.306406 0.050989 0.208270
H73   H     H_    0.813695 0.800966 0.274311 0.160162
H74   H     H_    0.816446 0.196409 0.769640 0.163749
H75   H     H_    0.314341 0.301513 0.273691 0.172675
H76   H     H_    0.319145 0.694229 0.766426 0.166818
H77   H     H_    0.920921 0.623381 0.169091 0.168730
H78   H     H_    0.923740 0.373843 0.664246 0.167501
H79   H     H_    0.420015 0.122768 0.170637 0.177713
H80   H     H_    0.420658 0.876246 0.670148 0.175508
H81   H     H_    0.238413 0.349685 0.079094 0.169379
H82   H     H_    0.239632 0.649017 0.576510 0.166777
H83   H     H_    0.736318 0.848155 0.082377 0.167955
H84   H     H_    0.738782 0.149793 0.577114 0.165951
H85   H     H_    0.768695 0.657400 0.721275 0.160805
H86   H     H_    0.761184 0.348807 0.233386 0.162760
H87   H     H_    0.262133 0.151951 0.732347 0.148777
H88   H     H_    0.261399 0.848537 0.234496 0.149253
C89   C     C_2   0.044446 0.084419 0.728815 0.569813
H89   H     H_    0.069564 0.120599 0.656228 0.020620
O49   O     O_2   0.054471 0.025014 0.708067 -0.517016
C90   C     C_2   0.043490 0.911847 0.221060 0.576033
H90   H     H_    0.067732 0.874845 0.148994 0.018069
O50   O     O_2   0.054901 0.970919 0.199441 -0.518461
C91   C     C_2   0.529883 0.554708 0.835724 0.577804
H91   H     H_    0.583057 0.561040 0.852903 0.039100
O51   O     O_2   0.508923 0.515444 0.735217 -0.543973
C92   C     C_2   0.540853 0.413810 0.226976 0.540863
H92   H     H_    0.563983 0.377628 0.150601 -0.014404
O52   O     O_2   0.552788 0.473026 0.209643 -0.567046
N1    N     N_R   0.064636 0.200870 0.958542 0.212492
O53   O     O_R   0.075203 0.262222 0.999746 -0.321294
O54   O     O_R   0.107834 0.155923 0.003359 -0.439088
N2    N     N_R   0.062692 0.798782 0.460278 0.212902
O55   O     O_R   0.073967 0.737932 0.504791 -0.319855
O56   O     O_R   0.105407 0.844540 0.502635 -0.435887
N3    N     N_R   0.542896 0.695797 0.855127 0.185579
O57   O     O_R   0.570377 0.681709 0.722440 -0.512628
O58   O     O_R   0.580007 0.716127 0.974365 -0.338711
N4    N     N_R   0.561675 0.298984 0.461138 0.214265
O59   O     O_R   0.573480 0.237817 0.502082 -0.319522
O60   O     O_R   0.604118 0.344641 0.505622 -0.435547
N5    N     N_R   0.929339 0.086957 0.802531 0.266717
O61   O     O_R   0.902960 0.107452 0.668617 -0.450004
O62   O     O_R   0.897413 0.044154 0.887126 -0.343223
N6    N     N_R   0.927956 0.910331 0.290549 0.267513
O63   O     O_R   0.901901 0.886867 0.159170 -0.449067
O64   O     O_R   0.896647 0.956428 0.366672 -0.345649
N7    N     N_R   0.418373 0.563197 0.937181 0.264924
O65   O     O_R   0.382663 0.557512 0.806582 -0.382225
O66   O     O_R   0.398711 0.534536 0.065488 -0.324772
N8    N     N_R   0.425821 0.411080 0.300705 0.276162
O67   O     O_R   0.399261 0.389097 0.168401 -0.431611
O68   O     O_R   0.394180 0.455114 0.382499 -0.321399
C93   C     C_2   0.795212 0.414716 0.912338 0.567168
H93   H     H_    0.846132 0.403684 0.887783 0.028789
O69   O     O_2   0.752109 0.373250 0.884507 -0.615232
C94   C     C_2   0.740971 0.567988 0.479728 0.628833
H94   H     H_    0.707334 0.585603 0.568133 -0.025293
O70   O     O_2   0.755785 0.605118 0.371728 -0.590807
C95   C     C_2   0.241762 0.929290 0.958639 0.501209
H95   H     H_    0.275477 0.887855 0.943366 0.032922
O71   O     O_2   0.182073 0.919463 0.946303 -0.565623
C96   C     C_2   0.241908 0.070626 0.460001 0.504592
H96   H     H_    0.275816 0.111966 0.445618 0.023065
O72   O     O_2   0.182257 0.080775 0.447874 -0.569333

loop_
_geom_bond_atom_site_label_1
_geom_bond_atom_site_label_2
_geom_bond_distance
_ccdc_geom_bond_type
P11   C80   1.846076 S    
C28   H56   1.110108 S    
P6    C69   1.864054 S    
C75   C79   1.392679 A    
O27   Ba3   2.846518 S    
P1    O17   1.750115 S    
P5    C70   1.868198 S    
C18   H34   1.103516 S    
N8    O68   1.300759 A    
C8    N4    1.465435 S    
P8    C71   1.863386 S    
C62   C70   1.431240 A    
C11   H19   1.112254 S    
N7    O65   1.301937 A    
C2    H10   1.109337 S    
P3    O7    1.563232 S    
C20   H28   1.110652 S    
O44   C8    1.413265 S    
C7    C11   1.551462 S    
C8    C12   1.552991 S    
C86   H86   1.079771 S    
O9    Ba1   2.782926 S    
N3    O57   1.297535 A    
C36   H84   1.080160 S    
C85   H85   1.071870 S    
O24   P15   1.750593 S    
C40   C60   1.432498 A    
P7    Ba3   3.435374 S    
C44   C48   1.389471 A    
C90   O50   1.220752 D    
C35   C59   1.411764 A    
C16   C20   1.533439 S    
O23   P16   1.752209 S    
C63   C87   1.407924 A    
P11   O43   1.761186 S    
P7    C72   1.870237 S    
C68   C84   1.406645 A    
C61   C69   1.432684 A    
P1    O1    1.542501 D    
O5    Ba2   2.801233 S    
H1    C29   1.111325 S    
C94   H94   1.084552 S    
N7    O66   1.299865 A    
C3    C31   1.520553 S    
O9    P14   1.751457 S    
P6    O38   1.750022 S    
P3    O3    1.542501 D    
C50   C54   1.404024 A    
P4    O20   1.749351 S    
C5    N1    1.464838 S    
C91   O51   1.222355 D    
P6    O45   1.567161 S    
C25   H53   1.107364 S    
Ba1   O45   2.801349 S    
Ba3   Ba4   4.636476 S    
P8    O47   1.567161 S    
Ba3   O47   2.801349 S    
C16   H24   1.094834 S    
O40   C15   1.394465 S    
P9    O29   1.762314 S    
C62   C86   1.410168 A    
C10   N6    1.461244 S    
N1    O53   1.293361 A    
C22   H38   1.105827 S    
O3    Ba3   2.841704 S    
P5    Ba1   3.435374 S    
C21   H37   1.105914 S    
C82   H74   1.082907 S    
O17   C21   1.399597 S    
P12   O32   1.759994 S    
C15   C19   1.533165 S    
C81   H73   1.083267 S    
H4    C32   1.111225 S    
P5    O37   1.750703 S    
P3    O19   1.751507 S    
O26   Ba2   2.845424 S    
O2    Ba2   2.842793 S    
O13   P14   1.543669 D    
C87   H87   1.078091 S    
N6    O63   1.299608 A    
C18   H26   1.110403 S    
C12   N8    1.460538 S    
O42   C6    1.414036 S    
C92   O52   1.220551 D    
C95   O71   1.221980 D    
O41   C5    1.412506 S    
C18   H30   1.111326 S    
C37   C57   1.431394 A    
C56   C86   1.409710 A    
P4    O8    1.563996 S    
O14   P13   1.544670 D    
C3    H11   1.107962 S    
C9    N5    1.461807 S    
C42   C46   1.389004 A    
C55   C59   1.418768 A    
P11   O35   1.541855 D    
P4    O4    1.542453 D    
P8    Ba4   3.434862 S    
O8    Ba3   2.802327 S    
O1    Ba1   2.841704 S    
C21   C25   1.518347 S    
C35   H83   1.079503 S    
C20   H32   1.110841 S    
P5    O25   1.541511 D    
C64   C72   1.431154 A    
C26   H46   1.110704 S    
P9    O41   1.760447 S    
C89   H89   1.085962 S    
C74   C78   1.395848 A    
C71   C75   1.398720 A    
C33   H81   1.080110 S    
P2    O2    1.542453 D    
P1    Ba1   3.432176 S    
C67   C83   1.405185 A    
C6    C10   1.554473 S    
C11   N7    1.462398 S    
C79   C83   1.395631 A    
O12   Ba4   2.783352 S    
C5    C9    1.553703 S    
O11   P16   1.746164 S    
C76   H80   1.082305 S    
O25   Ba1   2.846518 S    
C14   H22   1.100504 S    
O38   C13   1.389631 S    
C47   C51   1.398479 A    
P13   C46   1.831526 S    
C2    C30   1.522171 S    
P11   O31   1.760869 S    
O23   C31   1.408295 S    
O37   C14   1.400885 S    
C7    N3    1.457031 S    
O20   C24   1.395537 S    
P9    O33   1.545382 D    
P6    Ba2   3.434862 S    
C31   H59   1.112534 S    
P5    O46   1.567935 S    
P10   O30   1.758837 S    
C76   C80   1.395775 A    
C34   H82   1.080349 S    
C4    H8    1.107236 S    
P1    O5    1.563232 S    
N3    O58   1.300104 A    
Ba2   O46   2.802443 S    
N2    O56   1.300818 A    
C19   H27   1.110517 S    
P12   O36   1.542840 D    
C51   H71   1.081270 S    
Ba4   O48   2.802443 S    
C77   C81   1.396098 A    
C50   H70   1.077970 S    
C43   C47   1.394106 A    
C55   C85   1.408360 A    
P10   C77   1.837297 S    
C49   H69   1.078122 S    
C93   H93   1.078122 S    
C10   H18   1.113014 S    
O21   C29   1.405841 S    
Ba3   O48   2.972896 S    
P12   C79   1.838154 S    
C73   C77   1.392573 A    
C52   C56   1.404886 A    
C84   H76   1.083344 S    
C13   C17   1.530774 S    
O21   P14   1.750593 S    
C34   C58   1.410729 A    
C2    H6    1.106761 S    
Ba1   O46   2.972896 S    
C54   C58   1.419211 A    
C3    H7    1.110214 S    
C4    H64   1.110628 S    
P2    O18   1.750750 S    
C92   H92   1.085805 S    
P12   O44   1.760861 S    
C35   C65   1.410578 A    
C9    C89   1.507499 S    
C64   C68   1.422088 A    
C17   H33   1.110870 S    
C70   C74   1.400244 A    
C27   H47   1.110771 S    
C23   C27   1.521668 S    
C95   H95   1.083589 S    
C36   C66   1.409994 A    
C69   C73   1.398376 A    
C28   H48   1.110841 S    
C19   H35   1.105023 S    
P6    O26   1.541557 D    
C63   C71   1.430406 A    
O15   P16   1.544642 D    
O28   Ba4   2.845424 S    
C39   C59   1.430319 A    
P7    O39   1.750447 S    
C34   C68   1.410606 A    
C14   C18   1.527864 S    
P8    O40   1.750571 S    
C61   C65   1.420089 A    
O7    Ba4   2.801233 S    
O18   C22   1.398260 S    
C46   C50   1.395387 A    
O6    Ba1   2.802327 S    
N4    O60   1.300475 A    
C53   C57   1.419348 A    
P2    C38   1.852712 S    
P14   C45   1.829847 S    
C25   H45   1.108540 S    
C62   C66   1.421340 A    
O31   Ba3   2.781467 S    
O43   C7    1.412368 S    
C20   H36   1.105262 S    
C6    N2    1.465973 S    
C33   C57   1.410045 A    
N5    O62   1.300890 A    
O22   C30   1.405666 S    
C78   C82   1.396170 A    
P10   O34   1.541663 D    
O11   Ba3   2.782926 S    
H3    C31   1.112070 S    
C4    H12   1.109135 S    
C73   H77   1.082444 S    
C93   O69   1.220516 D    
C52   H72   1.079992 S    
P2    O6    1.563996 S    
P1    C37   1.852054 S    
C27   H55   1.110236 S    
C90   H90   1.085672 S    
C4    C32   1.521071 S    
C96   O72   1.221962 D    
P7    O27   1.541511 D    
Ba1   Ba2   4.636476 S    
C38   C42   1.397674 A    
P8    O28   1.541557 D    
C54   C88   1.409075 A    
P7    O48   1.567935 S    
O24   C32   1.406556 S    
C49   C53   1.403504 A    
P4    C40   1.855156 S    
C11   C91   1.513789 S    
C24   C28   1.521582 S    
C13   C93   1.493988 S    
C17   H25   1.110634 S    
P4    Ba4   3.432678 S    
O22   P13   1.750354 S    
C88   H88   1.078512 S    
C8    H16   1.112842 S    
Ba2   O45   2.973076 S    
C83   H75   1.082941 S    
N2    O55   1.293552 A    
C2    H62   1.110520 S    
C13   H21   1.099320 S    
C63   C67   1.420712 A    
C14   C94   1.502574 S    
C22   C26   1.521114 S    
Ba4   O47   2.973076 S    
O29   Ba1   2.781467 S    
C24   H44   1.111584 S    
C15   C95   1.504328 S    
C42   H66   1.082415 S    
C94   O70   1.221745 D    
C32   H60   1.111288 S    
C23   H39   1.105623 S    
C91   H91   1.085817 S    
C28   H52   1.104335 S    
C19   H31   1.110918 S    
C12   C92   1.507270 S    
C38   C58   1.432096 A    
C61   C85   1.407953 A    
C36   C60   1.410681 A    
O16   P15   1.545015 D    
C10   C90   1.507316 S    
C56   C60   1.420307 A    
C1    H9    1.109391 S    
C66   C82   1.406670 A    
P16   C47   1.842006 S    
C89   O49   1.220764 D    
C33   C67   1.409777 A    
C17   H29   1.110367 S    
O32   Ba4   2.781040 S    
O10   Ba2   2.783352 S    
C41   H65   1.082438 S    
P2    Ba2   3.432678 S    
C37   C41   1.397151 A    
P3    C39   1.857408 S    
P15   C48   1.832203 S    
P10   O42   1.761586 S    
C12   H20   1.113183 S    
C39   C43   1.400122 A    
C64   C88   1.408631 A    
C45   C49   1.394545 A    
P9    C78   1.847349 S    
O10   P13   1.751858 S    
C72   C76   1.400437 A    
O39   C16   1.394288 S    
C75   H79   1.082409 S    
C1    H5    1.107055 S    
O12   P15   1.750054 S    
C1    C29   1.521800 S    
C74   H78   1.082334 S    
C29   H57   1.110899 S    
C24   H40   1.105986 S    
C26   H54   1.110078 S    
C3    H63   1.109784 S    
C53   C87   1.408398 A    
C27   H51   1.106410 S    
N4    O59   1.293140 A    
O4    Ba4   2.842793 S    
C65   C81   1.405281 A    
C21   H41   1.110125 S    
C48   C52   1.395766 A    
H2    C30   1.111284 S    
C25   H49   1.103344 S    
C15   H23   1.094712 S    
N6    O64   1.300728 A    
C6    H14   1.113058 S    
C16   C96   1.504264 S    
O30   Ba2   2.781040 S    
C30   H58   1.111205 S    
C5    H13   1.112506 S    
N8    O67   1.299675 A    
C96   H96   1.084220 S    
O19   C23   1.398340 S    
P3    Ba3   3.432176 S    
C22   H42   1.111020 S    
C1    H61   1.110512 S    
N1    O54   1.300535 A    
C41   C45   1.388625 A    
N5    O61   1.299862 A    
C80   C84   1.397206 A    
C7    H15   1.111467 S    
C43   H67   1.082323 S    
C44   H68   1.082385 S    
C9    H17   1.112996 S    
C51   C55   1.408157 A    
C40   C44   1.397208 A    
C23   H43   1.110675 S    
C26   H50   1.105844 S    
