data_mof_unit_11361.cif
_audit_creation_date              2012-12-10T18:42:29-0500
_audit_creation_method            fapswitch 2.2
_symmetry_space_group_name_H-M    P1
_symmetry_Int_Tables_number       1
_space_group_crystal_system       triclinic
_cell_length_a                    8.613622
_cell_length_b                    10.665824
_cell_length_c                    9.865379
_cell_angle_alpha                 89.669375
_cell_angle_beta                  98.071555
_cell_angle_gamma                 90.317534
_cell_volume                      897.342029876

loop_
_atom_site_label
_atom_site_type_symbol
_atom_type_description
_atom_site_fract_x
_atom_site_fract_y
_atom_site_fract_z
_atom_type_partial_charge
C1    C     C_R   0.499773 0.260057 0.500185 0.852044
C2    C     C_R   0.500227 0.739943 0.499815 0.852045
C3    C     C_R   0.201893 0.498235 0.465015 0.918099
C4    C     C_R   0.798107 0.501765 0.534985 0.918101
C5    C     C_2   0.039077 0.478218 0.450312 -0.026006
C6    C     C_2   0.960923 0.521781 0.549688 -0.026007
C7    C     C_R   0.430224 0.064629 0.383470 -0.194811
C8    C     C_R   0.569775 0.935370 0.616530 -0.194811
C9    C     C_R   0.430493 0.936102 0.383211 -0.208505
C10   C     C_R   0.569507 0.063898 0.616789 -0.208502
C11   C     C_R   0.500449 0.872359 0.499648 -0.002060
C12   C     C_R   0.499551 0.127641 0.500352 -0.002060
C13   C     C_R   0.609385 0.568057 0.084594 0.289715
C14   C     C_R   0.390615 0.431943 0.915406 0.289715
C15   C     C_R   0.609640 0.566774 0.940561 -0.208518
C16   C     C_R   0.390360 0.433226 0.059439 -0.208516
H1    H     H_    0.374644 0.114571 0.293716 0.146709
H2    H     H_    0.625355 0.885429 0.706284 0.146708
H3    H     H_    0.374534 0.886746 0.293572 0.144233
H4    H     H_    0.625465 0.113253 0.706428 0.144234
H5    H     H_    0.697141 0.619873 0.895656 0.145283
H6    H     H_    0.302860 0.380126 0.104344 0.145283
N1    N     N_R   0.499960 0.499970 0.857200 -0.098521
N2    N     N_R   0.500040 0.500030 0.142800 -0.098521
O1    O     O_R   0.499990 0.316750 0.614620 -0.608109
O2    O     O_R   0.500010 0.683250 0.385380 -0.608111
O3    O     O_R   0.499990 0.316780 0.385290 -0.619869
O4    O     O_R   0.500010 0.683220 0.614710 -0.619869
O5    O     O_R   0.271750 0.499990 0.587840 -0.564844
O6    O     O_R   0.728250 0.500010 0.412160 -0.564844
O7    O     O_R   0.271750 0.500010 0.358510 -0.649878
O8    O     O_R   0.728250 0.499990 0.641490 -0.649878
Zn1   Zn    Zn3+2 0.500000 0.499980 0.653120 0.961123
Zn2   Zn    Zn3+2 0.500000 0.500020 0.346880 0.961123
N3    N     N_2   0.969820 0.396151 0.343840 -0.296309
H7    H     H_    0.014000 0.406959 0.252531 0.224326
C17   C     C_3   0.963600 0.265848 0.384650 -0.775878
H8    H     H_    0.901261 0.210279 0.298708 0.240365
H9    H     H_    0.898815 0.255342 0.473858 0.234668
H10   H     H_    0.084231 0.228290 0.411569 0.222732
N4    N     N_2   0.030181 0.603847 0.656162 -0.296310
H11   H     H_    0.986001 0.593037 0.747470 0.224326
C18   C     C_3   0.036399 0.734150 0.615353 -0.775876
H12   H     H_    0.098738 0.789719 0.701296 0.240364
H13   H     H_    0.915768 0.771708 0.588435 0.222732
H14   H     H_    0.101185 0.744658 0.526146 0.234668
N5    N     N_2   0.724293 0.638681 0.169189 -0.254072
H15   H     H_    0.837010 0.611708 0.159580 0.204459
C19   C     C_3   0.705335 0.773081 0.156471 -0.779550
H16   H     H_    0.786090 0.819891 0.238658 0.239416
H17   H     H_    0.583320 0.800128 0.166874 0.255594
H18   H     H_    0.733383 0.806050 0.055582 0.208163
N6    N     N_2   0.275708 0.361318 0.830811 -0.254072
H19   H     H_    0.162990 0.388291 0.840416 0.204460
C20   C     C_3   0.294669 0.226918 0.843529 -0.779552
H20   H     H_    0.213926 0.180108 0.761334 0.239421
H21   H     H_    0.266606 0.193946 0.944412 0.208163
H22   H     H_    0.416687 0.199873 0.833140 0.255589

loop_
_geom_bond_atom_site_label_1
_geom_bond_atom_site_label_2
_ccdc_geom_bond_type
C14   N1    A    
C3    O7    A    
C20   H20   S    
C17   H8    S    
C8    H2    S    
C18   H13   S    
N4    H11   S    
C16   N2    A    
N6    C20   S    
N5    H15   S    
C13   C15   A    
C18   H12   S    
C19   H18   S    
O8    Zn1   S    
C3    C5    S    
C15   N1    A    
O7    Zn2   S    
C2    O2    A    
N6    H19   S    
C1    O1    A    
C9    C11   A    
C3    O5    A    
C4    O8    A    
C1    C12   S    
C10   C12   A    
C8    C11   A    
C5    C6    D    
C2    C11   S    
C5    N3    S    
C8    C10   A    
N3    C17   S    
C9    H3    S    
O4    Zn1   S    
C17   H10   S    
C7    C9    A    
C20   H21   S    
O3    Zn2   S    
C7    C12   A    
C17   H9    S    
C18   H14   S    
C14   C16   A    
C4    C6    S    
C2    O4    A    
O6    Zn2   S    
O5    Zn1   S    
C15   H5    S    
C14   N6    S    
N1    Zn1   S    
N5    C19   S    
C19   H16   S    
C20   H22   S    
O1    Zn1   S    
C1    O3    A    
C16   H6    S    
C7    H1    S    
C13   N5    S    
O2    Zn2   S    
C4    O6    A    
N4    C18   S    
N3    H7    S    
C13   N2    A    
C10   H4    S    
C19   H17   S    
C6    N4    S    
N2    Zn2   S    
