data_mof_unit_8593.cif
_audit_creation_date              2013-03-05T15:52:31-0500
_audit_creation_method            fapswitch 2.2
_symmetry_space_group_name_H-M    P1
_symmetry_Int_Tables_number       1
_space_group_crystal_system       triclinic
_cell_length_a                    6.977501
_cell_length_b                    20.479576
_cell_length_c                    24.44484
_cell_angle_alpha                 89.753721
_cell_angle_beta                  90.298591
_cell_angle_gamma                 89.512761
_cell_volume                      3492.86958713

loop_
_atom_site_label
_atom_site_type_symbol
_atom_site_description
_atom_site_fract_x
_atom_site_fract_y
_atom_site_fract_z
_atom_type_partial_charge
O1    O     O_R   0.507310 0.423620 0.460450 -0.594938
O2    O     O_R   0.170760 0.556060 0.437190 -0.587614
O3    O     O_R   0.004040 0.576380 0.539550 -0.581571
C1    C     C_R   0.338907 0.576019 0.421336 0.939033
O4    O     O_R   0.177350 0.422870 0.454070 -0.581804
O5    O     O_R   0.010680 0.442240 0.556560 -0.552637
C2    C     C_R   0.346384 0.398965 0.443606 1.059587
O6    O     O_R   0.500670 0.557760 0.443440 -0.605329
O7    O     O_3   0.340380 0.506510 0.533610 -0.244010
V1    V     V_3+5 0.064130 0.498790 0.493770 1.269163
O8    O     O_R   0.681170 0.443940 0.562810 -0.575435
C3    C     C_R   0.850418 0.423821 0.578465 1.037879
O9    O     O_R   0.674570 0.577130 0.545930 -0.590875
C4    C     C_R   0.842677 0.600735 0.556918 1.058684
V2    V     V_3+5 0.564560 0.501210 0.506230 1.265462
O10   O     O_3   0.838170 0.493490 0.466390 -0.294056
C5    C     C_R   0.975434 0.838711 0.910833 -0.166915
C6    C     C_R   0.847398 0.660598 0.590508 -0.283560
C7    C     C_R   0.990214 0.721016 0.907432 -0.126254
C8    C     C_R   0.996668 0.778626 0.937296 -0.142505
C9    C     C_R   0.954404 0.840957 0.853589 -0.144225
C10   C     C_R   0.962329 0.783008 0.821493 0.158386
C11   C     C_R   0.969907 0.722623 0.850260 0.118723
C12   C     C_R   0.952123 0.782299 0.762470 -0.062719
C13   C     C_R   0.932028 0.721302 0.734537 0.031844
C14   C     C_R   0.920299 0.663704 0.766099 -0.023704
C15   C     C_R   0.947966 0.664092 0.822268 -0.207989
C16   C     C_R   0.966457 0.839649 0.730138 0.369922
C17   C     C_R   0.903236 0.839183 0.675045 0.209181
C18   C     C_R   0.862492 0.779287 0.648824 -0.163496
C19   C     C_R   0.909520 0.719898 0.676153 -0.114196
C20   C     C_R   0.778500 0.777101 0.595844 0.656860
C21   C     C_R   0.766525 0.717285 0.568353 -0.371273
C22   C     C_R   0.925300 0.661603 0.644042 0.303145
H1    H     H_    0.943381 0.618117 0.844370 0.167549
H2    H     H_    0.701152 0.715429 0.528051 0.152763
H3    H     H_    0.999294 0.674869 0.929215 0.144784
H4    H     H_    0.013803 0.776304 0.981348 0.128418
H5    H     H_    0.924825 0.888249 0.835906 0.188014
H6    H     H_    0.882664 0.617436 0.748373 0.184552
C23   C     C_3   0.756619 0.255089 0.802059 0.198272
C24   C     C_3   0.115633 0.251572 0.786030 0.125411
C25   C     C_3   0.078098 0.309392 0.743806 0.782265
H7    H     H_    0.795629 0.287035 0.836549 0.190980
H8    H     H_    0.230135 0.220091 0.769553 0.175173
C26   C     C_1   0.861418 0.378768 0.624278 -0.134021
C27   C     C_3   0.931986 0.208029 0.792081 -0.279790
C28   C     C_3   0.713661 0.297899 0.749514 0.111926
C29   C     C_3   0.890743 0.294215 0.709547 -0.314026
C30   C     C_3   0.906556 0.221903 0.687553 -0.068906
C31   C     C_3   0.897933 0.171847 0.736242 0.020425
C32   C     C_1   0.872508 0.340890 0.662563 0.352845
C33   C     C_1   0.951786 0.160356 0.838233 0.314453
C34   C     C_1   0.963202 0.121710 0.875978 -0.252740
H9    H     H_    0.752220 0.150802 0.737255 0.174808
H10   H     H_    0.589276 0.276417 0.728509 0.153363
H11   H     H_    0.047638 0.216517 0.667497 0.180517
C35   C     C_3   0.600623 0.701598 0.268262 0.602035
C36   C     C_3   0.237288 0.698067 0.245440 0.237590
C37   C     C_3   0.290959 0.737828 0.192391 0.652787
H12   H     H_    0.100194 0.719071 0.260487 0.192118
C38   C     C_1   0.475862 0.878413 0.124347 -0.266065
C39   C     C_3   0.390460 0.708348 0.292156 -0.258629
C40   C     C_3   0.637699 0.758184 0.223643 0.605650
C41   C     C_3   0.440238 0.792124 0.208567 -0.224731
C42   C     C_3   0.360384 0.827949 0.260650 0.113097
C43   C     C_3   0.366971 0.781269 0.311924 -0.083508
C44   C     C_1   0.462204 0.839905 0.162191 0.366999
C45   C     C_1   0.364250 0.660294 0.338048 0.331394
C46   C     C_1   0.348828 0.621596 0.375692 -0.263560
H13   H     H_    0.494441 0.793215 0.337242 0.230819
H14   H     H_    0.208251 0.841817 0.251938 0.202985
C47   C     C_R   0.469959 0.162066 0.088112 -0.125895
C48   C     C_R   0.354173 0.338979 0.410071 -0.479047
C49   C     C_R   0.515726 0.278638 0.091438 -0.047597
C50   C     C_R   0.505875 0.221026 0.061677 -0.162317
C51   C     C_R   0.433751 0.161593 0.144564 -0.212207
C52   C     C_R   0.427902 0.220522 0.175331 0.106033
C53   C     C_R   0.487317 0.278731 0.148524 -0.005662
C54   C     C_R   0.377249 0.222871 0.232348 -0.141741
C55   C     C_R   0.410536 0.281323 0.262915 0.048091
C56   C     C_R   0.492752 0.334845 0.235645 -0.152649
C57   C     C_R   0.523545 0.335294 0.179362 0.264892
C58   C     C_R   0.296355 0.168955 0.260661 0.460589
C59   C     C_R   0.298263 0.167452 0.317524 -0.056183
C60   C     C_R   0.338891 0.223299 0.348245 -0.165006
C61   C     C_R   0.372623 0.283144 0.320792 -0.014620
C62   C     C_R   0.331802 0.220239 0.405870 0.474633
C63   C     C_R   0.349092 0.278020 0.436832 0.147347
C64   C     C_R   0.359891 0.342084 0.351834 0.447350
H15   H     H_    0.250479 0.123208 0.337534 0.221430
H16   H     H_    0.547706 0.322996 0.069261 0.175241
H17   H     H_    0.532114 0.222174 0.018027 0.136425
H18   H     H_    0.419968 0.114407 0.163839 0.170791
H19   H     H_    0.546724 0.376177 0.257910 0.216518
O11   O     O_R   0.323590 0.942280 0.056590 -0.592319
O12   O     O_R   0.647030 0.077140 0.045940 -0.589986
O13   O     O_R   0.813570 0.057750 0.943430 -0.585089
C65   C     C_R   0.477959 0.100993 0.056551 0.939875
O14   O     O_R   0.653510 0.943950 0.062820 -0.571234
O15   O     O_R   0.820100 0.923600 0.960440 -0.591189
C66   C     C_R   0.485392 0.923942 0.078648 0.966176
O16   O     O_R   0.317060 0.076430 0.039590 -0.588016
O17   O     O_3   0.483830 0.993520 0.966410 -0.268008
V3    V     V_3+5 0.760140 0.001200 0.006230 1.215493
O18   O     O_R   0.149560 0.922820 0.954030 -0.585505
C67   C     C_R   0.981396 0.899102 0.943308 0.944351
O19   O     O_R   0.143080 0.056020 0.937150 -0.579860
C68   C     C_R   0.973868 0.076083 0.921440 0.970318
V4    V     V_3+5 0.259690 0.998730 0.993720 1.215070
O20   O     O_3   0.986120 0.006480 0.033580 -0.268842
O21   O     O_3   0.700331 0.832976 0.572549 -0.660601
H20   H     H_    0.647225 0.822695 0.535901 0.343849
N1    N     N_R   0.656528 0.365647 0.762639 0.293861
O22   O     O_R   0.578048 0.402137 0.724857 -0.314101
O23   O     O_R   0.658578 0.387390 0.812603 -0.325852
O24   O     O_3   0.188857 0.273290 0.836622 -0.664830
H21   H     H_    0.091145 0.300583 0.854947 0.344059
O25   O     O_3   0.049753 0.368507 0.772030 -0.679664
H22   H     H_    0.176715 0.383456 0.785339 0.395437
O26   O     O_3   0.236508 0.318048 0.708671 -0.706867
H23   H     H_    0.277442 0.275463 0.693665 0.315461
N2    N     N_R   0.030437 0.116403 0.728190 0.270500
O27   O     O_R   0.965690 0.057120 0.731208 -0.300173
O28   O     O_R   0.209514 0.125001 0.715642 -0.358728
N3    N     N_R   0.763096 0.207116 0.645093 0.284433
O29   O     O_R   0.583082 0.199306 0.656862 -0.346740
O30   O     O_R   0.818871 0.197114 0.595087 -0.253189
N4    N     N_R   0.038616 0.606823 0.662718 0.223986
O31   O     O_R   0.208093 0.616185 0.683585 -0.360731
O32   O     O_R   0.973761 0.547608 0.658993 -0.410253
O33   O     O_3   0.592543 0.221736 0.819967 -0.677666
H24   H     H_    0.544914 0.194118 0.789848 0.334506
O34   O     O_3   0.712502 0.730212 0.175553 -0.661805
H25   H     H_    0.835295 0.708490 0.185275 0.360256
O35   O     O_3   0.618811 0.639635 0.243431 -0.723564
H26   H     H_    0.756711 0.627324 0.242438 0.367386
O36   O     O_3   0.194997 0.631983 0.235302 -0.711137
H27   H     H_    0.309300 0.609911 0.220267 0.414295
O37   O     O_3   0.369171 0.695968 0.152354 -0.673912
H28   H     H_    0.262549 0.670223 0.136524 0.357747
O38   O     O_3   0.123856 0.767982 0.171305 -0.773689
H29   H     H_    0.146693 0.779976 0.132495 0.340935
N5    N     N_R   0.199459 0.793825 0.346993 0.269870
O39   O     O_R   0.178823 0.851064 0.369187 -0.298348
O40   O     O_R   0.078583 0.748357 0.359894 -0.335854
O41   O     O_3   0.462507 0.885546 0.271023 -0.641969
H30   H     H_    0.383390 0.912401 0.296145 0.382612
O42   O     O_3   0.735674 0.705548 0.311405 -0.720762
H31   H     H_    0.736654 0.663613 0.331937 0.342027
N6    N     N_R   0.774772 0.808890 0.241992 0.255671
O43   O     O_R   0.844127 0.849175 0.205991 -0.337823
O44   O     O_R   0.802067 0.822470 0.293365 -0.277947
N7    N     N_R   0.607233 0.392390 0.155173 0.240864
O45   O     O_R   0.547538 0.450142 0.169611 -0.319921
O46   O     O_R   0.765234 0.387271 0.127400 -0.372293
O47   O     O_3   0.333233 0.400758 0.324304 -0.736731
H32   H     H_    0.329861 0.437946 0.349891 0.303219
N8    N     N_R   0.357875 0.274774 0.495544 0.235121
O48   O     O_R   0.228682 0.304036 0.525042 -0.379772
O49   O     O_R   0.491880 0.240503 0.519594 -0.288984
N9    N     N_R   0.892800 0.899687 0.645282 0.279523
O50   O     O_R   0.005352 0.909494 0.603821 -0.271185
O51   O     O_R   0.787318 0.947540 0.663378 -0.258852
O52   O     O_3   0.201112 0.118964 0.235007 -0.735723
H33   H     H_    0.131884 0.138116 0.203149 0.323809
O53   O     O_3   0.305204 0.160035 0.430580 -0.683947
H34   H     H_    0.264482 0.166004 0.468948 0.383723
O54   O     O_3   0.054356 0.894107 0.751740 -0.724918
H35   H     H_    0.094795 0.923888 0.722062 0.388945

loop_
_geom_bond_atom_site_label_1
_geom_bond_atom_site_label_2
_geom_bond_distance
_ccdc_geom_bond_type
O15   C67   1.300320 A    
C65   O16   1.300726 A    
C13   C19   1.435446 A    
N3    O29   1.301073 A    
O11   C66   1.300415 A    
C31   N2    1.472680 S    
O54   H35   0.989529 S    
C4    C6    1.478967 S    
O2    C1    1.305878 A    
C7    C8    1.391023 A    
O14   V3    1.963018 S    
C54   C58   1.422983 A    
C21   H2    1.084434 S    
C1    C46   1.453921 S    
C55   C56   1.408302 A    
C59   H15   1.083718 S    
O42   H31   0.992811 S    
N2    O27   1.300952 A    
C57   N7    1.437753 S    
C59   C60   1.401097 A    
C14   C15   1.385621 A    
O52   H33   0.991897 S    
O13   V3    1.958291 S    
O16   V4    1.992771 S    
C48   C63   1.407724 A    
C16   C17   1.415073 A    
N9    O50   1.301357 A    
C5    C67   1.473260 S    
O5    C3    1.300440 A    
C18   C19   1.420272 A    
C52   C54   1.440556 A    
N2    O28   1.301391 A    
C43   H13   1.110499 S    
O18   C67   1.299615 A    
V2    O10   2.152609 S    
C26   C32   1.214737 T    
C51   H18   1.078543 S    
C5    C8    1.394137 A    
C60   C62   1.410900 A    
O19   C68   1.302294 A    
C47   C65   1.473191 S    
V4    O20   2.152628 S    
O21   H20   0.991799 S    
C58   O52   1.376885 S    
C7    H3    1.083970 S    
O41   H30   0.992771 S    
C37   O38   1.408983 S    
O8    V2    1.977034 S    
C58   C59   1.390224 A    
O47   H32   0.987792 S    
C42   H14   1.115716 S    
C39   C45   1.502041 S    
C22   N4    1.438368 S    
O33   H24   0.988258 S    
N6    O43   1.301653 A    
N8    O49   1.300800 A    
C30   N3    1.472419 S    
C11   C15   1.391971 A    
C18   C20   1.419774 A    
O7    V1    2.162353 S    
C25   O26   1.415168 S    
N7    O46   1.301443 A    
C35   O42   1.413647 S    
C1    O6    1.300185 A    
C27   C33   1.493878 S    
O12   V3    1.995979 S    
C41   C44   1.503661 S    
C42   C43   1.573321 S    
V3    O20   1.713893 S    
C36   C37   1.576737 S    
O13   C68   1.300997 A    
O1    C2    1.300728 A    
O9    C4    1.299686 A    
O15   V3    1.990578 S    
C43   N5    1.474570 S    
C62   O53   1.384955 S    
O17   V3    2.162442 S    
O12   C65   1.300797 A    
C63   N8    1.437405 S    
C2    C48   1.480592 S    
N9    O51   1.301027 A    
C35   C40   1.611417 S    
C40   O34   1.410552 S    
C36   H12   1.110583 S    
O26   H23   0.988095 S    
C40   N6    1.486833 S    
O37   H28   0.993279 S    
C3    C26   1.449256 S    
N1    O22   1.301207 A    
O53   H34   0.989191 S    
O4    C2    1.300217 A    
C52   C53   1.423687 A    
C25   C29   1.582607 S    
C27   C31   1.573838 S    
C36   O36   1.410329 S    
C35   O35   1.414044 S    
C13   C14   1.409900 A    
C51   C52   1.425163 A    
O11   V4    1.966220 S    
C5    C9    1.406757 A    
C34   C68   1.450084 S    
C24   H8    1.101363 S    
C7    C11   1.404207 A    
C49   C50   1.390789 A    
C39   C43   1.579067 S    
C17   C18   1.416730 A    
C50   H17   1.083734 S    
C8    H4    1.083648 S    
N8    O48   1.301151 A    
C9    H5    1.076809 S    
O25   H22   0.993380 S    
C29   C32   1.495301 S    
O14   C66   1.305823 A    
C30   C31   1.569186 S    
C23   C27   1.571843 S    
C19   C22   1.435354 A    
C12   C13   1.433769 A    
C6    C22   1.414723 A    
N7    O45   1.301412 A    
C42   O41   1.406565 S    
C55   C61   1.441256 A    
O3    C4    1.301523 A    
C49   H16   1.081388 S    
C37   O37   1.412592 S    
O1    V2    1.989546 S    
N5    O40   1.300572 A    
C28   C29   1.580660 S    
C37   C41   1.580158 S    
C56   C57   1.393619 A    
O6    V2    1.965876 S    
O9    V2    1.993472 S    
C47   C50   1.392314 A    
C10   C12   1.444337 A    
C24   C25   1.586662 S    
O2    V1    1.963090 S    
O17   V4    1.706345 S    
C28   N1    1.477390 S    
N4    O31   1.301435 A    
O18   V4    1.993515 S    
C35   C39   1.586450 S    
C28   H10   1.101919 S    
N3    O30   1.301299 A    
C56   H19   1.077873 S    
C20   O21   1.382653 S    
C60   C61   1.416797 A    
C30   H11   1.106890 S    
C17   N9    1.435312 S    
C12   C16   1.417370 A    
C54   C55   1.433828 A    
O5    V1    1.958125 S    
C23   O33   1.408835 S    
N1    O23   1.301835 A    
O8    C3    1.302488 A    
C24   O24   1.410810 S    
C33   C34   1.214880 T    
O34   H25   0.989418 S    
C36   C39   1.576025 S    
C38   C44   1.217667 T    
N5    O39   1.301000 A    
C15   H1    1.084331 S    
C20   C21   1.402652 A    
C48   C64   1.425547 A    
C64   O47   1.385394 S    
O7    V2    1.707387 S    
O4    V1    1.995843 S    
C41   C42   1.574212 S    
O3    V1    1.990461 S    
V1    O10   1.714079 S    
O24   H21   0.988303 S    
C40   C41   1.579069 S    
C53   C57   1.408726 A    
C14   H6    1.077557 S    
C23   H7    1.103768 S    
C23   C28   1.578015 S    
O19   V4    1.977104 S    
C31   H9    1.108014 S    
C24   C27   1.574597 S    
N6    O44   1.300807 A    
C45   C46   1.217638 T    
C6    C21   1.392743 A    
O36   H27   0.986836 S    
C16   O54   1.382796 S    
C62   C63   1.413107 A    
C29   C30   1.580844 S    
C61   C64   1.430891 A    
O38   H29   0.992997 S    
C47   C51   1.404177 A    
C10   C11   1.420445 A    
O35   H26   0.993052 S    
C38   C66   1.454180 S    
C9    C10   1.426328 A    
C49   C53   1.410513 A    
C25   O25   1.409020 S    
N4    O32   1.301377 A    
