data_mof_unit_41501.cif
_audit_creation_date              2012-12-10T20:26:24-0500
_audit_creation_method            fapswitch 2.2
_symmetry_space_group_name_H-M    P1
_symmetry_Int_Tables_number       1
_space_group_crystal_system       triclinic
_cell_length_a                    10.738839
_cell_length_b                    10.681528
_cell_length_c                    9.868674
_cell_angle_alpha                 89.996228
_cell_angle_beta                  90.404842
_cell_angle_gamma                 90.082844
_cell_volume                      1131.9786125

loop_
_atom_site_label
_atom_site_type_symbol
_atom_type_description
_atom_site_fract_x
_atom_site_fract_y
_atom_site_fract_z
_atom_type_partial_charge
C1    C     C_R   0.499324 0.260375 0.499860 0.907725
C2    C     C_R   0.502209 0.128693 0.496988 -0.150196
C3    C     C_R   0.440504 0.066062 0.391717 -0.336126
C4    C     C_R   0.438544 0.936177 0.390030 0.447716
C5    C     C_R   0.498395 0.871908 0.496784 -0.203319
C6    C     C_R   0.570711 0.935680 0.591936 0.056261
C7    C     C_3   0.568979 0.928773 0.743274 -0.469344
C8    C     C_3   0.570520 0.070639 0.743537 -0.459890
C9    C     C_R   0.438001 0.408896 0.070661 0.220899
C10   C     C_R   0.571260 0.582202 0.072529 -0.140974
C11   C     C_R   0.570831 0.582594 0.928551 -0.137799
C12   C     C_R   0.262588 0.501210 0.499484 0.939400
C13   C     C_R   0.438372 0.408622 0.928163 0.217122
C14   C     C_3   0.302442 0.381277 0.920760 -0.507060
C15   C     C_3   0.301736 0.382829 0.074523 -0.533871
C16   C     C_R   0.497002 0.739741 0.499703 0.934815
C17   C     C_R   0.737348 0.495572 0.500440 0.929015
C18   C     C_2   0.932555 0.479407 0.386771 -0.156263
C19   C     C_2   0.868509 0.478718 0.502113 -0.334992
C20   C     C_2   0.066504 0.471674 0.389312 -0.158397
C21   C     C_2   0.130812 0.508543 0.498406 -0.316036
C22   C     C_R   0.572273 0.063579 0.592314 0.122278
H1    H     H_    0.886922 0.486328 0.288405 0.173040
H2    H     H_    0.658123 0.110814 0.785699 0.197802
H3    H     H_    0.626796 0.650226 0.127259 0.142411
H4    H     H_    0.625887 0.651046 0.874714 0.144298
H5    H     H_    0.247923 0.459068 0.874822 0.221874
H6    H     H_    0.283241 0.287191 0.877173 0.196795
H7    H     H_    0.248119 0.462645 0.116324 0.213482
H8    H     H_    0.280768 0.290031 0.120040 0.196695
H9    H     H_    0.911431 0.462092 0.600282 0.150055
H10   H     H_    0.112358 0.437976 0.298839 0.161465
H11   H     H_    0.087998 0.547335 0.588235 0.143097
H12   H     H_    0.386507 0.117664 0.317236 0.166307
H13   H     H_    0.480972 0.888542 0.782866 0.208381
H14   H     H_    0.655651 0.886829 0.785412 0.193178
H15   H     H_    0.483347 0.112458 0.783511 0.205844
N1    N     N_R   0.499170 0.499140 0.142800 -0.109922
N2    N     N_R   0.499170 0.499180 0.857150 -0.106034
O1    O     O_R   0.500020 0.316790 0.614690 -0.621561
O2    O     O_R   0.500000 0.316760 0.385350 -0.625501
O3    O     O_R   0.319080 0.500020 0.614640 -0.628925
O4    O     O_R   0.319070 0.499980 0.385300 -0.611231
O5    O     O_R   0.500000 0.683240 0.614650 -0.629424
O6    O     O_R   0.499980 0.683210 0.385310 -0.594250
O7    O     O_R   0.680930 0.500020 0.614700 -0.624139
O8    O     O_R   0.680920 0.499980 0.385360 -0.622480
Zn1   Zn    Zn3+2 0.500010 0.500020 0.653130 0.936333
Zn2   Zn    Zn3+2 0.499990 0.499980 0.346870 0.949567
O9    O     O_3   0.359886 0.873015 0.301414 -0.595047
C23   C     C_3   0.404229 0.884660 0.167637 0.130107
H16   H     H_    0.503110 0.853917 0.160696 0.132212
H17   H     H_    0.396129 0.982790 0.130857 0.122897
C24   C     C_3   0.325751 0.801750 0.075112 -0.797485
H18   H     H_    0.227917 0.835300 0.073295 0.245007
H19   H     H_    0.363049 0.804225 0.970618 0.194705
H20   H     H_    0.327344 0.703629 0.112191 0.269488

loop_
_geom_bond_atom_site_label_1
_geom_bond_atom_site_label_2
_ccdc_geom_bond_type
C16   O6    A    
C2    C22   A    
C8    C22   S    
C6    C7    S    
C8    H2    S    
C14   H5    S    
C7    H14   S    
C16   O5    A    
C18   C20   S    
C1    O1    A    
O6    Zn2   S    
C10   N1    A    
C23   C24   S    
C19   H9    S    
O9    C23   S    
C9    C15   S    
C7    C8    S    
O8    Zn2   S    
N1    Zn2   S    
O3    Zn1   S    
C13   C14   S    
C17   O7    A    
C11   N2    A    
C3    H12   S    
C10   H3    S    
O2    Zn2   S    
C9    N1    A    
C17   C19   S    
C15   H7    S    
C12   O4    A    
C2    C3    A    
C20   H10   S    
C5    C6    A    
C24   H19   S    
C13   N2    A    
C21   H11   S    
C8    H15   S    
C23   H17   S    
C18   H1    S    
C6    C22   A    
O7    Zn1   S    
O5    Zn1   S    
C23   H16   S    
C20   C21   D    
C15   H8    S    
C1    C2    S    
C10   C11   A    
C1    O2    A    
O1    Zn1   S    
C9    C13   A    
C14   C15   S    
C18   C19   D    
C5    C16   S    
C12   O3    A    
C11   H4    S    
C14   H6    S    
C24   H18   S    
C7    H13   S    
C12   C21   S    
O4    Zn2   S    
C3    C4    A    
C17   O8    A    
C4    O9    S    
C4    C5    A    
N2    Zn1   S    
C24   H20   S    
