data_mof_unit_15425.cif
_audit_creation_date              2012-12-10T19:10:32-0500
_audit_creation_method            fapswitch 2.2
_symmetry_space_group_name_H-M    P1
_symmetry_Int_Tables_number       1
_space_group_crystal_system       triclinic
_cell_length_a                    10.679403
_cell_length_b                    9.908736
_cell_length_c                    15.689738
_cell_angle_alpha                 90.425334
_cell_angle_beta                  93.310257
_cell_angle_gamma                 91.654753
_cell_volume                      1656.74827279

loop_
_atom_site_label
_atom_site_type_symbol
_atom_type_description
_atom_site_fract_x
_atom_site_fract_y
_atom_site_fract_z
_atom_type_partial_charge
C1    C     C_R   0.257525 0.499013 0.497902 0.850498
C2    C     C_3   0.621597 0.586891 0.952816 -0.455417
C3    C     C_3   0.634226 0.585615 0.053104 0.465198
C4    C     C_1   0.505416 0.498571 0.825634 -0.076743
C5    C     C_1   0.510464 0.498066 0.175065 -0.093449
C6    C     C_1   0.505907 0.498217 0.250225 -0.207711
C7    C     C_3   0.075115 0.650027 0.500670 -0.452896
C8    C     C_3   0.076169 0.436793 0.580959 -0.424806
C9    C     C_3   0.932156 0.652659 0.501968 -0.428248
C10   C     C_3   0.932817 0.429807 0.579132 -0.423030
C11   C     C_3   0.055767 0.431969 0.411909 0.444633
C12   C     C_3   0.119589 0.499956 0.496842 0.154522
C13   C     C_3   0.877249 0.505821 0.500399 0.153686
C14   C     C_R   0.501911 0.499547 0.338850 0.900289
C15   C     C_3   0.911129 0.436601 0.416751 -0.461807
C16   C     C_3   0.392183 0.073801 0.441777 0.069142
C17   C     C_3   0.402373 0.912933 0.434820 0.178888
C18   C     C_3   0.615638 0.083942 0.465233 -0.259503
C19   C     C_3   0.622612 0.926320 0.476938 -0.266982
C20   C     C_3   0.480461 0.081514 0.585513 0.131335
C21   C     C_3   0.468796 0.921544 0.583665 0.105770
C22   C     C_R   0.741626 0.502166 0.501924 0.830536
C23   C     C_R   0.500421 0.500236 0.661231 0.898421
C24   C     C_3   0.388303 0.561195 0.045565 -0.011122
C25   C     C_3   0.515698 0.351869 0.048842 0.042193
C26   C     C_3   0.521843 0.352826 0.950362 -0.487565
C27   C     C_3   0.387255 0.559265 0.946893 -0.410379
C28   C     C_1   0.502709 0.499992 0.750176 -0.205957
C29   C     C_3   0.515115 0.501032 0.083376 0.149815
C30   C     C_3   0.508827 0.498495 0.917310 0.223976
H1    H     H_    0.894183 0.709509 0.445684 0.171777
H2    H     H_    0.900329 0.322636 0.577670 0.175476
H3    H     H_    0.700487 0.135967 0.493465 0.167041
H4    H     H_    0.696601 0.909107 0.526826 0.149985
H5    H     H_    0.608124 0.691279 0.928884 0.184371
H6    H     H_    0.708426 0.551676 0.924703 0.139403
H7    H     H_    0.106825 0.710426 0.446056 0.177066
H8    H     H_    0.115796 0.338056 0.596507 0.173089
H9    H     H_    0.116642 0.702618 0.559140 0.182396
H10   H     H_    0.111449 0.501617 0.636045 0.158111
N1    N     N_3   0.499750 0.138610 0.498180 -0.094355
N2    N     N_3   0.499750 0.861390 0.498180 -0.083435
O1    O     O_R   0.314910 0.616040 0.499980 -0.638701
O2    O     O_R   0.314910 0.383960 0.499980 -0.635837
O3    O     O_R   0.500120 0.616090 0.377110 -0.602611
O4    O     O_R   0.500120 0.383910 0.377110 -0.628276
O5    O     O_R   0.685320 0.616040 0.499960 -0.642999
O6    O     O_R   0.685320 0.383960 0.499960 -0.642068
O7    O     O_R   0.500110 0.615990 0.622830 -0.583113
O8    O     O_R   0.500110 0.384010 0.622830 -0.599376
Zn1   Zn    Zn3+2 0.500150 0.654960 0.499960 0.919506
Zn2   Zn    Zn3+2 0.500150 0.345040 0.499960 0.912776
H11   H     H_    0.304142 0.498834 0.920549 0.147371
H12   H     H_    0.444649 0.286638 0.921142 0.163630
N3    N     N_2   0.090431 0.515938 0.339162 -0.344216
H13   H     H_    0.037555 0.597750 0.321412 0.215310
C31   C     C_3   0.181608 0.475830 0.279916 -0.870045
H14   H     H_    0.222652 0.566933 0.250104 0.240981
H15   H     H_    0.135465 0.410580 0.228836 0.236590
H16   H     H_    0.258306 0.421777 0.313379 0.255740
N4    N     N_2   0.090326 0.291224 0.396313 -0.283864
H17   H     H_    0.059459 0.260043 0.335628 0.236523
C32   C     C_3   0.065564 0.183497 0.456131 -0.852055
H18   H     H_    0.071580 0.084126 0.423880 0.219396
H19   H     H_    0.970626 0.185803 0.480108 0.230713
H20   H     H_    0.137039 0.184397 0.509318 0.248467
H21   H     H_    0.867130 0.491991 0.361796 0.135291
H22   H     H_    0.865712 0.334644 0.410042 0.175142
N5    N     N_2   0.369957 0.142784 0.360517 -0.250283
H23   H     H_    0.341923 0.237723 0.374171 0.296200
C33   C     C_3   0.275771 0.086994 0.298003 -0.823985
H24   H     H_    0.220656 0.168622 0.267397 0.219354
H25   H     H_    0.210073 0.014224 0.326925 0.232556
H26   H     H_    0.320916 0.038737 0.244612 0.264139
N6    N     N_2   0.410934 0.857446 0.348367 -0.245315
H27   H     H_    0.344761 0.784316 0.328217 0.228456
C34   C     C_3   0.508242 0.888186 0.289906 -0.755458
H28   H     H_    0.467860 0.880214 0.223536 0.208343
H29   H     H_    0.584154 0.814515 0.295877 0.233586
H30   H     H_    0.545245 0.992213 0.297225 0.248577
H31   H     H_    0.304713 0.087632 0.474881 0.068662
H32   H     H_    0.310028 0.872143 0.454423 0.046830
H33   H     H_    0.621882 0.112347 0.397697 0.160550
H34   H     H_    0.660576 0.877708 0.421048 0.166251
N7    N     N_2   0.563543 0.135365 0.656300 -0.245554
H35   H     H_    0.527885 0.129853 0.715991 0.201719
C35   C     C_3   0.696260 0.169357 0.656236 -0.729076
H36   H     H_    0.710184 0.271741 0.631670 0.266401
H37   H     H_    0.749049 0.095111 0.621296 0.202582
H38   H     H_    0.737076 0.171376 0.723005 0.193528
N8    N     N_2   0.526318 0.860382 0.660922 -0.240099
H39   H     H_    0.482383 0.883944 0.715786 0.192475
C36   C     C_3   0.657027 0.827241 0.677641 -0.707749
H40   H     H_    0.664263 0.761960 0.734858 0.205520
H41   H     H_    0.716677 0.916790 0.693717 0.214444
H42   H     H_    0.693253 0.767332 0.625592 0.255423
H43   H     H_    0.386676 0.115941 0.603126 0.048238
H44   H     H_    0.366922 0.898127 0.590283 0.032530
H45   H     H_    0.309691 0.493378 0.064792 0.133102
H46   H     H_    0.423883 0.302082 0.062442 0.139216
N9    N     N_2   0.616795 0.274892 0.089783 -0.268804
H47   H     H_    0.695773 0.260443 0.056388 0.248051
C37   C     C_3   0.580351 0.161901 0.141678 -0.846657
H48   H     H_    0.664777 0.121629 0.176166 0.236890
H49   H     H_    0.534340 0.080794 0.100693 0.248168
H50   H     H_    0.514934 0.194737 0.189797 0.271706
N10   N     N_2   0.365521 0.696626 0.077644 -0.271927
H51   H     H_    0.391002 0.709825 0.141354 0.231085
C38   C     C_3   0.239760 0.744823 0.060274 -0.837022
H52   H     H_    0.235133 0.850361 0.083990 0.238701
H53   H     H_    0.170781 0.681169 0.093564 0.232735
H54   H     H_    0.213752 0.744070 0.990807 0.246373
H55   H     H_    0.611176 0.311766 0.929623 0.177904
H56   H     H_    0.379108 0.663096 0.920878 0.197883
N11   N     N_2   0.634740 0.725437 0.085039 -0.288293
H57   H     H_    0.610599 0.735913 0.147227 0.221307
C39   C     C_3   0.740229 0.814835 0.067339 -0.848749
H58   H     H_    0.714811 0.920827 0.078917 0.249593
H59   H     H_    0.766232 0.806008 0.000192 0.237933
H60   H     H_    0.823176 0.792380 0.110231 0.244962
N12   N     N_2   0.753693 0.523112 0.080189 -0.298702
H61   H     H_    0.828009 0.552490 0.044663 0.218912
C40   C     C_3   0.792937 0.515066 0.170335 -0.816109
H62   H     H_    0.895159 0.496719 0.177434 0.230112
H63   H     H_    0.745327 0.428628 0.200468 0.275766
H64   H     H_    0.775454 0.609699 0.205252 0.232951
H65   H     H_    0.905861 0.706704 0.560499 0.173942
H66   H     H_    0.900733 0.475335 0.638914 0.151636

loop_
_geom_bond_atom_site_label_1
_geom_bond_atom_site_label_2
_ccdc_geom_bond_type
C2    H5    S    
C22   O6    A    
N3    H13   S    
C32   H19   S    
C36   H40   S    
C24   H45   S    
C24   C27   S    
C35   H36   S    
O1    Zn1   S    
C20   N1    S    
C40   H62   S    
C14   O4    A    
C34   H28   S    
C9    H65   S    
C18   C19   S    
C38   H53   S    
C5    C6    T    
C40   H63   S    
N8    C36   S    
O3    Zn1   S    
N11   H57   S    
O4    Zn2   S    
C3    C29   S    
C17   H32   S    
N5    C33   S    
C9    C13   S    
C24   C29   S    
C1    O2    A    
C17   N2    S    
C11   C15   S    
C1    O1    A    
C20   H43   S    
C16   C17   S    
N11   C39   S    
O8    Zn2   S    
N10   H51   S    
N1    Zn2   S    
C19   N2    S    
N2    Zn1   S    
O2    Zn2   S    
N7    C35   S    
C22   O5    A    
C32   H20   S    
N9    C37   S    
C39   H60   S    
C27   C30   S    
N10   C38   S    
N4    H17   S    
C1    C12   S    
C8    H8    S    
C10   H66   S    
C26   H12   S    
C4    C28   T    
C14   O3    A    
C5    C29   S    
C34   H29   S    
C25   C29   S    
C7    C12   S    
N9    H47   S    
C18   N1    S    
N8    H39   S    
C33   H25   S    
C23   O8    A    
O5    Zn1   S    
O7    Zn1   S    
C25   C26   S    
N7    H35   S    
C19   H4    S    
C21   N2    S    
N6    H27   S    
C11   N4    S    
C6    C14   S    
C25   H46   S    
O6    Zn2   S    
C8    C12   S    
C15   H21   S    
C20   N7    S    
N4    C32   S    
C18   H33   S    
C7    H7    S    
C37   H49   S    
C24   N10   S    
C23   C28   S    
N6    C34   S    
N12   H61   S    
C8    C10   S    
C26   C30   S    
C36   H42   S    
C13   C15   S    
C38   H54   S    
C31   H15   S    
C19   H34   S    
C11   N3    S    
C21   N8    S    
C34   H30   S    
C2    H6    S    
C7    C9    S    
C16   N5    S    
C40   H64   S    
C10   C13   S    
C33   H26   S    
C11   C12   S    
C27   H11   S    
N3    C31   S    
C2    C30   S    
C39   H59   S    
C2    C3    S    
C26   H55   S    
C33   H24   S    
C3    N11   S    
C39   H58   S    
C21   H44   S    
C25   N9    S    
C31   H14   S    
C15   H22   S    
C16   H31   S    
C13   C22   S    
C37   H50   S    
N5    H23   S    
C18   H3    S    
N12   C40   S    
C23   O7    A    
C9    H1    S    
C32   H18   S    
C27   H56   S    
C10   H2    S    
C31   H16   S    
C20   C21   S    
C36   H41   S    
C35   H38   S    
C37   H48   S    
C17   N6    S    
C35   H37   S    
C7    H9    S    
C8    H10   S    
C38   H52   S    
C16   N1    S    
C4    C30   S    
C3    N12   S    
