data_mof_unit_20127.cif
_audit_creation_date              2012-12-11T15:36:34-0500
_audit_creation_method            fapswitch 2.2
_symmetry_space_group_name_H-M    P1
_symmetry_Int_Tables_number       1
_space_group_crystal_system       triclinic
_cell_length_a                    15.036053
_cell_length_b                    15.060186
_cell_length_c                    34.766038
_cell_angle_alpha                 91.41415
_cell_angle_beta                  91.626615
_cell_angle_gamma                 60.153716
_cell_volume                      6825.16924384

loop_
_atom_site_label
_atom_site_type_symbol
_atom_type_description
_atom_site_fract_x
_atom_site_fract_y
_atom_site_fract_z
_atom_type_partial_charge
C1    C     C_R   0.611664 0.301358 0.444021 0.565914
C2    C     C_R   0.746996 0.688801 0.183757 0.050851
C3    C     C_R   0.616981 0.138431 0.828458 -0.018624
C4    C     C_R   0.703386 0.137319 0.844418 -0.154193
C5    C     C_R   0.730450 0.114084 0.882962 0.112354
C6    C     C_R   0.582767 0.245478 0.771167 -0.107648
C7    C     C_R   0.590121 0.253178 0.731810 -0.147013
C8    C     C_R   0.615187 0.169010 0.707145 0.018168
C9    C     C_R   0.629191 0.076306 0.722420 0.153695
C10   C     C_R   0.621822 0.069785 0.762393 -0.039533
C11   C     C_R   0.600196 0.153479 0.786728 0.034311
C12   C     C_R   0.563070 0.171378 0.638099 -0.099519
C13   C     C_R   0.836018 0.631620 0.162436 -0.088371
C14   C     C_R   0.561507 0.200559 0.600067 0.153615
C15   C     C_R   0.691956 0.245707 0.617296 -0.153803
C16   C     C_R   0.693344 0.215816 0.654982 -0.138286
C17   C     C_R   0.626444 0.181885 0.665933 -0.016063
C18   C     C_R   0.623024 0.242997 0.589744 0.034238
C19   C     C_R   0.044522 0.739684 0.048987 0.537275
C20   C     C_R   0.747851 0.747396 0.064340 0.543711
C21   C     C_R   0.751080 0.040698 0.050904 0.555662
C22   C     C_R   0.016816 0.722319 0.939631 0.547445
C23   C     C_R   0.717194 0.729288 0.955149 0.550054
C24   C     C_R   0.834317 0.645955 0.122942 -0.117836
C25   C     C_R   0.720361 0.027127 0.942347 0.551136
C26   C     C_R   0.774951 0.582404 0.242014 0.176476
C27   C     C_R   0.768372 0.575844 0.281660 -0.074986
C28   C     C_R   0.736805 0.662606 0.305542 -0.007876
C29   C     C_R   0.716508 0.755395 0.289308 -0.124528
C30   C     C_R   0.721625 0.762705 0.249690 -0.156624
C31   C     C_R   0.749461 0.676943 0.225683 0.029798
C32   C     C_R   0.620020 0.738653 0.361020 -0.074432
C33   C     C_R   0.593708 0.610708 0.449485 0.560503
C34   C     C_R   0.582914 0.728222 0.395942 0.163451
C35   C     C_R   0.733042 0.559037 0.402577 -0.141929
C36   C     C_R   0.769589 0.570903 0.367855 -0.125539
C37   C     C_R   0.711146 0.658919 0.345959 -0.007170
C38   C     C_R   0.637331 0.635066 0.416353 0.020243
C39   C     C_R   0.096843 0.731709 0.086493 0.012413
C40   C     C_R   0.123874 0.646441 0.109687 -0.126771
C41   C     C_R   0.141198 0.650876 0.149028 -0.125103
C42   C     C_R   0.133701 0.739747 0.165886 0.024542
C43   C     C_R   0.117546 0.821015 0.142402 -0.106890
C44   C     C_R   0.305465 0.590228 0.441739 0.534178
C45   C     C_R   0.099259 0.816954 0.102836 -0.114140
C46   C     C_R   0.208423 0.764438 0.227763 -0.103921
C47   C     C_R   0.218502 0.755419 0.267838 -0.101047
C48   C     C_R   0.153635 0.732411 0.288459 0.032452
C49   C     C_R   0.073606 0.726821 0.269085 -0.109352
C50   C     C_R   0.065275 0.733085 0.229138 -0.124326
C51   C     C_R   0.134454 0.748884 0.208136 0.030881
C52   C     C_R   0.213084 0.594584 0.337720 0.179552
C53   C     C_R   0.247193 0.559430 0.375411 0.158701
C54   C     C_R   0.213790 0.730083 0.394440 -0.142474
C55   C     C_R   0.606059 0.298972 0.553398 0.567711
C56   C     C_R   0.178637 0.764795 0.357259 -0.137929
C57   C     C_R   0.179886 0.697537 0.328587 -0.010064
C58   C     C_R   0.251292 0.627068 0.403980 -0.016393
C59   C     C_R   0.722399 0.098634 0.087839 0.010155
C60   C     C_R   0.794513 0.109268 0.111851 0.150419
C61   C     C_R   0.776400 0.127320 0.151695 0.179861
C62   C     C_R   0.683991 0.141071 0.166578 0.038105
C63   C     C_R   0.607145 0.146436 0.141676 -0.180512
C64   C     C_R   0.626365 0.124685 0.102798 -0.167463
C65   C     C_R   0.591726 0.230364 0.225586 -0.150212
C66   C     C_R   0.587362 0.606929 0.559023 0.539761
C67   C     C_R   0.582744 0.237645 0.265407 -0.073386
C68   C     C_R   0.650357 0.155461 0.288500 0.063476
C69   C     C_R   0.724040 0.063790 0.271320 -0.054465
C70   C     C_R   0.735004 0.055758 0.231238 0.184676
C71   C     C_R   0.669701 0.141555 0.208342 0.067407
C72   C     C_R   0.733413 0.178529 0.348131 0.162969
C73   C     C_R   0.726935 0.210958 0.386823 0.183725
C74   C     C_R   0.559114 0.224707 0.390255 -0.139104
C75   C     C_R   0.566347 0.190545 0.352267 0.136713
C76   C     C_R   0.651525 0.171289 0.330476 0.002428
C77   C     C_R   0.297502 0.589552 0.551609 0.538447
C78   C     C_R   0.635425 0.241394 0.407350 -0.040368
C79   C     C_R   0.693470 0.687284 0.920055 0.023047
C80   C     C_R   0.772511 0.600181 0.901914 -0.113186
C81   C     C_R   0.762419 0.579133 0.863317 -0.084558
C82   C     C_R   0.673846 0.645398 0.842318 0.052963
C83   C     C_R   0.589838 0.724064 0.861601 -0.115818
C84   C     C_R   0.599258 0.744120 0.900459 -0.130446
C85   C     C_R   0.591893 0.630723 0.781466 -0.154860
C86   C     C_R   0.585137 0.629539 0.741438 -0.128884
C87   C     C_R   0.658911 0.634955 0.719414 -0.009874
C88   C     C_R   0.743843 0.719102 0.104248 0.020241
C89   C     C_R   0.739346 0.641858 0.737646 -0.086305
C90   C     C_R   0.745599 0.645149 0.777759 0.172445
C91   C     C_R   0.671919 0.638250 0.800016 0.039379
C92   C     C_R   0.725568 0.557498 0.655088 -0.119962
C93   C     C_R   0.709107 0.551335 0.615591 -0.128420
C94   C     C_R   0.545116 0.708066 0.620062 -0.115137
C95   C     C_R   0.560809 0.712981 0.659487 -0.124780
C96   C     C_R   0.649605 0.636243 0.677326 0.021984
C97   C     C_R   0.617097 0.624873 0.597964 0.022886
C98   C     C_R   0.065765 0.697240 0.901977 0.024333
C99   C     C_R   0.654264 0.775004 0.125644 -0.127519
C100  C     C_R   0.085571 0.767617 0.883727 -0.122647
C101  C     C_R   0.114880 0.752263 0.845443 -0.123692
C102  C     C_R   0.124958 0.666421 0.825137 0.035325
C103  C     C_R   0.109976 0.593650 0.843670 -0.084345
C104  C     C_R   0.081373 0.608451 0.882009 -0.099160
C105  C     C_R   0.229742 0.582254 0.766518 0.175658
C106  C     C_R   0.238611 0.579321 0.726288 0.177114
C107  C     C_R   0.158245 0.655847 0.703837 -0.008875
C108  C     C_R   0.069217 0.731612 0.721078 -0.150935
C109  C     C_R   0.059390 0.732914 0.760646 -0.125591
C110  C     C_R   0.655915 0.759895 0.165132 -0.116745
C111  C     C_R   0.138959 0.659295 0.783522 0.004685
C112  C     C_R   0.209120 0.719351 0.647561 0.144453
C113  C     C_R   0.242270 0.702202 0.609572 -0.092899
C114  C     C_R   0.188747 0.575254 0.600809 -0.132527
C115  C     C_R   0.154486 0.592431 0.638411 -0.139074
C116  C     C_R   0.169552 0.659871 0.662429 0.028168
C117  C     C_R   0.237545 0.626277 0.586816 -0.013640
C118  C     C_R   0.672572 0.085175 0.906108 0.008990
C119  C     C_R   0.576622 0.100762 0.891358 0.124449
C120  C     C_R   0.550208 0.125553 0.852111 0.199936
Cr1   Cr    Cr6+3 0.426010 0.422500 0.497000 1.068005
Cr2   Cr    Cr6+3 0.651300 0.426310 0.501970 1.058325
Cr3   Cr    Cr6+3 0.422670 0.651170 0.501050 1.065912
Cr4   Cr    Cr6+3 0.905130 0.911420 0.992650 1.061160
Cr5   Cr    Cr6+3 0.911860 0.682710 0.002320 1.022827
Cr6   Cr    Cr6+3 0.682710 0.906840 0.004710 1.001527
H1    H     H_    0.583849 0.832666 0.112124 0.133310
H2    H     H_    0.907381 0.577780 0.176559 0.138986
H3    H     H_    0.778058 0.487722 0.417726 0.168902
H4    H     H_    0.123694 0.579107 0.098105 0.133330
H5    H     H_    0.079971 0.883165 0.085600 0.177885
H6    H     H_    0.153324 0.843801 0.350489 0.167098
H7    H     H_    0.280821 0.759816 0.282445 0.128641
H8    H     H_    0.262249 0.776852 0.211954 0.117591
H9    H     H_    0.155502 0.586650 0.166706 0.112364
H10   H     H_    0.021714 0.711093 0.284668 0.116807
H11   H     H_    0.905177 0.603111 0.107442 0.134153
H12   H     H_    0.007127 0.721804 0.214431 0.105008
H13   H     H_    0.112461 0.889879 0.154978 0.133072
H14   H     H_    0.215231 0.783562 0.415517 0.169739
H15   H     H_    0.568219 0.120719 0.084913 0.139606
H16   H     H_    0.525874 0.309069 0.278382 0.148267
H17   H     H_    0.541016 0.295981 0.208266 0.118762
H18   H     H_    0.841468 0.509151 0.357288 0.134452
H19   H     H_    0.776155 0.000358 0.289320 0.125182
H20   H     H_    0.535152 0.159083 0.152858 0.126283
H21   H     H_    0.490824 0.242543 0.405894 0.169918
H22   H     H_    0.845363 0.553038 0.916491 0.130003
H23   H     H_    0.535599 0.808678 0.914241 0.111491
H24   H     H_    0.502077 0.774810 0.676347 0.117973
H25   H     H_    0.781913 0.504127 0.293397 0.158639
H26   H     H_    0.522414 0.624312 0.727571 0.120536
H27   H     H_    0.534193 0.626676 0.798070 0.099360
H28   H     H_    0.826533 0.515608 0.849127 0.138584
H29   H     H_    0.795152 0.648253 0.720642 0.144311
H30   H     H_    0.794734 0.497874 0.668641 0.113267
H31   H     H_    0.765746 0.486385 0.599321 0.126490
H32   H     H_    0.519617 0.774292 0.846012 0.114831
H33   H     H_    0.473378 0.766060 0.607448 0.142074
H34   H     H_    0.074074 0.836656 0.898459 0.130507
H35   H     H_    0.065914 0.553312 0.895262 0.139779
H36   H     H_    0.122788 0.547805 0.649644 0.122521
H37   H     H_    0.125763 0.809201 0.831161 0.106440
H38   H     H_    0.007840 0.790277 0.703849 0.134806
H39   H     H_    0.989709 0.792218 0.773634 0.159197
H40   H     H_    0.279906 0.742087 0.599108 0.141870
H41   H     H_    0.115968 0.527918 0.827951 0.143227
H42   H     H_    0.586592 0.804793 0.181323 0.120682
H43   H     H_    0.183036 0.517345 0.583565 0.151556
H44   H     H_    0.743277 0.223833 0.676142 0.119001
H45   H     H_    0.578071 0.324893 0.720539 0.130070
H46   H     H_    0.568358 0.309744 0.789791 0.124308
H47   H     H_    0.640049 0.997337 0.774908 0.148093
H48   H     H_    0.511568 0.144604 0.646306 0.144417
H49   H     H_    0.693048 0.823258 0.307076 0.134258
H50   H     H_    0.751406 0.153353 0.826446 0.116029
H51   H     H_    0.740272 0.277442 0.610475 0.136940
H52   H     H_    0.701211 0.836197 0.237707 0.122498
H53   H     H_    0.573743 0.807325 0.344535 0.156279
O1    O     O_R   0.324990 0.503440 0.453910 -0.524697
O2    O     O_R   0.639980 0.519500 0.542640 -0.505995
O3    O     O_R   0.500750 0.673190 0.545480 -0.511623
O4    O     O_R   0.336260 0.640450 0.538210 -0.508127
O5    O     O_3   0.499990 0.499990 0.500010 -0.262200
O6    O     O_R   0.834210 0.019400 0.034570 -0.456647
O7    O     O_R   0.002210 0.824620 0.031030 -0.490793
O8    O     O_R   0.024400 0.669340 0.039790 -0.521981
O9    O     O_R   0.830490 0.694950 0.045870 -0.501357
O10   O     O_R   0.675430 0.831160 0.051290 -0.517065
O11   O     O_R   0.698870 0.998880 0.039560 -0.516900
O12   O     O_R   0.522030 0.339050 0.458320 -0.508989
O13   O     O_R   0.811290 0.006780 0.950620 -0.468955
O14   O     O_R   0.980960 0.812920 0.953200 -0.497304
O15   O     O_R   0.001480 0.656720 0.955830 -0.517928
O16   O     O_R   0.809240 0.683250 0.968050 -0.496928
O17   O     O_R   0.652500 0.818540 0.967340 -0.526072
O18   O     O_R   0.677620 0.987170 0.961730 -0.504856
O19   O     O_3   0.833240 0.833660 0.999890 -0.243939
O20   O     O_R   0.676180 0.324490 0.458320 -0.452247
O21   O     O_R   0.643570 0.521510 0.464260 -0.506555
O22   O     O_R   0.504630 0.675350 0.460920 -0.449885
O23   O     O_R   0.339850 0.642450 0.459830 -0.487659
O24   O     O_R   0.321120 0.501280 0.538470 -0.494339
O25   O     O_R   0.518440 0.337050 0.536710 -0.447147
O26   O     O_R   0.672300 0.322330 0.542880 -0.520740
Br1   Br    Br    0.455262 0.843677 0.411872 -0.441114
N1    N     N_2   0.225943 0.521853 0.308149 -0.478050
H54   H     H_    0.255703 0.528845 0.282765 0.254436
C121  C     C_3   0.144210 0.497800 0.303058 -0.269947
H55   H     H_    0.112790 0.514878 0.273151 0.128059
H56   H     H_    0.080137 0.542742 0.323091 0.131695
H57   H     H_    0.175397 0.414945 0.308073 0.198339
N2    N     N_2   0.289676 0.452799 0.381997 -0.465150
H58   H     H_    0.363171 0.416409 0.393293 0.271823
C122  C     C_3   0.221168 0.423270 0.398649 -0.244801
H59   H     H_    0.260360 0.338573 0.400625 0.178215
H60   H     H_    0.151044 0.449156 0.380506 0.145163
H61   H     H_    0.198061 0.456978 0.427880 0.159795
Br2   Br    Br    0.916405 0.101678 0.091619 -0.553507
Br3   Br    Br    0.455076 0.176237 0.330683 -0.507787
N3    N     N_2   0.853289 0.124387 0.177407 -0.490208
H62   H     H_    0.927844 0.073717 0.169922 0.284974
C123  C     C_3   0.837429 0.223603 0.189407 -0.221861
H63   H     H_    0.841159 0.265574 0.164210 0.201742
H64   H     H_    0.898107 0.213760 0.210662 0.198302
H65   H     H_    0.761871 0.269173 0.203282 0.186560
N4    N     N_2   0.817264 0.965011 0.214861 -0.500200
H66   H     H_    0.874185 0.917808 0.233937 0.257650
C124  C     C_3   0.792005 0.910871 0.185383 -0.297244
H67   H     H_    0.825205 0.913935 0.157684 0.173318
H68   H     H_    0.707790 0.943759 0.181539 0.147867
H69   H     H_    0.825922 0.829232 0.193177 0.124227
Br4   Br    Br    0.850467 0.154032 0.318273 -0.455226
Br5   Br    Br    0.844731 0.212806 0.409899 -0.404577
Br6   Br    Br    0.850479 0.668774 0.800144 -0.584323
Br7   Br    Br    0.808161 0.462890 0.211270 -0.582743
N5    N     N_2   0.329384 0.500602 0.708849 -0.511040
H70   H     H_    0.350763 0.521235 0.684201 0.253536
C125  C     C_3   0.332990 0.402996 0.704952 -0.272773
H71   H     H_    0.403170 0.347822 0.689507 0.148401
H72   H     H_    0.265467 0.411259 0.688116 0.137667
H73   H     H_    0.334728 0.371619 0.733711 0.200975
N6    N     N_2   0.314604 0.511261 0.789440 -0.493449
H74   H     H_    0.295809 0.486901 0.813728 0.258266
C126  C     C_3   0.391213 0.541065 0.797137 -0.298305
H75   H     H_    0.454999 0.481698 0.814680 0.134814
H76   H     H_    0.357256 0.614855 0.813396 0.132011
H77   H     H_    0.423003 0.548876 0.769786 0.166693
N7    N     N_2   0.225764 0.788684 0.671214 -0.530564
H78   H     H_    0.231301 0.776165 0.700408 0.256053
C127  C     C_3   0.161256 0.895424 0.661683 -0.307406
H79   H     H_    0.182562 0.942974 0.680416 0.145044
H80   H     H_    0.079451 0.919443 0.666345 0.146780
H81   H     H_    0.171579 0.908880 0.631280 0.158509
N8    N     N_2   0.502676 0.101488 0.916280 -0.483364
H82   H     H_    0.502335 0.126822 0.944133 0.251053
C128  C     C_3   0.480624 0.018538 0.911999 -0.241970
H83   H     H_    0.497379 0.976969 0.939496 0.151142
H84   H     H_    0.526451 0.963801 0.888824 0.171774
H85   H     H_    0.397928 0.050428 0.904968 0.175308
N9    N     N_2   0.817370 0.118681 0.897881 -0.480455
H86   H     H_    0.872132 0.104904 0.877775 0.241407
C129  C     C_3   0.791817 0.209016 0.921098 -0.276147
H87   H     H_    0.863182 0.203911 0.933369 0.149444
H88   H     H_    0.742151 0.215322 0.945283 0.165236
H89   H     H_    0.751572 0.278735 0.903165 0.126969
Br8   Br    Br    0.420568 0.148614 0.831094 -0.551022
N10   N     N_2   0.661698 0.986580 0.699000 -0.523950
H90   H     H_    0.690286 0.987340 0.672506 0.264235
C130  C     C_3   0.594529 0.943378 0.697914 -0.295144
H91   H     H_    0.628166 0.873367 0.679458 0.154933
H92   H     H_    0.518171 0.999380 0.685763 0.147002
H93   H     H_    0.585468 0.921181 0.727131 0.167761
Br9   Br    Br    0.472612 0.181520 0.564210 -0.486832

loop_
_geom_bond_atom_site_label_1
_geom_bond_atom_site_label_2
_ccdc_geom_bond_type
C8    C9    A    
C129  H89   S    
C44   O23   A    
C79   C80   A    
N8    C128  S    
C75   C76   A    
C103  H41   S    
C94   H33   S    
C22   C98   S    
C7    H45   S    
C15   C18   A    
C52   N1    S    
C69   H19   S    
C41   C42   A    
C14   C18   A    
C95   C96   A    
Cr2   O26   S    
C3    C11   S    
Cr4   O13   S    
C72   C76   A    
C25   C118  S    
C44   O1    A    
C114  C115  A    
C85   C91   A    
C123  H65   S    
C112  N7    S    
C6    H46   S    
C85   C86   A    
C108  C109  A    
C108  H38   S    
C6    C11   A    
C59   C64   A    
C101  C102  A    
Cr5   O9    S    
C28   C37   S    
C66   C97   S    
C36   C37   A    
C21   C59   S    
Cr3   O3    S    
C77   C117  S    
C69   C70   A    
C122  H60   S    
C19   O7    A    
N9    H86   S    
C65   H17   S    
C98   C104  A    
C89   H29   S    
C41   H9    S    
C46   H8    S    
C64   H15   S    
Cr5   O16   S    
N6    H74   S    
Cr4   O19   S    
N8    H82   S    
C92   C96   A    
C121  H57   S    
C72   Br4   S    
C121  H55   S    
C129  H88   S    
C128  H83   S    
Cr6   O11   S    
C2    C13   A    
C14   Br9   S    
C118  C119  A    
C109  H39   S    
Cr3   O4    S    
C109  C111  A    
C19   O8    A    
C13   H2    S    
C110  H42   S    
Cr2   O2    S    
C54   H14   S    
C125  H71   S    
C44   C58   S    
C16   C17   A    
N6    C126  S    
C106  N5    S    
Cr4   O14   S    
C62   C71   S    
C27   H25   S    
C107  C108  A    
C22   O14   A    
C43   H13   S    
C70   C71   A    
Cr5   O15   S    
Cr2   O20   S    
C9    C10   A    
C35   H3    S    
C63   H20   S    
C74   C78   A    
Cr2   O21   S    
C42   C51   S    
C39   C45   A    
C84   H23   S    
Cr6   O19   S    
C10   H47   S    
Cr2   O5    S    
C105  C111  A    
C59   C60   A    
C104  H35   S    
C120  Br8   S    
C80   H22   S    
N5    H70   S    
C47   H7    S    
C5    N9    S    
C1    C78   S    
C130  H93   S    
C102  C111  S    
C61   C62   A    
C29   H49   S    
C15   H51   S    
C77   O24   A    
C112  C113  A    
C124  H67   S    
C81   C82   A    
Cr1   O1    S    
N2    C122  S    
C30   H52   S    
C55   O26   A    
C9    N10   S    
C54   C56   A    
N7    C127  S    
C74   C75   A    
Cr3   O22   S    
C4    H50   S    
C67   C68   A    
C114  C117  A    
C47   C48   A    
C74   H21   S    
C48   C57   S    
C35   C38   A    
C25   O18   A    
C70   N4    S    
Cr1   O24   S    
C123  H63   S    
C127  H79   S    
C10   C11   A    
C60   Br2   S    
C113  H40   S    
N9    C129  S    
C16   H44   S    
C86   C87   A    
C68   C69   A    
C127  H81   S    
C99   H1    S    
C33   O21   A    
C65   C67   A    
N2    H58   S    
C99   C110  A    
C46   C51   A    
C125  H72   S    
C40   C41   A    
C34   Br1   S    
C82   C91   S    
N1    H54   S    
C13   C24   A    
C60   C61   A    
C128  H84   S    
C35   C36   A    
C32   C34   A    
C23   O17   A    
Cr6   O10   S    
C122  H59   S    
C20   O10   A    
C29   C30   A    
C86   H26   S    
C20   O9    A    
N3    H62   S    
C24   C88   A    
C100  H34   S    
N4    H66   S    
C101  H37   S    
C30   C31   A    
C73   C78   A    
C87   C96   S    
C62   C63   A    
C123  H64   S    
C50   C51   A    
N7    H78   S    
C114  H43   S    
C94   C95   A    
C92   H30   S    
C95   H24   S    
C85   H27   S    
C32   C37   A    
C1    O20   A    
C119  C120  A    
C93   H31   S    
C43   C45   A    
C73   Br5   S    
C56   H6    S    
C19   C39   S    
C18   C55   S    
Cr1   O5    S    
C113  C117  A    
C1    O12   A    
Cr6   O18   S    
C48   C49   A    
N4    C124  S    
C127  H80   S    
N10   C130  S    
Cr5   O19   S    
C45   H5    S    
C98   C100  A    
C126  H76   S    
C26   C27   A    
C49   C50   A    
C130  H92   S    
C80   C81   A    
C83   C84   A    
C68   C76   S    
C42   C43   A    
C90   C91   A    
C3    C4    A    
C93   C97   A    
C112  C116  A    
C52   C53   A    
Cr3   O5    S    
C12   H48   S    
C54   C58   A    
C26   Br7   S    
C56   C57   A    
C40   H4    S    
C46   C47   A    
C28   C29   A    
C53   N2    S    
C122  H61   S    
Cr3   O23   S    
C34   C38   A    
C66   O2    A    
C22   O15   A    
C33   C38   S    
Cr1   O25   S    
C12   C14   A    
C4    C5    A    
C25   O13   A    
C119  N8    S    
Cr1   O12   S    
C52   C57   A    
C49   H10   S    
C53   C58   A    
C50   H12   S    
C21   O6    A    
C6    C7    A    
C24   H11   S    
C124  H69   S    
C105  C106  A    
C8    C17   S    
C94   C97   A    
C5    C118  A    
Cr5   O8    S    
C128  H85   S    
C23   C79   S    
C115  H36   S    
N5    C125  S    
C36   H18   S    
C124  H68   S    
C65   C71   A    
C12   C17   A    
Cr4   O7    S    
C21   O11   A    
C79   C84   A    
C83   H32   S    
C75   Br3   S    
C72   C73   A    
C129  H87   S    
C55   O25   A    
C20   C88   S    
C33   O22   A    
C92   C93   A    
C77   O4    A    
C90   Br6   S    
C125  H73   S    
C66   O3    A    
C102  C103  A    
C61   N3    S    
C107  C116  S    
C88   C99   A    
C7    C8    A    
C3    C120  A    
C81   H28   S    
C63   C64   A    
C39   C40   A    
Cr6   O17   S    
C26   C31   A    
N10   H90   S    
N3    C123  S    
C82   C83   A    
C106  C107  A    
C126  H77   S    
C23   O16   A    
C103  C104  A    
N1    C121  S    
C87   C89   A    
C121  H56   S    
Cr4   O6    S    
C2    C31   S    
C100  C101  A    
C32   H53   S    
C115  C116  A    
C89   C90   A    
C126  H75   S    
C67   H16   S    
C105  N6    S    
C130  H91   S    
C15   C16   A    
C27   C28   A    
C2    C110  A    
