data_mof_unit_6272.cif
_audit_creation_date              2012-12-11T15:15:45-0500
_audit_creation_method            fapswitch 2.2
_symmetry_space_group_name_H-M    P1
_symmetry_Int_Tables_number       1
_space_group_crystal_system       triclinic
_cell_length_a                    20.367607
_cell_length_b                    22.838437
_cell_length_c                    6.939664
_cell_angle_alpha                 90.000309
_cell_angle_beta                  87.441411
_cell_angle_gamma                 89.999981
_cell_volume                      3224.86591937

loop_
_atom_site_label
_atom_site_type_symbol
_atom_type_description
_atom_site_fract_x
_atom_site_fract_y
_atom_site_fract_z
_atom_type_partial_charge
O1    O     O_R   0.387100 0.552640 0.378490 -0.548775
O2    O     O_R   0.612900 0.052640 0.621510 -0.548776
O3    O     O_R   0.249610 0.559600 0.072250 -0.541033
O4    O     O_R   0.750390 0.059600 0.927750 -0.541033
O5    O     O_R   0.249120 0.447360 0.902040 -0.527855
O6    O     O_R   0.750880 0.947360 0.097960 -0.527855
C1    C     C_R   0.228129 0.574699 0.243684 0.755274
C2    C     C_R   0.771871 0.074699 0.756316 0.755274
O7    O     O_R   0.386610 0.559560 0.048860 -0.530286
O8    O     O_R   0.613390 0.059560 0.951140 -0.530286
O9    O     O_R   0.387100 0.447320 0.878470 -0.526127
O10   O     O_R   0.612900 0.947320 0.121530 -0.526127
C3    C     C_R   0.408548 0.574446 0.214592 0.752847
C4    C     C_R   0.591452 0.074446 0.785409 0.752848
O11   O     O_R   0.249120 0.552680 0.402050 -0.543666
O12   O     O_R   0.750880 0.052680 0.597950 -0.543666
O13   O     O_3   0.318110 0.463180 0.223790 -0.368293
O14   O     O_3   0.681890 0.963180 0.776210 -0.368293
V1    V     V_3+5 0.318110 0.506830 0.948930 1.500159
V2    V     V_3+5 0.681890 0.006830 0.051070 1.500159
O15   O     O_R   0.386610 0.440400 0.548840 -0.552924
O16   O     O_R   0.613390 0.940400 0.451160 -0.552924
C5    C     C_R   0.408086 0.425133 0.715181 0.829805
C6    C     C_R   0.591914 0.925133 0.284819 0.829805
O17   O     O_R   0.249610 0.440440 0.572240 -0.538781
O18   O     O_R   0.750390 0.940440 0.427760 -0.538780
C7    C     C_R   0.227028 0.426203 0.743757 0.738348
C8    C     C_R   0.772972 0.926203 0.256242 0.738347
V3    V     V_3+5 0.318110 0.493170 0.448930 1.460001
V4    V     V_3+5 0.681890 0.993170 0.551070 1.460000
O19   O     O_3   0.318110 0.536820 0.723940 -0.380562
O20   O     O_3   0.681890 0.036820 0.276060 -0.380562
C9    C     C_R   0.176762 0.379277 0.755643 -0.080429
C10   C     C_R   0.823238 0.879277 0.244355 -0.080429
C11   C     C_R   0.177848 0.336731 0.608466 -0.150665
C12   C     C_R   0.822153 0.836732 0.391533 -0.150662
C13   C     C_R   0.131936 0.291511 0.610631 -0.127692
C14   C     C_R   0.868065 0.791512 0.389368 -0.127695
C15   C     C_R   0.083668 0.287840 0.759453 -0.032749
C16   C     C_R   0.916333 0.787840 0.240544 -0.032752
C17   C     C_R   0.081554 0.330013 0.906403 -0.172876
C18   C     C_R   0.918445 0.830012 0.093592 -0.172874
C19   C     C_R   0.127761 0.375519 0.906626 0.154445
C20   C     C_R   0.872239 0.875518 0.093370 0.154444
C21   C     C_R   0.871492 0.208366 0.884193 0.482139
C22   C     C_R   0.128508 0.708366 0.115810 0.482142
C23   C     C_R   0.824803 0.162826 0.892927 -0.263946
C24   C     C_R   0.175197 0.662826 0.107075 -0.263947
C25   C     C_R   0.866170 0.125893 0.583885 -0.187980
C26   C     C_R   0.133830 0.625894 0.416116 -0.187978
C27   C     C_R   0.915018 0.169006 0.577459 0.209086
C28   C     C_R   0.084982 0.669007 0.422543 0.209084
C29   C     C_R   0.918797 0.209498 0.730277 0.042055
C30   C     C_R   0.081203 0.709498 0.269726 0.042055
C31   C     C_2   0.034384 0.239793 0.759000 0.469825
C32   C     C_2   0.965616 0.739793 0.240997 0.469828
C33   C     C_2   0.971381 0.254055 0.731875 -0.140660
C34   C     C_2   0.028619 0.754056 0.268128 -0.140659
C35   C     C_R   0.821767 0.121621 0.743385 -0.139600
C36   C     C_R   0.178233 0.621621 0.256617 -0.139600
H1    H     H_    0.214811 0.338094 0.491334 0.137885
H2    H     H_    0.785190 0.838095 0.508667 0.137886
H3    H     H_    0.790771 0.159421 0.016645 0.137797
H4    H     H_    0.209229 0.659421 0.983357 0.137798
H5    H     H_    0.863926 0.094905 0.466205 0.166587
H6    H     H_    0.136074 0.594905 0.533795 0.166587
H7    H     H_    0.957028 0.299846 0.725586 0.119633
H8    H     H_    0.042972 0.799846 0.274424 0.119633
H9    H     H_    0.043851 0.327377 0.021234 0.161948
H10   H     H_    0.956148 0.827375 0.978761 0.161949
H11   H     H_    0.133810 0.259421 0.495517 0.141092
H12   H     H_    0.866192 0.759422 0.504482 0.141091
C37   C     C_R   0.579692 0.362120 0.742746 0.083133
C38   C     C_R   0.420308 0.862120 0.257251 0.083132
H13   H     H_    0.670697 0.275547 0.718694 0.153142
H14   H     H_    0.329303 0.775548 0.281303 0.153142
C39   C     C_R   0.462741 0.382005 0.719040 -0.260011
C40   C     C_R   0.537259 0.882005 0.280958 -0.260012
C41   C     C_R   0.471994 0.095194 0.831673 0.448840
C42   C     C_R   0.528006 0.595194 0.168330 0.448840
C43   C     C_R   0.419538 0.135552 0.852707 -0.259965
C44   C     C_R   0.580463 0.635552 0.147296 -0.259965
C45   C     C_R   0.429159 0.195094 0.821540 -0.199852
C46   C     C_R   0.570842 0.695094 0.178462 -0.199851
C47   C     C_R   0.491349 0.217946 0.766204 0.119347
C48   C     C_R   0.508651 0.717946 0.233797 0.119348
C49   C     C_R   0.545760 0.178260 0.758700 0.000714
C50   C     C_R   0.454240 0.678260 0.241301 0.000713
C51   C     C_R   0.501985 0.279732 0.736160 -0.038747
C52   C     C_R   0.498015 0.779732 0.263838 -0.038747
C53   C     C_R   0.567628 0.301131 0.735411 -0.021163
C54   C     C_R   0.432372 0.801130 0.264586 -0.021162
C55   C     C_R   0.620176 0.261121 0.729050 -0.109638
C56   C     C_R   0.379824 0.761121 0.270947 -0.109639
C57   C     C_R   0.609441 0.201060 0.733617 -0.182972
C58   C     C_R   0.390559 0.701060 0.266382 -0.182971
C59   C     C_R   0.450283 0.321297 0.707916 0.306896
C60   C     C_R   0.549717 0.821297 0.292083 0.306895
C61   C     C_R   0.527230 0.402091 0.738061 0.359454
C62   C     C_R   0.472769 0.902091 0.261937 0.359456
C63   C     C_R   0.535699 0.116861 0.786502 -0.178799
C64   C     C_R   0.464301 0.616861 0.213499 -0.178799
H15   H     H_    0.387388 0.222763 0.854924 0.193906
H16   H     H_    0.612612 0.722762 0.145078 0.193906
H17   H     H_    0.370415 0.122130 0.898624 0.126788
H18   H     H_    0.629586 0.622128 0.101380 0.126788
H19   H     H_    0.652066 0.172665 0.727010 0.091727
H20   H     H_    0.347934 0.672666 0.272989 0.091726
I1    I     I_    0.980286 0.171530 0.330353 -0.343101
I2    I     I_    0.019713 0.671531 0.669647 -0.343102
O21   O     O_3   0.538609 0.461215 0.763193 -0.533558
C65   C     C_3   0.550075 0.487319 0.580950 -0.165819
H21   H     H_    0.592667 0.466816 0.501255 0.151245
H22   H     H_    0.561823 0.534253 0.601996 0.158733
H23   H     H_    0.505846 0.485066 0.493264 0.147998
O22   O     O_3   0.461391 0.961215 0.236805 -0.533557
C66   C     C_3   0.449925 0.987320 0.419048 -0.165818
H24   H     H_    0.407333 0.966816 0.498743 0.151244
H25   H     H_    0.438177 0.034254 0.398002 0.158733
H26   H     H_    0.494154 0.985067 0.506734 0.147996
I3    I     I_    0.676342 0.396612 0.776224 -0.482018
I4    I     I_    0.323659 0.896612 0.223771 -0.482017
O23   O     O_3   0.387534 0.303962 0.665183 -0.569867
C67   C     C_3   0.386964 0.290971 0.466522 -0.248125
H27   H     H_    0.419187 0.252969 0.428491 0.149012
H28   H     H_    0.401633 0.329623 0.376760 0.147043
H29   H     H_    0.336126 0.278999 0.430997 0.153905
O24   O     O_3   0.612466 0.803962 0.334816 -0.569867
C68   C     C_3   0.613036 0.790973 0.533478 -0.248123
H30   H     H_    0.580813 0.752972 0.571512 0.149012
H31   H     H_    0.598367 0.829626 0.623238 0.147044
H32   H     H_    0.663874 0.779002 0.569003 0.153904
O25   O     O_3   0.465658 0.034925 0.864172 -0.557321
C69   C     C_3   0.400088 0.014982 0.881354 -0.158105
H33   H     H_    0.370868 0.029842 0.758887 0.098666
H34   H     H_    0.376654 0.028579 0.021984 0.183413
H35   H     H_    0.400541 0.966446 0.877744 0.199484
O26   O     O_3   0.534342 0.534924 0.135831 -0.557322
C70   C     C_3   0.599912 0.514981 0.118647 -0.158107
H36   H     H_    0.629132 0.529841 0.241114 0.098667
H37   H     H_    0.623346 0.528578 0.978016 0.183415
H38   H     H_    0.599459 0.466445 0.122255 0.199484
O27   O     O_3   0.876377 0.248995 0.032232 -0.541917
C71   C     C_3   0.814415 0.273109 0.086313 -0.191615
H39   H     H_    0.787568 0.244196 0.191612 0.134434
H40   H     H_    0.784099 0.282219 0.959854 0.135232
H41   H     H_    0.822363 0.315511 0.159653 0.188713
O28   O     O_3   0.123623 0.748995 0.967771 -0.541917
C72   C     C_3   0.185586 0.773109 0.913692 -0.191615
H42   H     H_    0.212432 0.744196 0.808392 0.134434
H43   H     H_    0.215901 0.782218 0.040152 0.135232
H44   H     H_    0.177637 0.815511 0.840354 0.188713
I5    I     I_    0.116455 0.437547 0.134151 -0.371264
I6    I     I_    0.883544 0.937545 0.865842 -0.371267
O29   O     O_3   0.051296 0.180664 0.770162 -0.529976
C73   C     C_3   0.108710 0.172129 0.873151 -0.128366
H45   H     H_    0.106798 0.196480 0.012323 0.139118
H46   H     H_    0.153169 0.184341 0.783648 0.119497
H47   H     H_    0.112801 0.124900 0.907852 0.177731
O30   O     O_3   0.948705 0.680664 0.229827 -0.529976
C74   C     C_3   0.891289 0.672129 0.126844 -0.128361
H48   H     H_    0.893199 0.696481 0.987674 0.139117
H49   H     H_    0.846831 0.684340 0.216353 0.119496
H50   H     H_    0.887198 0.624900 0.092138 0.177730

loop_
_geom_bond_atom_site_label_1
_geom_bond_atom_site_label_2
_ccdc_geom_bond_type
V4    O20   S    
C50   C58   A    
O6    C8    A    
O13   V3    S    
O21   C65   S    
C62   O22   S    
O4    C2    A    
V1    O19   S    
O24   C68   S    
C69   H35   S    
C65   H22   S    
C74   H48   S    
O23   C67   S    
C15   C17   A    
C13   H11   S    
C7    C9    S    
C31   O29   S    
O9    V1    S    
C25   H5    S    
C67   H28   S    
C73   H45   S    
C11   C13   A    
C46   C48   A    
O3    C1    A    
C72   H43   S    
C2    C35   S    
C23   H3    S    
C50   C64   A    
C70   H38   S    
C48   C50   A    
C60   O24   S    
C24   H4    S    
O12   V4    S    
O27   C71   S    
C18   H10   S    
O22   C66   S    
C38   C54   A    
O7    C3    A    
C74   H49   S    
C49   C63   A    
O7    V1    S    
C15   C31   S    
O8    V2    S    
C16   C32   S    
C49   C57   A    
C40   C60   A    
C26   C28   A    
C66   H25   S    
O3    V1    S    
O14   V4    S    
C51   C53   A    
C10   C12   A    
C24   C36   A    
H14   C56   S    
C21   C23   A    
C58   H20   S    
C8    C10   S    
C2    O12   A    
O5    C7    A    
C57   H19   S    
C17   C19   A    
O10   V2    S    
C18   C20   A    
C33   H7    S    
C71   H41   S    
C12   H2    S    
O1    V3    S    
C65   H21   S    
C43   C45   A    
C28   C30   A    
O11   V3    S    
C22   C24   A    
C47   C49   A    
O17   V3    S    
C41   O25   S    
C14   H12   S    
C23   C35   A    
C9    C19   A    
C10   C20   A    
O28   C72   S    
C37   C53   A    
C71   H40   S    
C48   C52   A    
C66   H26   S    
C41   C43   A    
C29   C33   S    
C71   H39   S    
C4    C63   S    
C38   C62   A    
C1    O11   A    
C25   C27   A    
O15   V3    S    
C51   C59   A    
C27   C29   A    
C40   C62   A    
C53   C55   A    
C52   C54   A    
C28   I2    S    
C61   O21   S    
C22   C30   A    
C54   C56   A    
C11   H1    S    
C31   C33   D    
C5    C39   S    
C56   C58   A    
C26   H6    S    
C45   H15   S    
C67   H29   S    
C59   O23   S    
C34   H8    S    
C45   C47   A    
O18   V4    S    
C37   I3    S    
O15   C5    A    
O8    C4    A    
O25   C69   S    
C46   H16   S    
O16   C6    A    
C72   H44   S    
O1    C3    A    
O13   V1    S    
C12   C14   A    
C1    C36   S    
C74   H50   S    
H13   C55   S    
C17   H9    S    
C68   H30   S    
V2    O20   S    
C6    C40   S    
C37   C61   A    
C43   H17   S    
C47   C51   A    
O16   V4    S    
C38   I4    S    
O18   C8    A    
C73   H47   S    
C16   C18   A    
C69   H34   S    
C70   H36   S    
C69   H33   S    
O5    V1    S    
O17   C7    A    
O6    V2    S    
O10   C6    A    
C44   C46   A    
C25   C35   A    
O2    V4    S    
C20   I6    S    
O30   C74   S    
C68   H32   S    
C73   H46   S    
C26   C36   A    
V3    O19   S    
C19   I5    S    
C72   H42   S    
C14   C16   A    
C70   H37   S    
C55   C57   A    
C42   O26   S    
O9    C5    A    
C22   O28   S    
C9    C11   A    
C42   C44   A    
C32   C34   D    
C39   C61   A    
O14   V2    S    
C44   H18   S    
O2    C4    A    
O26   C70   S    
C21   C29   A    
O4    V2    S    
C13   C15   A    
C30   C34   S    
C27   I1    S    
C42   C64   A    
O29   C73   S    
C21   O27   S    
C41   C63   A    
C39   C59   A    
C3    C64   S    
C66   H24   S    
C52   C60   A    
C65   H23   S    
C67   H27   S    
C68   H31   S    
C32   O30   S    
