data_mof_unit_11764.cif
_audit_creation_date              2012-12-10T20:34:15-0500
_audit_creation_method            fapswitch 2.2
_symmetry_space_group_name_H-M    P1
_symmetry_Int_Tables_number       1
_space_group_crystal_system       triclinic
_cell_length_a                    9.889206
_cell_length_b                    10.601193
_cell_length_c                    13.601886
_cell_angle_alpha                 90.241034
_cell_angle_beta                  83.055809
_cell_angle_gamma                 89.327402
_cell_volume                      1415.40536039

loop_
_atom_site_label
_atom_site_type_symbol
_atom_type_description
_atom_site_fract_x
_atom_site_fract_y
_atom_site_fract_z
_atom_type_partial_charge
C1    C     C_R   0.500209 0.739810 0.491052 0.887862
C2    C     C_3   0.237933 0.933841 0.498278 0.327672
C3    C     C_R   0.916190 0.559828 0.573799 0.093948
C4    C     C_R   0.475493 0.499208 0.685768 0.933165
C5    C     C_R   0.940228 0.449358 0.423644 -0.086795
C6    C     C_R   0.083090 0.445095 0.424566 0.431986
C7    C     C_R   0.058804 0.560907 0.573278 -0.098955
C8    C     C_3   0.047228 0.532505 0.681786 0.243259
C9    C     C_3   0.892884 0.531208 0.682126 0.192428
C10   C     C_R   0.502292 0.259659 0.492783 0.893728
C11   C     C_R   0.524369 0.500492 0.314268 0.867689
C12   C     C_1   0.455785 0.492898 0.789607 -0.175839
C13   C     C_1   0.542803 0.500850 0.210382 -0.152675
C14   C     C_2   0.552186 0.498065 0.018718 -0.269927
C15   C     C_2   0.434398 0.480795 0.982601 0.528943
C16   C     C_1   0.440926 0.486681 0.877453 -0.169423
C17   C     C_1   0.553143 0.500301 0.122512 0.080172
C18   C     C_3   0.204717 0.417230 0.003074 0.123777
C19   C     C_3   0.114928 0.522131 0.967135 -0.342444
C20   C     C_3   0.977967 0.471268 0.945100 -0.942323
C21   C     C_3   0.138915 0.802101 0.386753 0.115856
C22   C     C_3   0.210142 0.806457 0.280389 -0.373305
C23   C     C_R   0.383583 0.937735 0.448993 0.036556
C24   C     C_3   0.184764 0.687451 0.222367 -0.875438
C25   C     C_R   0.502737 0.869318 0.461377 -0.253336
C26   C     C_R   0.628795 0.930305 0.444109 -0.192385
C27   C     C_R   0.632486 0.061124 0.441407 0.433752
C28   C     C_R   0.508222 0.128647 0.465963 -0.237657
C29   C     C_R   0.386958 0.065356 0.460808 0.021163
C30   C     C_3   0.250927 0.073698 0.520727 -0.415408
H1    H     H_    0.083270 0.611174 0.725751 0.086895
H2    H     H_    0.237930 0.348066 0.942789 0.137444
H3    H     H_    0.096008 0.596684 0.024944 0.228798
H4    H     H_    0.167759 0.565494 0.899112 0.226178
H5    H     H_    0.993312 0.391603 0.891571 0.301287
H6    H     H_    0.919049 0.547311 0.913048 0.247210
H7    H     H_    0.918165 0.438038 0.014355 0.258865
H8    H     H_    0.236576 0.340831 0.377096 0.377186
H9    H     H_    0.082325 0.351139 0.654973 0.371967
H10   H     H_    0.811887 0.406257 0.772795 0.335836
H11   H     H_    0.745940 0.192002 0.380630 0.335415
H12   H     H_    0.837262 0.608579 0.726249 0.048208
H13   H     H_    0.030643 0.776359 0.384892 0.154866
H14   H     H_    0.183945 0.727346 0.429089 0.158509
H15   H     H_    0.171670 0.889296 0.241798 0.246486
H16   H     H_    0.321597 0.816851 0.281240 0.218818
H17   H     H_    0.223233 0.603089 0.258445 0.318854
H18   H     H_    0.239263 0.694144 0.146335 0.276996
H19   H     H_    0.074193 0.676778 0.217389 0.250367
H20   H     H_    0.647389 0.511029 0.970912 0.116176
H21   H     H_    0.724271 0.877994 0.438652 0.192621
H22   H     H_    0.258488 0.093402 0.600253 0.155270
H23   H     H_    0.178912 0.136307 0.486384 0.243002
H24   H     H_    0.218957 0.873938 0.565435 0.078962
H25   H     H_    0.895637 0.404839 0.363694 0.160255
H26   H     H_    0.142536 0.362979 0.061522 0.183131
N1    N     N_R   0.857130 0.500860 0.500650 -0.102626
N2    N     N_R   0.142770 0.500820 0.500650 -0.155628
O1    O     O_R   0.385310 0.683210 0.499990 -0.649292
O2    O     O_3   0.157742 0.378249 0.349693 -0.765903
O3    O     O_3   0.104940 0.415133 0.703785 -0.714005
O4    O     O_3   0.836669 0.411368 0.700079 -0.695790
O5    O     O_3   0.757656 0.117428 0.422574 -0.724504
O6    O     O_3   0.139845 0.922777 0.430721 -0.605385
O7    O     O_R   0.614650 0.683240 0.500000 -0.621714
O8    O     O_R   0.368820 0.499950 0.640340 -0.566853
O9    O     O_R   0.598170 0.499990 0.640350 -0.566984
O10   O     O_R   0.385350 0.316760 0.500000 -0.634278
O11   O     O_R   0.614690 0.316790 0.500010 -0.573889
O12   O     O_R   0.401830 0.500010 0.359650 -0.608921
O13   O     O_R   0.631180 0.500050 0.359660 -0.638936
O14   O     O_3   0.314022 0.469115 0.047341 -0.639464
Zn1   Zn    Zn3+2 0.346870 0.499980 0.499990 0.946021
Zn2   Zn    Zn3+2 0.653130 0.500020 0.500010 0.982507

loop_
_geom_bond_atom_site_label_1
_geom_bond_atom_site_label_2
_ccdc_geom_bond_type
N1    Zn2   S    
O13   Zn2   S    
C1    C25   S    
O11   Zn2   S    
C19   H4    S    
C29   C30   S    
C3    C9    S    
C10   O10   A    
C4    C12   S    
C21   H14   S    
O1    Zn1   S    
C7    N2    A    
C1    O7    A    
C19   C20   S    
C14   C15   D    
C5    N1    A    
C8    O3    S    
C2    C30   S    
C20   H7    S    
C2    C23   S    
O12   Zn1   S    
C23   C25   A    
O10   Zn1   S    
C11   O12   A    
C7    C8    S    
O9    Zn2   S    
C2    H24   S    
C26   H21   S    
C4    O8    A    
C15   O14   S    
C11   C13   S    
C14   C17   S    
C9    H12   S    
C14   H20   S    
C11   O13   A    
C27   O5    S    
C13   C17   T    
H8    O2    S    
C23   C29   A    
C28   C29   A    
C8    H1    S    
C2    O6    S    
C3    N1    A    
C3    C7    A    
C1    O1    A    
C26   C27   A    
C5    C6    A    
H9    O3    S    
C30   H23   S    
C22   C24   S    
C18   O14   S    
C18   H2    S    
H11   O5    S    
C24   H17   S    
C9    O4    S    
C24   H18   S    
C10   O11   A    
C6    O2    S    
C27   C28   A    
C22   H15   S    
H10   O4    S    
C18   C19   S    
C19   H3    S    
C10   C28   S    
C24   H19   S    
C6    N2    A    
C18   H26   S    
C20   H5    S    
C30   H22   S    
C12   C16   T    
C22   H16   S    
C25   C26   A    
C21   C22   S    
O8    Zn1   S    
C5    H25   S    
C21   H13   S    
O7    Zn2   S    
C15   C16   S    
N2    Zn1   S    
C8    C9    S    
C21   O6    S    
C4    O9    A    
C20   H6    S    
