data_mof_unit_14761.cif
_audit_creation_date              2012-12-11T17:43:22-0500
_audit_creation_method            fapswitch 2.2
_symmetry_space_group_name_H-M    P1
_symmetry_Int_Tables_number       1
_space_group_crystal_system       triclinic
_cell_length_a                    15.072851
_cell_length_b                    15.199231
_cell_length_c                    17.232043
_cell_angle_alpha                 109.168046
_cell_angle_beta                  106.09613
_cell_angle_gamma                 109.583742
_cell_volume                      3163.04256947

loop_
_atom_site_label
_atom_site_type_symbol
_atom_type_description
_atom_site_fract_x
_atom_site_fract_y
_atom_site_fract_z
_atom_type_partial_charge
C1    C     C_R   0.087611 0.274467 0.031038 -0.096718
C2    C     C_R   0.915526 0.710746 0.921867 -0.109029
C3    C     C_R   0.025380 0.472893 0.726677 0.019020
C4    C     C_R   0.971937 0.447866 0.262159 0.032069
C5    C     C_R   0.663552 0.216881 0.745016 0.065282
C6    C     C_R   0.244195 0.803532 0.273847 0.061915
C7    C     C_R   0.359916 0.564443 0.058109 0.045330
C8    C     C_R   0.711430 0.539460 0.030099 0.062171
C9    C     C_R   0.937507 0.929569 0.983017 0.168582
C10   C     C_R   0.058956 0.044678 0.918619 0.156331
C11   C     C_R   0.003189 0.897390 0.951484 -0.061321
C12   C     C_R   0.989451 0.072132 0.947517 -0.056046
C13   C     C_R   0.059787 0.950590 0.913401 -0.087439
C14   C     C_R   0.915168 0.002169 0.962397 -0.073024
C15   C     C_R   0.753538 0.928006 0.820710 -0.162876
C16   C     C_R   0.215211 0.957250 0.883381 -0.129370
C17   C     C_R   0.586949 0.900074 0.823441 -0.118908
C18   C     C_R   0.190010 0.833019 0.737876 -0.079114
C19   C     C_R   0.491663 0.678550 0.349953 -0.113272
C20   C     C_R   0.523308 0.434063 0.736397 -0.113574
C21   C     C_R   0.502984 0.670515 0.270460 -0.135359
C22   C     C_R   0.528377 0.451969 0.822793 -0.120209
C23   C     C_R   0.934127 0.450816 0.736685 -0.166112
C24   C     C_R   0.064322 0.496306 0.258189 -0.184743
C25   C     C_R   0.527338 0.593332 0.224246 0.114978
C26   C     C_R   0.556906 0.553529 0.887692 0.080320
C27   C     C_R   0.541802 0.525667 0.260069 -0.164177
C28   C     C_R   0.577584 0.636105 0.864233 -0.146504
C29   C     C_R   0.530857 0.534348 0.339851 -0.108552
C30   C     C_R   0.573105 0.617871 0.777943 -0.110142
C31   C     C_R   0.505581 0.610523 0.384620 -0.099310
C32   C     C_R   0.546166 0.516976 0.714126 -0.123047
C33   C     C_R   0.622074 0.573693 0.126817 -0.223376
C34   C     C_R   0.481094 0.587008 0.993130 -0.216963
C35   C     C_R   0.631897 0.564413 0.046247 0.083125
C36   C     C_R   0.463931 0.584395 0.067986 0.060966
C37   C     C_R   0.561151 0.572993 0.979156 0.031604
C38   C     C_R   0.537275 0.583453 0.138718 0.024399
C39   C     C_R   0.646762 0.894223 0.774788 -0.141758
C40   C     C_R   0.255582 0.923360 0.822137 -0.084595
C41   C     C_R   0.962589 0.443852 0.340604 0.126535
C42   C     C_R   0.025838 0.451935 0.639871 0.130104
C43   C     C_R   0.093804 0.404816 0.530886 -0.216791
C44   C     C_R   0.887678 0.477814 0.445358 -0.241447
C45   C     C_R   0.719236 0.215033 0.822897 -0.140564
C46   C     C_R   0.225247 0.797390 0.187929 -0.126347
C47   C     C_R   0.094059 0.418609 0.614730 -0.186991
C48   C     C_R   0.891776 0.472244 0.365429 -0.158821
C49   C     C_R   0.956815 0.469877 0.582781 -0.300645
C50   C     C_R   0.028167 0.418452 0.393090 -0.316814
C51   C     C_R   0.955476 0.456203 0.500202 0.195111
C52   C     C_R   0.025483 0.424891 0.473989 0.197015
C53   C     C_R   0.554958 0.142022 0.677331 0.131910
C54   C     C_R   0.285902 0.898582 0.359971 0.131758
C55   C     C_R   0.390220 0.088067 0.447625 -0.226188
C56   C     C_R   0.408460 0.966575 0.602652 -0.222720
C57   C     C_R   0.323685 0.998681 0.364016 -0.156703
C58   C     C_R   0.500117 0.047667 0.678565 -0.175922
C59   C     C_R   0.301462 0.890468 0.441053 -0.280400
C60   C     C_R   0.509972 0.159090 0.604333 -0.291930
C61   C     C_R   0.373719 0.978367 0.524271 0.193299
C62   C     C_R   0.421989 0.076906 0.526632 0.194140
C63   C     C_R   0.634086 0.940649 0.918107 -0.130832
C64   C     C_R   0.083989 0.776305 0.714838 -0.117491
C65   C     C_R   0.741523 0.977203 0.964715 -0.119689
C66   C     C_R   0.042821 0.811488 0.774907 -0.150537
C67   C     C_R   0.303610 0.599522 0.011261 -0.166143
C68   C     C_R   0.738487 0.466790 0.047590 -0.159452
C69   C     C_R   0.802249 0.970620 0.916365 0.143412
C70   C     C_R   0.107778 0.903435 0.858947 0.163741
C71   C     C_R   0.725999 0.309502 0.747753 -0.126545
C72   C     C_R   0.221970 0.703202 0.264506 -0.125093
C73   C     C_R   0.294578 0.497532 0.078508 -0.079202
C74   C     C_R   0.754746 0.565892 0.975901 -0.078991
C75   C     C_R   0.109156 0.545143 0.811372 0.163228
C76   C     C_R   0.890326 0.406586 0.178731 0.138722
C77   C     C_R   0.913225 0.193950 0.951152 -0.142400
C78   C     C_R   0.088026 0.797816 0.003016 -0.131753
C79   C     C_R   0.998122 0.176415 0.970564 0.139802
C80   C     C_R   0.003715 0.803989 0.954187 0.115923
H1    H     H_    0.167163 0.288956 0.063362 0.114979
H2    H     H_    0.837494 0.685942 0.873626 0.107824
H3    H     H_    0.798491 0.921058 0.781789 0.129563
H4    H     H_    0.266564 0.028072 0.947933 0.127398
H5    H     H_    0.496862 0.616884 0.446214 0.097244
H6    H     H_    0.542439 0.502900 0.647242 0.100985
H7    H     H_    0.472174 0.737613 0.384711 0.113003
H8    H     H_    0.501229 0.355844 0.686601 0.115175
H9    H     H_    0.492565 0.724351 0.244880 0.116689
H10   H     H_    0.510588 0.387167 0.839351 0.123691
H11   H     H_    0.560017 0.465221 0.225631 0.107701
H12   H     H_    0.598370 0.714568 0.913133 0.147488
H13   H     H_    0.541572 0.481675 0.366785 0.103807
H14   H     H_    0.590317 0.681835 0.760461 0.130904
H15   H     H_    0.679396 0.571264 0.179282 0.126330
H16   H     H_    0.424356 0.586790 0.938208 0.127099
H17   H     H_    0.082185 0.396329 0.371873 0.132596
H18   H     H_    0.906254 0.498554 0.604183 0.122308
H19   H     H_    0.842812 0.494049 0.324820 0.118149
H20   H     H_    0.147539 0.404948 0.660104 0.139567
H21   H     H_    0.147662 0.380781 0.511416 0.134552
H22   H     H_    0.834314 0.502139 0.465632 0.126998
H23   H     H_    0.854997 0.402044 0.683521 0.117690
H24   H     H_    0.142310 0.523443 0.307751 0.106581
H25   H     H_    0.610140 0.862287 0.701349 0.117538
H26   H     H_    0.337819 0.966804 0.840202 0.111403
H27   H     H_    0.548729 0.231746 0.602384 0.110207
H28   H     H_    0.267631 0.814718 0.439721 0.119419
H29   H     H_    0.530972 0.033199 0.734982 0.120231
H30   H     H_    0.309009 0.008100 0.302947 0.118863
H31   H     H_    0.425040 0.164004 0.449121 0.124651
H32   H     H_    0.370960 0.891708 0.602209 0.119658
H33   H     H_    0.503976 0.872592 0.787725 0.101214
H34   H     H_    0.221571 0.806412 0.690939 0.101119
H35   H     H_    0.586944 0.942925 0.955146 0.130248
H36   H     H_    0.033366 0.706182 0.649770 0.122343
H37   H     H_    0.776829 0.009078 0.038053 0.146300
H38   H     H_    0.959699 0.769356 0.754511 0.110407
H39   H     H_    0.688177 0.162819 0.849489 0.096514
H40   H     H_    0.234954 0.860651 0.170326 0.098089
H41   H     H_    0.338785 0.667366 0.002538 0.125323
H42   H     H_    0.714372 0.430492 0.087103 0.101436
H43   H     H_    0.702987 0.345292 0.706550 0.083900
H44   H     H_    0.231510 0.679626 0.317366 0.092036
H45   H     H_    0.315463 0.463200 0.121960 0.101965
H46   H     H_    0.752301 0.622355 0.951886 0.138775
H47   H     H_    0.832185 0.138432 0.907842 0.125707
H48   H     H_    0.169518 0.853040 0.029318 0.087040
N1    N     N_R   0.055660 0.348550 0.045620 -0.048481
N2    N     N_R   0.944340 0.651450 0.954380 -0.037484
N3    N     N_R   0.960830 0.507850 0.823700 -0.054937
N4    N     N_R   0.039170 0.492150 0.176300 -0.045039
N5    N     N_R   0.811290 0.303410 0.871650 -0.037786
N6    N     N_R   0.188710 0.696590 0.128350 -0.045530
N7    N     N_R   0.205200 0.552990 0.997670 -0.036972
N8    N     N_R   0.794800 0.447010 0.002330 -0.044297
N9    N     N_R   0.814800 0.361830 0.823700 -0.035916
N10   N     N_R   0.185200 0.638170 0.176300 -0.040056
N11   N     N_R   0.201680 0.494570 0.045620 -0.038295
N12   N     N_R   0.798320 0.505430 0.954380 -0.046912
N13   N     N_R   0.068420 0.560530 0.871650 -0.059550
N14   N     N_R   0.931580 0.439470 0.128350 -0.055334
N15   N     N_R   0.948070 0.295860 0.997670 -0.049117
N16   N     N_R   0.051930 0.704140 0.002330 -0.041639
Ni1   Ni    Ni4+2 0.119340 0.493420 0.109960 0.217687
Ni2   Ni    Ni4+2 0.880660 0.506580 0.890040 0.213414
Ni3   Ni    Ni4+2 0.872590 0.372590 0.000000 0.211147
Ni4   Ni    Ni4+2 0.127410 0.627410 0.000000 0.207240
C81   C     C_3   0.216349 0.617950 0.827060 -0.463488
C82   C     C_3   0.252886 0.732838 0.893321 -0.217040
C83   C     C_3   0.364358 0.804409 0.913317 -0.963979
H49   H     H_    0.419637 0.779396 0.944975 0.260140
H50   H     H_    0.368584 0.801583 0.849292 0.261891
H51   H     H_    0.388769 0.886954 0.961204 0.251360
H52   H     H_    0.198967 0.759214 0.862890 0.215602
H53   H     H_    0.248883 0.740930 0.958378 0.183955
H54   H     H_    0.271799 0.589143 0.849893 0.187896
H55   H     H_    0.214835 0.615710 0.761634 0.197364
C84   C     C_3   0.782073 0.317339 0.141447 -0.480700
C85   C     C_3   0.783989 0.221460 0.151580 -0.204432
C86   C     C_3   0.673614 0.138380 0.122548 -0.945929
H56   H     H_    0.641132 0.169730 0.169125 0.265571
H57   H     H_    0.621642 0.115889 0.051842 0.258600
H58   H     H_    0.675640 0.067305 0.125825 0.254915
H59   H     H_    0.818820 0.187694 0.108694 0.192280
H60   H     H_    0.831960 0.243815 0.223264 0.211819
H61   H     H_    0.738535 0.345895 0.176960 0.186530
H62   H     H_    0.739935 0.290516 0.067366 0.192349
I1    I     I_    0.872749 0.873197 0.064169 -0.494308
I2    I     I_    0.141902 0.134001 0.864571 -0.450087

loop_
_geom_bond_atom_site_label_1
_geom_bond_atom_site_label_2
_ccdc_geom_bond_type
C29   H13   S    
C63   C65   A    
C76   C84   S    
N5    N9    A    
C31   H5    S    
N2    Ni2   S    
C34   C37   A    
C7    C36   S    
C9    I1    S    
N16   Ni4   S    
C19   C31   A    
C18   H34   S    
C77   N15   A    
C86   H56   S    
C17   H33   S    
C7    C73   A    
C21   H9    S    
C13   C70   S    
N7    N11   A    
C64   H36   S    
N4    Ni1   S    
C5    C53   S    
C35   C37   A    
C34   H16   S    
C19   H7    S    
C4    C24   A    
C78   C80   A    
C43   C52   A    
C27   C29   A    
C4    C41   S    
N10   Ni1   S    
C1    H1    S    
C58   H29   S    
C12   C79   S    
C33   H15   S    
C16   H4    S    
C3    C42   S    
C84   H62   S    
N3    Ni2   S    
C60   C62   A    
C17   C39   A    
C83   H51   S    
C18   C40   A    
C75   N13   A    
N13   Ni4   S    
C2    N2    A    
C49   H18   S    
C3    C23   A    
C23   H23   S    
C84   C85   S    
C84   H61   S    
C49   C51   A    
C50   C52   A    
C83   H49   S    
C27   H11   S    
N5    Ni3   S    
C85   H60   S    
C3    C75   A    
C81   H55   S    
N1    Ni1   S    
C77   H47   S    
N8    N12   A    
C63   H35   S    
C45   H39   S    
C72   N10   A    
C1    N1    A    
C78   H48   S    
C82   H53   S    
C72   H44   S    
C6    C54   S    
C67   H41   S    
C86   H57   S    
C53   C60   A    
C54   C59   A    
C77   C79   A    
N4    N14   A    
C15   C69   A    
C59   C61   A    
C23   N3    A    
C51   C52   A    
N9    Ni2   S    
C68   N8    A    
C16   C70   A    
C71   N9    A    
N12   Ni2   S    
C44   H22   S    
C15   H3    S    
C73   N11   A    
C74   N12   A    
C47   H20   S    
C24   H24   S    
C8    C35   S    
C64   C66   A    
C6    C72   A    
C9    C14   A    
C43   H21   S    
C67   N7    A    
C74   H46   S    
C78   N16   A    
C25   C38   S    
C46   N6    A    
C24   N4    A    
C57   H30   S    
C73   H45   S    
C29   C31   A    
C32   H6    S    
C8    C74   A    
C22   H10   S    
C46   H40   S    
C28   H12   S    
C85   H59   S    
C9    C11   A    
C15   C39   A    
C60   H27   S    
C10   C12   A    
C16   C40   A    
C44   C51   A    
C12   C14   A    
N15   Ni3   S    
C82   H52   S    
C55   C57   A    
C66   H38   S    
C1    C79   A    
C14   C69   S    
C2    H2    S    
C10   I2    S    
C68   H42   S    
C41   C50   A    
C86   H58   S    
N2    N16   A    
C40   H26   S    
C20   C32   A    
C71   H43   S    
C39   H25   S    
C48   H19   S    
C21   C25   A    
N11   Ni1   S    
C50   H17   S    
C6    C46   A    
C55   H31   S    
C82   C83   S    
C45   N5    A    
N14   Ni3   S    
C33   C38   A    
C20   C22   A    
C10   C13   A    
N3    N13   A    
N6    N10   A    
C53   C58   A    
C26   C37   S    
C8    C68   A    
N1    N15   A    
C25   C27   A    
N6    Ni4   S    
C26   C28   A    
C59   H28   S    
C85   C86   S    
C28   C30   A    
C30   H14   S    
C81   C82   S    
C17   C63   A    
C30   C32   A    
C11   C13   A    
C18   C64   A    
C66   C70   A    
C5    C45   A    
C75   C81   S    
C65   C69   A    
C20   H8    S    
C36   C38   A    
C33   C35   A    
C41   C48   A    
C56   C58   A    
C34   C36   A    
C42   C47   A    
C83   H50   S    
C61   C62   A    
C4    C76   A    
N8    Ni3   S    
C2    C80   A    
C11   C80   S    
C42   C49   A    
C7    C67   A    
C55   C62   A    
C5    C71   A    
N7    Ni4   S    
C22   C26   A    
C65   H37   S    
C56   C61   A    
C81   H54   S    
C43   C47   A    
C56   H32   S    
C44   C48   A    
C19   C21   A    
C54   C57   A    
C76   N14   A    
