data_mof_unit_23229.cif
_audit_creation_date              2012-12-10T18:06:49-0500
_audit_creation_method            fapswitch 2.2
_symmetry_space_group_name_H-M    P1
_symmetry_Int_Tables_number       1
_space_group_crystal_system       triclinic
_cell_length_a                    12.599902
_cell_length_b                    13.037321
_cell_length_c                    15.40085
_cell_angle_alpha                 83.266193
_cell_angle_beta                  98.764003
_cell_angle_gamma                 96.646834
_cell_volume                      2470.7165194

loop_
_atom_site_label
_atom_site_type_symbol
_atom_type_description
_atom_site_fract_x
_atom_site_fract_y
_atom_site_fract_z
_atom_type_partial_charge
C1    C     C_R   0.442421 0.308159 0.507713 0.855152
C2    C     C_R   0.644289 0.394100 0.939680 0.148967
C3    C     C_R   0.538713 0.419540 0.904003 0.088412
C4    C     C_R   0.434348 0.509348 0.336071 0.873747
C5    C     C_R   0.723957 0.396739 0.883599 0.096848
C6    C     C_R   0.698330 0.427760 0.793113 -0.229637
C7    C     C_R   0.518088 0.454790 0.814708 -0.263956
C8    C     C_R   0.616758 0.940576 0.345264 -0.199496
C9    C     C_R   0.578620 0.803142 0.459973 -0.184114
C10   C     C_R   0.334321 0.156985 0.571946 -0.230747
C11   C     C_R   0.302950 0.051234 0.581531 -0.125561
C12   C     C_R   0.420094 0.440176 0.105208 0.012083
C13   C     C_R   0.348151 0.983798 0.536943 0.104388
C14   C     C_R   0.428300 0.024665 0.482023 0.060610
C15   C     C_R   0.441897 0.132565 0.459055 0.020304
C16   C     C_R   0.555279 0.692514 0.486755 0.884425
C17   C     C_R   0.497729 0.964253 0.450749 0.061147
C18   C     C_R   0.552017 0.004043 0.377777 0.037048
C19   C     C_R   0.542669 0.107449 0.341378 0.083842
C20   C     C_R   0.491982 0.171802 0.384453 -0.173717
C21   C     C_R   0.521205 0.868696 0.495334 -0.310512
C22   C     C_R   0.630980 0.840666 0.385689 0.444841
C23   C     C_R   0.310870 0.452794 0.070566 0.116146
C24   C     C_R   0.404098 0.198183 0.511095 -0.099292
C25   C     C_R   0.138891 0.635859 0.628115 -0.296353
C26   C     C_R   0.757104 0.387717 0.389487 -0.116037
C27   C     C_R   0.852715 0.369215 0.361145 0.419802
C28   C     C_R   0.563780 0.484369 0.664368 0.869969
C29   C     C_R   0.950204 0.411448 0.404142 -0.202903
C30   C     C_R   0.952593 0.475267 0.472782 -0.077536
C31   C     C_R   0.853407 0.494676 0.496275 0.222677
C32   C     C_R   0.048946 0.522339 0.517393 0.019220
C33   C     C_R   0.044306 0.589383 0.583032 0.198227
C34   C     C_R   0.490864 0.411438 0.051470 0.072155
C35   C     C_R   0.945408 0.609438 0.602890 -0.286153
C36   C     C_R   0.851229 0.562886 0.559703 -0.202584
C37   C     C_R   0.150664 0.505275 0.499965 -0.053039
C38   C     C_R   0.236946 0.615290 0.607874 0.002493
C39   C     C_R   0.390410 0.495477 0.244183 -0.059151
C40   C     C_R   0.595827 0.457932 0.759040 -0.088864
C41   C     C_R   0.241676 0.481619 0.125206 -0.127285
C42   C     C_R   0.281141 0.502223 0.211700 -0.224321
C43   C     C_R   0.458498 0.465294 0.190667 -0.222756
C44   C     C_R   0.458619 0.417500 0.959669 0.036727
C45   C     C_R   0.348125 0.423542 0.926580 -0.350706
C46   C     C_R   0.273653 0.438858 0.981783 0.426736
C47   C     C_R   0.593706 0.379473 0.086143 -0.209264
C48   C     C_R   0.668216 0.368619 0.030841 -0.214411
H1    H     H_    0.657511 0.967670 0.288661 0.166645
H2    H     H_    0.163112 0.454936 0.452656 0.128026
H3    H     H_    0.679939 0.355728 0.357540 0.138371
H4    H     H_    0.021941 0.395219 0.380315 0.162956
H5    H     H_    0.777816 0.582996 0.576453 0.210061
H6    H     H_    0.758570 0.429132 0.749632 0.162442
H7    H     H_    0.746299 0.344898 0.060510 0.182916
H8    H     H_    0.157443 0.489820 0.101014 0.194011
H9    H     H_    0.226411 0.523565 0.252831 0.166646
H10   H     H_    0.543224 0.465299 0.215580 0.164835
H11   H     H_    0.317711 0.414184 0.858233 0.147165
H12   H     H_    0.491901 0.841978 0.557207 0.163570
H13   H     H_    0.617564 0.360631 0.156043 0.146938
H14   H     H_    0.153421 0.434787 0.885735 0.333490
H15   H     H_    0.875693 0.366000 0.867654 0.197686
H16   H     H_    0.869310 0.428972 0.955200 0.200964
H17   H     H_    0.737195 0.743286 0.397476 0.351325
H18   H     H_    0.671530 0.144378 0.275865 0.192029
H19   H     H_    0.554567 0.107308 0.211921 0.199853
H20   H     H_    0.311669 0.843446 0.484120 0.216280
H21   H     H_    0.329639 0.837232 0.597407 0.168489
H22   H     H_    0.778593 0.298729 0.261953 0.318247
H23   H     H_    0.302814 0.206866 0.611331 0.166457
H24   H     H_    0.243128 0.021298 0.624128 0.152956
H25   H     H_    0.490157 0.252331 0.357853 0.158630
H26   H     H_    0.311577 0.649118 0.642502 0.128445
H27   H     H_    0.441872 0.483686 0.787794 0.168697
H28   H     H_    0.940745 0.661380 0.651959 0.157240
H29   H     H_    0.136944 0.686862 0.678475 0.149979
N1    N     N_R   0.239390 0.551900 0.544730 -0.103253
N2    N     N_R   0.759950 0.448600 0.455730 -0.138887
N3    N     N_3   0.830510 0.369181 0.918711 -0.449101
N4    N     N_3   0.588621 0.150754 0.263967 -0.488373
N5    N     N_3   0.298816 0.878752 0.538596 -0.461345
O1    O     O_R   0.374950 0.371210 0.521360 -0.611723
O2    O     O_3   0.692792 0.781829 0.348685 -0.753060
O3    O     O_3   0.853699 0.312602 0.291153 -0.765852
O4    O     O_R   0.542050 0.338030 0.492790 -0.605952
O5    O     O_R   0.368720 0.526070 0.390200 -0.613956
O6    O     O_R   0.535820 0.492890 0.361630 -0.614639
O7    O     O_R   0.457950 0.661970 0.507210 -0.606686
O8    O     O_R   0.625050 0.628790 0.478640 -0.627954
O9    O     O_R   0.464180 0.507110 0.638370 -0.620185
O10   O     O_R   0.631280 0.473930 0.609800 -0.630401
O11   O     O_3   0.165816 0.445333 0.949358 -0.788877
Zn1   Zn    Zn3+2 0.388420 0.522150 0.519080 0.937033
Zn2   Zn    Zn3+2 0.611580 0.477850 0.480920 0.940289

loop_
_geom_bond_atom_site_label_1
_geom_bond_atom_site_label_2
_ccdc_geom_bond_type
C48   H7    S    
C16   O8    A    
C27   C29   A    
C41   C42   A    
C19   C20   A    
O8    Zn2   S    
C4    O5    A    
C45   C46   A    
C12   C23   A    
C2    C48   A    
C26   C27   A    
C25   H29   S    
C9    C16   S    
C12   C43   A    
C3    C7    A    
C30   C31   A    
C9    C22   A    
C28   C40   S    
O5    Zn1   S    
C18   C19   A    
O7    Zn1   S    
C27   O3    S    
H21   N5    S    
C43   H10   S    
C35   C36   A    
C8    C22   A    
C7    C40   A    
C36   H5    S    
C10   H23   S    
O6    Zn2   S    
C16   O7    A    
C23   C46   A    
C13   C14   A    
H16   N3    S    
C14   C17   A    
C6    H6    S    
C42   H9    S    
C39   C42   A    
H15   N3    S    
C15   C20   A    
C3    C44   A    
C35   H28   S    
C34   C44   A    
C21   H12   S    
O4    Zn2   S    
C11   H24   S    
H17   O2    S    
C7    H27   S    
C38   N1    A    
C10   C24   A    
O1    Zn1   S    
C13   N5    S    
O10   Zn2   S    
C8    C18   A    
C22   O2    S    
C41   H8    S    
N2    Zn2   S    
C29   C30   A    
C25   C38   A    
C47   C48   A    
C4    C39   S    
C17   C18   A    
C28   O10   A    
C32   C37   A    
C5    N3    S    
C15   C24   A    
H19   N4    S    
C6    C40   A    
C2    C5    A    
C12   C34   A    
C44   C45   A    
C38   H26   S    
C1    O4    A    
C45   H11   S    
C31   C36   A    
C47   H13   S    
C39   C43   A    
C31   N2    A    
C4    O6    A    
C1    O1    A    
C37   N1    A    
C26   N2    A    
C23   C41   A    
H20   N5    S    
C32   C33   A    
C2    C3    A    
C26   H3    S    
H18   N4    S    
C30   C32   A    
C37   H2    S    
C11   C13   A    
C9    C21   A    
C5    C6    A    
C46   O11   S    
N1    Zn1   S    
C33   C35   A    
C20   H25   S    
C28   O9    A    
C17   C21   A    
C10   C11   A    
C1    C24   S    
H14   O11   S    
C14   C15   A    
C34   C47   A    
C19   N4    S    
H22   O3    S    
C8    H1    S    
C25   C33   A    
O9    Zn1   S    
C29   H4    S    
