data_mof_unit_22864.cif
_audit_creation_date              2012-12-11T14:14:33-0500
_audit_creation_method            fapswitch 2.2
_symmetry_space_group_name_H-M    P1
_symmetry_Int_Tables_number       1
_space_group_crystal_system       triclinic
_cell_length_a                    24.426334
_cell_length_b                    17.28486
_cell_length_c                    15.664677
_cell_angle_alpha                 90.000515
_cell_angle_beta                  128.939856
_cell_angle_gamma                 89.999805
_cell_volume                      5144.18960689

loop_
_atom_site_label
_atom_site_type_symbol
_atom_type_description
_atom_site_fract_x
_atom_site_fract_y
_atom_site_fract_z
_atom_type_partial_charge
C1    C     C_R   0.334540 0.388025 0.206256 -0.111679
C2    C     C_R   0.665462 0.388034 0.793747 -0.111495
C3    C     C_R   0.834534 0.888049 0.206240 -0.111254
C4    C     C_R   0.165462 0.888036 0.793749 -0.111403
C5    C     C_R   0.412065 0.642825 0.591649 -0.100922
C6    C     C_R   0.587933 0.642823 0.408351 -0.100927
C7    C     C_R   0.912060 0.142821 0.591649 -0.100932
C8    C     C_R   0.087939 0.142820 0.408352 -0.100932
C9    C     C_R   0.362955 0.686882 0.500010 0.139363
C10   C     C_R   0.637044 0.686879 0.499991 0.139379
C11   C     C_R   0.862947 0.186874 0.500009 0.139372
C12   C     C_R   0.137054 0.186873 0.499992 0.139366
C13   C     C_R   0.359484 0.643588 0.151827 -0.039228
C14   C     C_R   0.640516 0.643587 0.848174 -0.039191
C15   C     C_R   0.859485 0.143594 0.151832 -0.039270
C16   C     C_R   0.140510 0.143605 0.848160 -0.039323
C17   C     C_2   0.647529 0.797758 0.415304 -0.156658
C18   C     C_2   0.352459 0.797756 0.584693 -0.156689
C19   C     C_2   0.147545 0.297753 0.415317 -0.156649
C20   C     C_2   0.852459 0.297754 0.584687 -0.156633
C21   C     C_2   0.664447 0.762713 0.504973 -0.213865
C22   C     C_2   0.335547 0.762712 0.495028 -0.213872
C23   C     C_2   0.164466 0.262700 0.504981 -0.213865
C24   C     C_2   0.835537 0.262701 0.495021 -0.213860
C25   C     C_2   0.198939 0.348085 0.423601 0.104247
C26   C     C_2   0.801066 0.348087 0.576404 0.104245
C27   C     C_2   0.698910 0.848104 0.423571 0.104297
C28   C     C_2   0.301066 0.848090 0.576402 0.104267
C29   C     C_2   0.267993 0.329275 0.495723 -0.261640
C30   C     C_2   0.732010 0.329277 0.504279 -0.261629
C31   C     C_2   0.767970 0.829337 0.495736 -0.261593
C32   C     C_2   0.232012 0.829276 0.504280 -0.261623
C33   C     C_2   0.691353 0.327857 0.962518 -0.197365
C34   C     C_2   0.308655 0.327826 0.037499 -0.197500
C35   C     C_2   0.191353 0.827860 0.962522 -0.197280
C36   C     C_2   0.808641 0.827896 0.037452 -0.197180
C37   C     C_2   0.760815 0.327987 0.018662 -0.055005
C38   C     C_2   0.239189 0.328002 0.981322 -0.055064
C39   C     C_2   0.260815 0.827982 0.018663 -0.055025
C40   C     C_2   0.739183 0.827983 0.981339 -0.054997
C41   C     C_2   0.327014 0.706697 0.072893 -0.052580
C42   C     C_2   0.672992 0.706693 0.927114 -0.052589
C43   C     C_2   0.827014 0.206703 0.072895 -0.052609
C44   C     C_2   0.172972 0.206725 0.927084 -0.052627
C45   C     C_R   0.611833 0.387124 0.410304 -0.138054
C46   C     C_R   0.388170 0.387123 0.589697 -0.138040
C47   C     C_R   0.111829 0.887121 0.410303 -0.138025
C48   C     C_R   0.888160 0.887146 0.589695 -0.138039
C49   C     C_2   0.301505 0.765710 0.095170 -0.158714
C50   C     C_2   0.698511 0.765698 0.904846 -0.158757
C51   C     C_2   0.801512 0.265718 0.095175 -0.158667
C52   C     C_2   0.198470 0.265743 0.904797 -0.158599
C53   C     C_R   0.684322 0.386517 0.593521 -0.084582
C54   C     C_R   0.315679 0.386520 0.406482 -0.084649
C55   C     C_R   0.184320 0.886515 0.593520 -0.084532
C56   C     C_R   0.815669 0.886536 0.406480 -0.084478
C57   C     C_R   0.576302 0.387344 0.797911 0.057811
C58   C     C_R   0.423701 0.387333 0.202095 0.057847
C59   C     C_R   0.076301 0.887343 0.797911 0.057805
C60   C     C_R   0.923694 0.887358 0.202077 0.057777
C61   C     C_R   0.354485 0.364363 0.145201 0.086745
C62   C     C_R   0.645520 0.364381 0.854808 0.086763
C63   C     C_R   0.854474 0.864406 0.145171 0.086766
C64   C     C_R   0.145520 0.864383 0.854811 0.086755
C65   C     C_R   0.677521 0.363970 0.503115 0.125884
C66   C     C_R   0.322482 0.363970 0.496888 0.125886
C67   C     C_R   0.177518 0.863966 0.503113 0.125875
C68   C     C_R   0.822463 0.864006 0.496887 0.125867
C69   C     C_R   0.339267 0.643790 0.408999 -0.147653
C70   C     C_R   0.660733 0.643789 0.591001 -0.147651
C71   C     C_R   0.839261 0.143785 0.408998 -0.147664
C72   C     C_R   0.160740 0.143784 0.591002 -0.147657
C73   C     C_R   0.427125 0.617142 0.206493 -0.160661
C74   C     C_R   0.572875 0.617142 0.793508 -0.160714
C75   C     C_R   0.927126 0.117146 0.206496 -0.160627
C76   C     C_R   0.072872 0.117150 0.793501 -0.160566
C77   C     C_R   0.664872 0.613158 0.795946 0.074476
C78   C     C_R   0.335129 0.613160 0.204057 0.074477
C79   C     C_R   0.164868 0.113172 0.795937 0.074511
C80   C     C_R   0.835129 0.113164 0.204059 0.074502
H1    H     H_    0.282566 0.387080 0.183107 0.138257
H2    H     H_    0.717434 0.387093 0.816891 0.138169
H3    H     H_    0.782562 0.887115 0.183097 0.138071
H4    H     H_    0.217434 0.887095 0.816893 0.138145
H5    H     H_    0.708016 0.784191 0.585962 0.136713
H6    H     H_    0.291975 0.784184 0.414039 0.136735
H7    H     H_    0.208048 0.284165 0.585973 0.136735
H8    H     H_    0.791956 0.284167 0.414030 0.136732
H9    H     H_    0.286057 0.282517 0.554184 0.144283
H10   H     H_    0.713945 0.282523 0.445813 0.144281
H11   H     H_    0.786044 0.782627 0.554257 0.144270
H12   H     H_    0.213952 0.782519 0.445819 0.144296
H13   H     H_    0.304245 0.763893 0.167208 0.130199
H14   H     H_    0.695782 0.763873 0.832819 0.130202
H15   H     H_    0.804262 0.263906 0.167222 0.130215
H16   H     H_    0.195717 0.263927 0.832750 0.130216
H17   H     H_    0.785756 0.363878 0.995089 0.162557
H18   H     H_    0.214251 0.363939 0.004863 0.162632
H19   H     H_    0.285759 0.863869 0.995090 0.162488
H20   H     H_    0.714239 0.863835 0.004940 0.162424
H21   H     H_    0.667645 0.291846 0.988421 0.145778
H22   H     H_    0.332363 0.291777 0.011626 0.145807
H23   H     H_    0.167642 0.791851 0.988425 0.145768
H24   H     H_    0.832352 0.791915 0.011526 0.145745
H25   H     H_    0.594221 0.386667 0.327667 0.121272
H26   H     H_    0.405785 0.386661 0.672337 0.121271
H27   H     H_    0.094215 0.886660 0.327664 0.121271
H28   H     H_    0.905773 0.886698 0.672335 0.121264
H29   H     H_    0.730774 0.383628 0.678670 0.119554
H30   H     H_    0.269227 0.383634 0.321334 0.119587
H31   H     H_    0.230773 0.883626 0.678669 0.119542
H32   H     H_    0.769220 0.883647 0.321329 0.119515
H33   H     H_    0.299957 0.661963 0.325563 0.110035
H34   H     H_    0.700042 0.661962 0.674437 0.110030
H35   H     H_    0.799950 0.161955 0.325563 0.110049
H36   H     H_    0.200053 0.161953 0.674437 0.110054
H37   H     H_    0.458073 0.622587 0.179329 0.098108
H38   H     H_    0.541926 0.622589 0.820669 0.098097
H39   H     H_    0.958074 0.122594 0.179333 0.098133
H40   H     H_    0.041923 0.122599 0.820663 0.098142
H41   H     H_    0.438706 0.658425 0.675742 0.092116
H42   H     H_    0.561289 0.658424 0.324258 0.092119
H43   H     H_    0.938699 0.158419 0.675742 0.092137
H44   H     H_    0.061300 0.158419 0.324258 0.092136
H45   H     H_    0.601440 0.780572 0.333851 0.132047
H46   H     H_    0.398540 0.780570 0.666148 0.132056
H47   H     H_    0.101446 0.280583 0.333861 0.132087
H48   H     H_    0.898555 0.280582 0.666144 0.132089
N1    N     N_R   0.389060 0.424180 0.294540 -0.062465
N2    N     N_R   0.610940 0.424180 0.705460 -0.062486
N3    N     N_R   0.889060 0.924180 0.294540 -0.062509
N4    N     N_R   0.110940 0.924180 0.705460 -0.062493
N5    N     N_R   0.579670 0.423790 0.443360 -0.046081
N6    N     N_R   0.420330 0.423790 0.556640 -0.046078
N7    N     N_R   0.079670 0.923790 0.443360 -0.046075
N8    N     N_R   0.920330 0.923790 0.556640 -0.046076
N9    N     N_R   0.625470 0.423490 0.556600 -0.051152
N10   N     N_R   0.374530 0.423490 0.443400 -0.051147
N11   N     N_R   0.125470 0.923490 0.556600 -0.051154
N12   N     N_R   0.874530 0.923490 0.443400 -0.051157
N13   N     N_R   0.555250 0.423100 0.705420 -0.063290
N14   N     N_R   0.444750 0.423100 0.294580 -0.063287
N15   N     N_R   0.055250 0.923100 0.705420 -0.063289
N16   N     N_R   0.944750 0.923100 0.294580 -0.063291
N17   N     N_R   0.375210 0.577180 0.443400 -0.044803
N18   N     N_R   0.624790 0.577180 0.556600 -0.044807
N19   N     N_R   0.875210 0.077180 0.443400 -0.044809
N20   N     N_R   0.124790 0.077180 0.556600 -0.044806
N21   N     N_R   0.445430 0.577570 0.294580 -0.044244
N22   N     N_R   0.554570 0.577570 0.705420 -0.044235
N23   N     N_R   0.945430 0.077570 0.294580 -0.044252
N24   N     N_R   0.054570 0.077570 0.705420 -0.044261
N25   N     N_R   0.611620 0.576500 0.705460 -0.059310
N26   N     N_R   0.388380 0.576500 0.294540 -0.059302
N27   N     N_R   0.111620 0.076500 0.705460 -0.059304
N28   N     N_R   0.888380 0.076500 0.294540 -0.059311
N29   N     N_R   0.421010 0.576890 0.556640 -0.046615
N30   N     N_R   0.578990 0.576890 0.443360 -0.046617
N31   N     N_R   0.921010 0.076890 0.556640 -0.046621
N32   N     N_R   0.078990 0.076890 0.443360 -0.046619
Ni1   Ni    Ni4+2 0.383200 0.500680 0.370150 0.221588
Ni2   Ni    Ni4+2 0.616800 0.500680 0.629850 0.221577
Ni3   Ni    Ni4+2 0.883200 0.000680 0.370150 0.221572
Ni4   Ni    Ni4+2 0.116800 0.000680 0.629850 0.221583
Ni5   Ni    Ni4+2 0.512440 0.500680 0.370150 0.219850
Ni6   Ni    Ni4+2 0.487560 0.500680 0.629850 0.219853
Ni7   Ni    Ni4+2 0.012440 0.000680 0.370150 0.219858
Ni8   Ni    Ni4+2 0.987560 0.000680 0.629850 0.219852
C81   C     C_1   0.172501 0.411239 0.346265 0.065403
N33   N     N_1   0.151233 0.461817 0.284435 -0.083423
C82   C     C_1   0.827507 0.411234 0.653752 0.065375
N34   N     N_1   0.848778 0.461806 0.715593 -0.083432
C83   C     C_1   0.672455 0.911187 0.346139 0.065219
N35   N     N_1   0.651169 0.961701 0.284222 -0.083488
C84   C     C_1   0.327501 0.911242 0.653740 0.065281
N36   N     N_1   0.348769 0.961818 0.715572 -0.083479
C85   C     C_2   0.325717 0.701843 0.976651 0.546243
H49   H     H_    0.348334 0.651502 0.967753 -0.002874
O1    O     O_2   0.299806 0.752330 0.906809 -0.610137
C86   C     C_2   0.674290 0.701848 0.023353 0.546336
H50   H     H_    0.651585 0.651589 0.032178 -0.002801
O2    O     O_2   0.700318 0.752234 0.093290 -0.610205
C87   C     C_2   0.825709 0.201849 0.976651 0.546323
H51   H     H_    0.848266 0.151487 0.967698 -0.002836
O3    O     O_2   0.799880 0.252372 0.906890 -0.610198
C88   C     C_2   0.174270 0.201880 0.023320 0.546332
H52   H     H_    0.151830 0.151449 0.032376 -0.002842
O4    O     O_2   0.199948 0.252499 0.092946 -0.610215
C89   C     C_1   0.541987 0.395158 0.845640 -0.000794
N37   N     N_1   0.514986 0.401570 0.885027 -0.090009
C90   C     C_1   0.458017 0.395136 0.154366 -0.000784
N38   N     N_1   0.485017 0.401538 0.114978 -0.090008
C91   C     C_1   0.041984 0.895153 0.845640 -0.000807
N39   N     N_1   0.014984 0.901561 0.885029 -0.090007
C92   C     C_1   0.958014 0.895176 0.154355 -0.000817
N40   N     N_1   0.985018 0.901590 0.114973 -0.090008
C93   C     C_1   0.738037 0.600029 0.848219 -0.007604
N41   N     N_1   0.796794 0.589392 0.890292 -0.081197
C94   C     C_1   0.261962 0.600035 0.151784 -0.007626
N42   N     N_1   0.203206 0.589399 0.109711 -0.081190
C95   C     C_1   0.238036 0.100049 0.848218 -0.007745
N43   N     N_1   0.296794 0.089416 0.890298 -0.081246
C96   C     C_1   0.761963 0.100037 0.151783 -0.007713
N44   N     N_1   0.703206 0.089402 0.109707 -0.081245

loop_
_geom_bond_atom_site_label_1
_geom_bond_atom_site_label_2
_ccdc_geom_bond_type
C15   C75   A    
C82   N34   T    
N5    N9    A    
C69   N17   A    
C81   N33   T    
N26   Ni1   S    
C71   N19   A    
C38   H18   S    
N19   N31   A    
C27   C83   S    
C37   H17   S    
C47   N7    A    
C57   C62   A    
C4    N4    A    
C48   H28   S    
C83   N35   T    
C70   H34   S    
N12   Ni3   S    
C7    C11   A    
N18   Ni2   S    
C12   C23   S    
C69   H33   S    
C59   C64   A    
C76   H40   S    
N17   Ni1   S    
C60   C63   A    
C33   H21   S    
C14   C74   A    
C41   C85   S    
N11   Ni4   S    
C9    C69   A    
C46   C66   A    
C1    N1    A    
C87   O3    D    
N21   Ni5   S    
N20   N32   A    
N9    Ni2   S    
C56   N12   A    
C11   C71   A    
C9    C22   S    
N32   Ni7   S    
C80   C96   S    
C38   C52   S    
C76   N24   A    
C1    H1    S    
N22   Ni6   S    
C5    H41   S    
C11   C24   S    
C55   N11   A    
N31   Ni8   S    
C54   H30   S    
C95   N43   T    
C14   C77   A    
C47   C67   A    
N2    N13   A    
C77   N25   A    
C20   C24   D    
N28   Ni3   S    
C42   C86   S    
C33   C62   S    
C85   O1    D    
N22   N25   A    
N6    Ni6   S    
C35   C64   S    
C70   N18   A    
N3    Ni3   S    
C8    C12   A    
C36   C63   S    
C53   C65   A    
C16   C44   S    
N8    N12   A    
C14   C42   S    
C73   N21   A    
C44   C52   D    
N4    N15   A    
C12   C72   A    
C59   N15   A    
C94   N42   T    
C23   H7    S    
C93   N41   T    
C53   N9    A    
C41   C49   D    
C34   C38   D    
C6    N30   A    
C86   O2    D    
C80   N28   A    
N4    Ni4   S    
N23   Ni7   S    
C10   C21   S    
C25   C29   D    
C31   C68   S    
C74   H38   S    
C5    N29   A    
C21   H5    S    
C73   H37   S    
N16   Ni7   S    
C27   C31   D    
C90   N38   T    
C17   C27   S    
C58   C61   A    
C36   C40   D    
C18   C28   S    
C75   N23   A    
C29   H9    S    
C50   H14   S    
N1    N14   A    
N8    Ni8   S    
C32   H12   S    
C79   C95   S    
C57   C89   S    
C72   N20   A    
C34   C61   S    
C59   C91   S    
C92   N40   T    
N20   Ni4   S    
C19   C23   D    
N21   N26   A    
C17   H45   S    
C87   H51   S    
C5    C9    A    
N5    Ni5   S    
C46   N6    A    
N17   N29   A    
C58   N14   A    
C39   H19   S    
C15   C80   A    
C4    H4    S    
N24   N27   A    
C28   C32   D    
C71   H35   S    
N13   Ni6   S    
C75   H39   S    
C40   C50   S    
C34   H22   S    
N23   N28   A    
C48   C68   A    
C24   H8    S    
C42   C50   D    
C32   C67   S    
C54   C66   A    
C10   C70   A    
C8    H44   S    
C39   C49   S    
C13   C73   A    
C26   C82   S    
C85   H49   S    
C47   H27   S    
C45   C65   A    
C3    N3    A    
C2    H2    S    
C78   C94   S    
N24   Ni8   S    
C88   O4    D    
C8    N32   A    
C58   C90   S    
C86   H50   S    
C53   H29   S    
C72   H36   S    
C13   C78   A    
N7    Ni7   S    
C55   H31   S    
C16   C76   A    
C45   N5    A    
C48   N8    A    
C78   N26   A    
C31   H11   S    
C7    H43   S    
C1    C61   A    
N29   Ni6   S    
N6    N10   A    
C55   C67   A    
C28   C84   S    
C20   H48   S    
C13   C41   S    
N18   N30   A    
C3    C63   A    
N27   Ni4   S    
C4    C64   A    
C35   H23   S    
C57   N13   A    
N25   Ni2   S    
C36   H24   S    
N7    N11   A    
C25   C81   S    
C16   C79   A    
C18   C22   D    
C15   C43   S    
C84   N36   T    
C56   C68   A    
C18   H46   S    
N14   Ni5   S    
C3    H3    S    
N2    Ni2   S    
C54   N10   A    
C20   C26   S    
C43   C51   D    
C37   C51   S    
C35   C39   D    
N1    Ni1   S    
C43   C87   S    
C2    N2    A    
C52   H16   S    
N10   Ni1   S    
C22   H6    S    
C89   N37   T    
C19   C25   S    
C33   C37   D    
N15   Ni8   S    
C30   C65   S    
C6    C10   A    
C46   H26   S    
C79   N27   A    
C29   C66   S    
C7    N31   A    
N30   Ni5   S    
C91   N39   T    
C44   C88   S    
C45   H25   S    
C6    H42   S    
C74   N22   A    
N19   Ni3   S    
C19   H47   S    
C96   N44   T    
C49   H13   S    
C88   H52   S    
C77   C93   S    
C40   H20   S    
C56   H32   S    
C30   H10   S    
C60   N16   A    
N3    N16   A    
C2    C62   A    
C60   C92   S    
C51   H15   S    
C26   C30   D    
C17   C21   D    
