data_mof_unit_9855.cif
_audit_creation_date              2013-03-05T16:33:15-0500
_audit_creation_method            fapswitch 2.2
_symmetry_space_group_name_H-M    P1
_symmetry_Int_Tables_number       1
_space_group_crystal_system       triclinic
_cell_length_a                    27.671804
_cell_length_b                    10.847955
_cell_length_c                    9.527585
_cell_angle_alpha                 90.906715
_cell_angle_beta                  90.037592
_cell_angle_gamma                 89.49333
_cell_volume                      2859.54382728

loop_
_atom_site_label
_atom_site_type_symbol
_atom_site_description
_atom_site_fract_x
_atom_site_fract_y
_atom_site_fract_z
_atom_type_partial_charge
O1    O     O_R   0.500000 0.319640 0.618810 -0.573594
O2    O     O_R   0.500010 0.319680 0.381230 -0.586780
C1    C     C_R   0.499632 0.261951 0.497893 0.795447
O3    O     O_R   0.430260 0.500000 0.618780 -0.584959
O4    O     O_R   0.430270 0.500040 0.381190 -0.594591
C2    C     C_R   0.407636 0.501918 0.499935 0.797409
Cu1   Cu    Cu3+1 0.500000 0.499980 0.640670 0.933281
Cu2   Cu    Cu3+1 0.500000 0.500020 0.359330 0.924536
O5    O     O_R   0.499990 0.680320 0.618770 -0.579435
O6    O     O_R   0.500000 0.680360 0.381190 -0.589949
O7    O     O_R   0.569730 0.499960 0.618810 -0.576689
O8    O     O_R   0.569740 0.500000 0.381220 -0.579000
C3    C     C_R   0.501406 0.737372 0.500703 0.806060
C4    C     C_R   0.592285 0.500336 0.500115 0.787917
C5    C     C_R   0.177822 0.437368 0.392556 0.521612
O9    O     O_2   0.202432 0.403702 0.275660 -0.553473
N1    N     N_R   0.202315 0.476192 0.509649 -0.462262
C6    C     C_R   0.178673 0.506315 0.631727 0.518647
C7    C     C_R   0.275755 0.600235 0.466846 0.110322
C8    C     C_R   0.327184 0.607471 0.464610 0.038004
C9    C     C_R   0.332156 0.392109 0.536053 -0.273475
C10   C     C_R   0.282195 0.385146 0.537777 -0.123304
C11   C     C_R   0.253893 0.487521 0.503869 0.321975
C12   C     C_R   0.102051 0.464875 0.517499 -0.047766
C13   C     C_R   0.127171 0.432990 0.393447 -0.018036
C14   C     C_R   0.101095 0.403570 0.271756 -0.162087
C15   C     C_R   0.128042 0.502154 0.637710 -0.018999
C16   C     C_R   0.354831 0.501517 0.499627 -0.063524
H1    H     H_    0.353385 0.311349 0.562861 0.141412
H2    H     H_    0.265168 0.299582 0.566257 0.146154
H3    H     H_    0.119300 0.387186 0.172481 0.185612
C17   C     C_R   0.644940 0.501930 0.500525 -0.058645
C18   C     C_R   0.974516 0.400297 0.410434 0.009371
C19   C     C_R   0.974696 0.518742 0.633992 0.050594
C20   C     C_R   0.949253 0.463850 0.519780 0.039827
C21   C     C_R   0.947659 0.320875 0.318284 0.074752
C22   C     C_R   0.897188 0.333851 0.313328 -0.185165
C23   C     C_R   0.872406 0.410769 0.408525 -0.047708
C24   C     C_R   0.898167 0.471662 0.515694 -0.051175
C25   C     C_R   0.872753 0.540165 0.619035 -0.011846
C26   C     C_R   0.822159 0.548587 0.611301 0.534098
N2    N     N_R   0.797786 0.490133 0.504807 -0.462737
C27   C     C_R   0.821807 0.422034 0.404295 0.545224
C28   C     C_R   0.719690 0.387690 0.526292 -0.101116
C29   C     C_R   0.669517 0.391186 0.525308 -0.248455
C30   C     C_R   0.670581 0.612163 0.477875 0.041504
C31   C     C_R   0.721544 0.606688 0.478626 -0.100635
C32   C     C_R   0.745912 0.494945 0.502542 0.319083
O10   O     O_2   0.796769 0.365435 0.300524 -0.542726
C33   C     C_R   0.025261 0.416713 0.401695 0.027531
C34   C     C_R   0.050877 0.461417 0.520488 0.064192
C35   C     C_R   0.025702 0.506039 0.640496 0.042512
C36   C     C_R   0.050872 0.399062 0.275206 -0.210478
H4    H     H_    0.649703 0.307172 0.543466 0.140652
H5    H     H_    0.738339 0.301479 0.545927 0.146359
H6    H     H_    0.876813 0.278189 0.239109 0.182017
H7    H     H_    0.032359 0.390335 0.176182 0.143557
O11   O     O_2   0.204108 0.541908 0.746051 -0.545067
C37   C     C_R   0.102945 0.536217 0.759961 -0.154508
H8    H     H_    0.122088 0.563064 0.854699 0.184182
C38   C     C_R   0.948246 0.586429 0.736451 -0.213503
C39   C     C_R   0.898234 0.597572 0.728321 -0.148504
O12   O     O_2   0.797458 0.613128 0.710476 -0.545857
C40   C     C_R   0.052639 0.539179 0.761227 -0.222055
H9    H     H_    0.965509 0.635641 0.821710 0.139464
H10   H     H_    0.879584 0.651380 0.808645 0.184987
H11   H     H_    0.742979 0.687803 0.461142 0.133928
H12   H     H_    0.035658 0.565536 0.859215 0.138513
C41   C     C_R   0.513041 0.066001 0.616056 0.099291
C42   C     C_R   0.503121 0.128030 0.491498 -0.130028
C43   C     C_R   0.500335 0.057857 0.363186 0.069139
C44   C     C_R   0.503598 0.929529 0.369747 -0.271833
H13   H     H_    0.499427 0.875815 0.273715 0.168998
C45   C     C_R   0.506417 0.869679 0.498695 -0.119905
C46   C     C_R   0.514451 0.939279 0.620066 0.114522
C47   C     C_3   0.490437 0.936241 0.760221 -0.468988
C48   C     C_3   0.488665 0.075978 0.755781 -0.460082
H14   H     H_    0.454206 0.892985 0.756623 0.207614
H15   H     H_    0.514904 0.901386 0.843348 0.188579
H16   H     H_    0.451343 0.114203 0.748437 0.198017
H17   H     H_    0.511958 0.120824 0.836474 0.202992
C49   C     C_R   0.541886 0.517516 0.074079 0.266334
N3    N     N_R   0.500300 0.500930 0.147930 -0.187807
C50   C     C_R   0.459466 0.472240 0.073705 -0.089446
H18   H     H_    0.426458 0.450491 0.128013 0.160658
C51   C     C_R   0.459483 0.472050 0.925087 -0.097686
H19   H     H_    0.426493 0.450031 0.869914 0.156337
N4    N     N_R   0.500310 0.500890 0.852020 -0.185927
C52   C     C_R   0.541916 0.517178 0.926568 0.266031
C53   C     C_3   0.573781 0.627095 0.922202 -0.492378
C54   C     C_3   0.573569 0.627965 0.081598 -0.506400
H20   H     H_    0.609806 0.604480 0.876570 0.210509
H21   H     H_    0.555495 0.708542 0.876272 0.205368
H22   H     H_    0.609545 0.606204 0.127365 0.206684
H23   H     H_    0.555032 0.710072 0.128602 0.204279
C55   C     C_3   0.243967 0.711091 0.432395 -0.421111
C56   C     C_3   0.234936 0.719792 0.273853 -0.335045
C57   C     C_3   0.206493 0.836471 0.238913 -0.832457
H24   H     H_    0.170961 0.837025 0.293161 0.254811
H25   H     H_    0.227078 0.919583 0.271599 0.256856
H26   H     H_    0.200140 0.839750 0.123936 0.252984
H27   H     H_    0.269660 0.719901 0.215544 0.221003
H28   H     H_    0.214031 0.638858 0.236724 0.260848
H29   H     H_    0.208601 0.706085 0.486662 0.206928
H30   H     H_    0.260203 0.797543 0.473432 0.207175
C58   C     C_3   0.642401 0.731971 0.456715 -0.408282
C59   C     C_3   0.672824 0.848171 0.437093 -0.354463
C60   C     C_3   0.640551 0.961901 0.419592 -0.823901
H31   H     H_    0.616689 0.950301 0.326568 0.256838
H32   H     H_    0.617920 0.977360 0.514595 0.252917
H33   H     H_    0.663333 0.044392 0.404484 0.244935
H34   H     H_    0.696331 0.863244 0.530355 0.231151
H35   H     H_    0.695772 0.837051 0.341928 0.225108
H36   H     H_    0.618796 0.720276 0.363132 0.202737
H37   H     H_    0.618623 0.747401 0.549583 0.194714
C61   C     C_3   0.487801 0.109430 0.219723 -0.361175
C62   C     C_3   0.433740 0.142659 0.210467 -0.318572
C63   C     C_3   0.417590 0.157837 0.058520 -0.880464
H38   H     H_    0.379913 0.193784 0.055855 0.250086
H39   H     H_    0.441412 0.223069 0.003703 0.254980
H40   H     H_    0.418830 0.067343 0.002368 0.259176
H41   H     H_    0.411818 0.068377 0.257242 0.216424
H42   H     H_    0.425972 0.229373 0.269868 0.232117
H43   H     H_    0.511132 0.187686 0.191385 0.213695
H44   H     H_    0.495925 0.039149 0.136437 0.182317
C64   C     C_3   0.969037 0.206563 0.244796 -0.400020
C65   C     C_3   0.994104 0.120435 0.349277 -0.322991
C66   C     C_3   0.012414 0.002643 0.276586 -0.839877
H45   H     H_    0.981853 0.951293 0.228630 0.253671
H46   H     H_    0.039006 0.025158 0.193742 0.256742
H47   H     H_    0.030393 0.942655 0.354650 0.244998
H48   H     H_    0.025353 0.166956 0.399526 0.232263
H49   H     H_    0.968162 0.095384 0.432998 0.222235
H50   H     H_    0.939805 0.152690 0.193014 0.194200
H51   H     H_    0.993463 0.228709 0.157614 0.190876
C67   C     C_3   0.352465 0.728490 0.434573 -0.428171
C68   C     C_3   0.360213 0.803351 0.570707 -0.339923
C69   C     C_3   0.373807 0.936292 0.540146 -0.877688
H52   H     H_    0.407160 0.938568 0.476073 0.266863
H53   H     H_    0.344112 0.983128 0.482676 0.252922
H54   H     H_    0.380155 0.987337 0.640244 0.242135
H55   H     H_    0.326765 0.804517 0.635257 0.228095
H56   H     H_    0.389467 0.759627 0.633124 0.221475
H57   H     H_    0.387881 0.712149 0.382678 0.203194
H58   H     H_    0.331676 0.783518 0.358036 0.209165

loop_
_geom_bond_atom_site_label_1
_geom_bond_atom_site_label_2
_geom_bond_distance
_ccdc_geom_bond_type
C68   H55   1.111479 S    
C14   C36   1.391487 A    
C64   C65   1.536914 S    
Cu2   N3    2.014336 S    
C17   C29   1.398503 A    
C41   C48   1.494733 S    
C7    C8    1.426181 A    
C47   H15   1.110343 S    
C62   H41   1.111879 S    
C66   H45   1.110862 S    
C56   C57   1.525702 S    
Cu1   Cu2   2.680497 S    
C60   H31   1.111086 S    
Cu1   O7    1.940896 S    
C37   C40   1.392175 A    
N1    C11   1.434810 S    
C49   C52   1.405364 A    
C58   H36   1.111250 S    
C40   H12   1.078850 S    
C21   C22   1.403318 A    
C50   C51   1.415939 A    
C23   C24   1.404655 A    
O7    C4    1.292119 A    
C51   N4    1.368586 A    
C5    C13   1.402878 A    
C58   C59   1.535925 S    
C5    O9    1.349536 S    
C18   C21   1.432461 A    
C25   C39   1.398357 A    
C61   C62   1.538493 S    
Cu1   O5    1.970693 S    
C19   C20   1.421363 A    
C26   N2    1.368479 A    
O5    C3    1.293240 A    
C65   H48   1.109552 S    
C59   H35   1.111673 S    
C63   H38   1.110285 S    
C22   H6    1.083742 S    
C50   H18   1.079788 S    
C6    O11   1.349587 S    
C2    C16   1.461242 S    
Cu1   N4    2.013537 S    
C59   C60   1.527834 S    
C12   C15   1.407823 A    
C42   C43   1.432263 A    
C10   H2    1.083064 S    
C56   H27   1.110231 S    
C12   C34   1.417233 A    
C68   H56   1.111489 S    
C37   H8    1.083492 S    
C9    C10   1.385373 A    
C38   C39   1.390352 A    
O3    Cu1   1.940934 S    
C31   H11   1.080672 S    
N1    C6    1.368495 A    
C47   C48   1.517480 S    
O2    Cu2   1.970695 S    
C33   C36   1.408086 A    
C45   C46   1.389844 A    
C39   H10   1.083410 S    
C47   H14   1.110987 S    
C34   C35   1.415791 A    
C31   C32   1.403604 A    
C1    C42   1.455441 S    
C12   C13   1.408409 A    
C44   C45   1.400429 A    
C35   C40   1.413691 A    
C24   C25   1.408797 A    
C36   H7    1.076519 S    
C51   H19   1.079816 S    
C27   O10   1.349797 S    
C8    C16   1.419129 A    
C13   C14   1.399289 A    
C9    H1    1.084262 S    
O6    C3    1.287890 A    
C19   C38   1.412988 A    
C49   C54   1.491670 S    
O1    C1    1.302395 A    
C63   H40   1.110802 S    
C20   C24   1.416000 A    
C46   C47   1.492885 S    
C22   C23   1.398524 A    
C53   H20   1.111689 S    
N3    C50   1.368206 A    
C48   H17   1.111861 S    
Cu2   O8    1.940928 S    
C55   C56   1.535130 S    
C33   C34   1.416440 A    
C59   H34   1.111722 S    
N2    C32   1.436092 S    
C8    C67   1.524185 S    
C56   H28   1.108827 S    
C69   H53   1.110847 S    
O3    C2    1.293859 A    
C25   C26   1.404175 A    
C9    C16   1.396167 A    
O8    C4    1.292825 A    
C29   H4    1.084026 S    
C49   N3    1.363988 A    
C57   H25   1.110988 S    
C61   H44   1.113337 S    
C55   H29   1.109278 S    
C23   C27   1.405025 A    
N2    C27   1.369081 A    
C26   O12   1.349700 S    
C65   C66   1.526473 S    
C66   H47   1.110531 S    
C28   C29   1.388584 A    
C7    C11   1.418606 A    
C55   H30   1.108995 S    
C48   H16   1.112063 S    
C5    N1    1.367667 A    
C30   C31   1.410987 A    
C61   H43   1.107936 S    
O1    Cu1   1.964095 S    
C17   C30   1.415385 A    
C21   C64   1.529040 S    
C6    C15   1.403407 A    
C65   H49   1.111990 S    
C4    C17   1.457313 S    
C44   H13   1.083584 S    
C69   H54   1.109860 S    
C66   H46   1.110934 S    
C64   H51   1.102030 S    
O4    Cu2   1.940899 S    
C57   H26   1.110430 S    
C68   C69   1.526134 S    
C67   H58   1.107329 S    
C19   C35   1.418338 A    
C60   H33   1.110455 S    
C58   H37   1.112626 S    
O2    C1    1.284488 A    
C18   C33   1.419670 A    
C43   C44   1.396618 A    
C67   H57   1.109575 S    
C15   C37   1.399426 A    
C62   C63   1.525797 S    
C54   H22   1.111507 S    
C28   H5    1.082970 S    
C53   C54   1.518556 S    
O4    C2    1.293307 A    
C30   C58   1.525784 S    
C18   C20   1.420937 A    
C60   H32   1.110714 S    
C43   C61   1.523718 S    
C41   C46   1.376014 A    
C62   H42   1.109554 S    
C41   C42   1.399304 A    
C63   H39   1.108363 S    
C69   H52   1.107571 S    
C54   H23   1.112027 S    
C38   H9    1.078561 S    
C14   H3    1.083378 S    
N4    C52   1.363739 A    
C64   H50   1.112626 S    
Cu2   O6    1.964094 S    
C57   H24   1.111029 S    
C10   C11   1.395233 A    
C67   C68   1.535292 S    
C52   C53   1.490366 S    
C7    C55   1.523510 S    
C28   C32   1.398191 A    
C53   H21   1.110048 S    
C3    C45   1.443599 S    
