data_mof_unit_10323.cif
_audit_creation_date              2012-12-11T14:11:01-0500
_audit_creation_method            fapswitch 2.2
_symmetry_space_group_name_H-M    P1
_symmetry_Int_Tables_number       1
_space_group_crystal_system       triclinic
_cell_length_a                    19.934944
_cell_length_b                    17.366425
_cell_length_c                    15.627319
_cell_angle_alpha                 90.272457
_cell_angle_beta                  52.42966
_cell_angle_gamma                 90.511745
_cell_volume                      4287.94745579

loop_
_atom_site_label
_atom_site_type_symbol
_atom_type_description
_atom_site_fract_x
_atom_site_fract_y
_atom_site_fract_z
_atom_type_partial_charge
C1    C     C_R   0.374909 0.195964 0.996506 -0.062847
C2    C     C_3   0.764076 0.785697 0.431300 -0.083561
C3    C     C_3   0.714601 0.258561 0.444048 -0.084109
C4    C     C_3   0.285380 0.741320 0.555922 -0.084363
C5    C     C_3   0.821962 0.762577 0.542088 -0.080454
C6    C     C_3   0.178064 0.237441 0.457899 -0.080459
C7    C     C_3   0.236576 0.752462 0.433625 -0.084542
C8    C     C_3   0.763348 0.247700 0.566444 -0.084275
C9    C     C_2   0.268502 0.707072 0.971606 0.351432
C10   C     C_2   0.731553 0.292879 0.028292 0.351379
C11   C     C_2   0.775007 0.733105 0.965943 0.364479
C12   C     C_R   0.625070 0.804030 0.003518 -0.062822
C13   C     C_2   0.224959 0.266878 0.034104 0.364449
C14   C     C_2   0.752589 0.218385 0.000124 0.345791
C15   C     C_2   0.247479 0.781570 0.999753 0.345707
C16   C     C_2   0.292297 0.239039 0.940093 0.352614
C17   C     C_2   0.707667 0.760944 0.059951 0.352638
C18   C     C_R   0.396641 0.801620 0.208946 0.298925
C19   C     C_R   0.603341 0.198386 0.791071 0.298818
C20   C     C_R   0.645311 0.822977 0.777728 0.465470
C21   C     C_R   0.354695 0.177028 0.222269 0.465438
C22   C     C_R   0.886380 0.304481 0.214950 0.334726
C23   C     C_R   0.654008 0.181333 0.962231 -0.087770
C24   C     C_R   0.113588 0.695529 0.785059 0.334717
C25   C     C_R   0.105523 0.302028 0.790601 0.378651
C26   C     C_R   0.894485 0.697975 0.209395 0.378619
C27   C     C_R   0.346639 0.895482 0.923597 0.564378
C28   C     C_R   0.653405 0.104490 0.076333 0.564332
C29   C     C_R   0.641408 0.890305 0.092722 0.554116
C30   C     C_R   0.358576 0.109687 0.907298 0.554126
C31   C     C_R   0.835193 0.403731 0.941882 0.534927
C32   C     C_R   0.164833 0.596243 0.058071 0.534893
C33   C     C_R   0.144715 0.391389 0.087938 0.549882
C34   C     C_R   0.346033 0.818622 0.037691 -0.087709
C35   C     C_R   0.855258 0.608601 0.912096 0.549889
C36   C     C_R   0.360844 0.084640 0.317197 0.459089
C37   C     C_R   0.639158 0.915362 0.682802 0.459084
C38   C     C_R   0.590313 0.110266 0.699068 0.413754
C39   C     C_R   0.409673 0.889743 0.300944 0.413764
C40   C     C_R   0.903943 0.609460 0.304571 0.428421
C41   C     C_R   0.096075 0.390544 0.695418 0.428441
C42   C     C_R   0.105936 0.605004 0.689698 0.409168
C43   C     C_R   0.894017 0.395011 0.310323 0.409237
C44   C     C_R   0.340748 0.183180 0.945366 -0.101057
C45   C     C_R   0.859202 0.689578 0.019052 -0.062964
C46   C     C_R   0.659221 0.816807 0.054672 -0.101074
C47   C     C_R   0.693895 0.166139 0.006485 -0.118019
C48   C     C_R   0.306173 0.833807 0.993401 -0.118031
C49   C     C_R   0.823483 0.676155 0.969512 -0.112191
C50   C     C_R   0.176483 0.323829 0.030534 -0.112179
C51   C     C_R   0.207524 0.654603 0.982565 -0.124043
C52   C     C_R   0.792517 0.345354 0.017356 -0.123959
C53   C     C_R   0.386741 0.815687 0.301951 -0.002942
C54   C     C_R   0.613232 0.184327 0.698073 -0.002795
C55   C     C_R   0.687479 0.855536 0.676056 -0.182650
C56   C     C_R   0.140778 0.310413 0.980975 -0.062911
C57   C     C_R   0.312529 0.144469 0.323940 -0.182659
C58   C     C_R   0.865073 0.322859 0.313878 -0.048033
C59   C     C_R   0.134862 0.677164 0.686143 -0.048000
C60   C     C_R   0.120771 0.317241 0.694770 -0.090473
C61   C     C_R   0.879250 0.682764 0.305220 -0.090433
C62   C     C_3   0.199201 0.150148 0.539578 -0.220791
C63   C     C_3   0.800808 0.849858 0.460413 -0.220790
C64   C     C_3   0.722805 0.181809 0.485384 -0.243700
C65   C     C_3   0.277256 0.818148 0.514665 -0.243436
C66   C     C_3   0.785570 0.698479 0.512654 -0.245832
C67   C     C_R   0.161301 0.673177 0.948150 -0.106863
C68   C     C_3   0.214460 0.301529 0.487339 -0.245824
C69   C     C_3   0.245242 0.675794 0.474340 -0.239953
C70   C     C_3   0.754600 0.324291 0.525649 -0.240121
C71   C     C_3   0.712391 0.752048 0.544538 0.584264
C72   C     C_3   0.287631 0.247950 0.455461 0.584297
C73   C     C_3   0.330969 0.703689 0.444898 0.595030
C74   C     C_3   0.668926 0.296249 0.555052 0.595052
C75   C     C_3   0.125465 0.204455 0.572768 0.604722
C76   C     C_3   0.874553 0.795561 0.427216 0.604680
C77   C     C_3   0.808696 0.209803 0.455681 0.594705
C78   C     C_R   0.838724 0.326795 0.051800 -0.106873
C79   C     C_3   0.191312 0.790301 0.544409 0.594684
C80   C     C_3   0.748429 0.815197 0.575718 -0.068027
C81   C     C_3   0.251588 0.184811 0.424275 -0.068070
C82   C     C_3   0.322226 0.778969 0.402770 -0.122588
C83   C     C_3   0.677748 0.221047 0.597259 -0.122726
C84   C     C_3   0.162623 0.266969 0.602474 -0.090652
C85   C     C_3   0.837397 0.733036 0.397519 -0.090641
C86   C     C_3   0.800037 0.285236 0.413694 -0.102862
C87   C     C_3   0.199892 0.714789 0.586318 -0.102790
C88   C     C_3   0.235936 0.214299 0.568699 -0.083565
Cl1   Cl    Cl    0.419855 0.709880 0.149672 -0.504771
Cl2   Cl    Cl    0.638422 0.101432 0.199228 -0.405907
Cl3   Cl    Cl    0.666958 0.928802 0.173073 -0.397834
Cl4   Cl    Cl    0.333017 0.071182 0.826960 -0.397853
Cl5   Cl    Cl    0.825799 0.417583 0.838771 -0.406119
Cl6   Cl    Cl    0.174262 0.582370 0.161150 -0.406075
Cl7   Cl    Cl    0.137086 0.410948 0.203629 -0.371647
Cl8   Cl    Cl    0.862834 0.589034 0.796445 -0.371671
Cl9   Cl    Cl    0.358906 0.052328 0.424609 -0.505999
Cl10  Cl    Cl    0.641096 0.947677 0.575391 -0.506042
Cl11  Cl    Cl    0.534826 0.090353 0.647168 -0.388129
Cl12  Cl    Cl    0.580079 0.290116 0.850385 -0.504898
Cl13  Cl    Cl    0.465163 0.909652 0.352842 -0.388212
Cl14  Cl    Cl    0.953372 0.591128 0.364257 -0.408181
Cl15  Cl    Cl    0.046690 0.408886 0.635681 -0.408213
Cl16  Cl    Cl    0.072301 0.580902 0.612499 -0.418551
Cl17  Cl    Cl    0.927573 0.419129 0.387604 -0.418558
Cl18  Cl    Cl    0.604411 0.722400 0.617826 -0.415200
Cl19  Cl    Cl    0.395614 0.277585 0.382178 -0.415123
Cl20  Cl    Cl    0.424840 0.647963 0.378809 -0.411612
Cl21  Cl    Cl    0.574981 0.351863 0.621063 -0.411624
Cl22  Cl    Cl    0.016618 0.177878 0.651334 -0.423683
Cl23  Cl    Cl    0.649875 0.724955 0.800940 -0.526774
Cl24  Cl    Cl    0.983401 0.822144 0.348627 -0.423752
Cl25  Cl    Cl    0.902381 0.153868 0.390673 -0.436875
Cl26  Cl    Cl    0.097704 0.846352 0.609487 -0.436877
Cl27  Cl    Cl    0.370734 0.670224 0.911685 -0.427511
Cl28  Cl    Cl    0.629311 0.329710 0.088257 -0.427546
Cl29  Cl    Cl    0.818672 0.776416 0.839411 -0.558329
Cl30  Cl    Cl    0.181300 0.223570 0.160634 -0.558293
Cl31  Cl    Cl    0.854653 0.180368 0.938711 -0.421460
Cl32  Cl    Cl    0.145416 0.819601 0.061173 -0.421482
Cl33  Cl    Cl    0.333437 0.276977 0.811462 -0.506883
Cl34  Cl    Cl    0.350148 0.275053 0.199057 -0.526757
Cl35  Cl    Cl    0.666527 0.723007 0.188581 -0.506932
Cl36  Cl    Cl    0.904935 0.209973 0.164587 -0.460647
Cl37  Cl    Cl    0.095058 0.790032 0.835436 -0.460421
Cl38  Cl    Cl    0.074823 0.210727 0.851739 -0.489877
Cl39  Cl    Cl    0.925185 0.789274 0.148253 -0.489848
Cl40  Cl    Cl    0.361671 0.898564 0.800671 -0.405788
H1    H     H_    0.386173 0.251815 0.015481 0.240266
H2    H     H_    0.810287 0.911379 0.436438 0.234536
H3    H     H_    0.710186 0.123962 0.467326 0.246550
H4    H     H_    0.289963 0.875937 0.532757 0.246637
H5    H     H_    0.778214 0.636873 0.535733 0.232015
H6    H     H_    0.221828 0.363136 0.464259 0.232025
H7    H     H_    0.235732 0.617954 0.452858 0.236304
H8    H     H_    0.764026 0.382193 0.547081 0.236183
H9    H     H_    0.234051 0.162679 0.687481 0.234536
H10   H     H_    0.273711 0.253502 0.656878 0.178416
H11   H     H_    0.765953 0.837291 0.312511 0.234513
H12   H     H_    0.613795 0.748181 0.984551 0.240257
H13   H     H_    0.726281 0.746475 0.343151 0.178389
H14   H     H_    0.723014 0.228248 0.311663 0.198848
H15   H     H_    0.699528 0.321425 0.347290 0.135048
H16   H     H_    0.277031 0.771440 0.688314 0.198601
H17   H     H_    0.300444 0.678278 0.652554 0.135036
H18   H     H_    0.821683 0.710442 0.659038 0.258564
H19   H     H_    0.853318 0.803624 0.635335 0.205771
H20   H     H_    0.178350 0.289592 0.340952 0.258555
H21   H     H_    0.146718 0.196405 0.364639 0.205812
H22   H     H_    0.241090 0.721112 0.304096 0.206133
H23   H     H_    0.665001 0.230025 0.912761 0.202318
H24   H     H_    0.218967 0.814866 0.338648 0.135946
H25   H     H_    0.758775 0.279244 0.695962 0.206350
H26   H     H_    0.780992 0.185476 0.661523 0.135957
H27   H     H_    0.335040 0.769918 0.087149 0.202408
H28   H     H_    0.856923 0.742327 0.057098 0.212293
H29   H     H_    0.143052 0.257663 0.942933 0.212303
H30   H     H_    0.174449 0.720097 0.895457 0.194671
H31   H     H_    0.825595 0.279863 0.104466 0.194716
H32   H     H_    0.189715 0.088626 0.563548 0.234574
N1    N     N_R   0.408680 0.130810 0.995780 -0.098714
N2    N     N_R   0.578590 0.132790 0.846380 -0.129858
N3    N     N_R   0.578590 0.867210 0.846380 -0.105245
N4    N     N_R   0.421410 0.132790 0.153620 -0.105230
N5    N     N_R   0.921410 0.367210 0.153620 -0.124646
N6    N     N_R   0.078590 0.632790 0.846380 -0.124683
N7    N     N_R   0.078590 0.367210 0.846380 -0.117121
N8    N     N_R   0.921410 0.632790 0.153620 -0.117122
N9    N     N_R   0.403840 0.921910 0.935760 -0.110758
N10   N     N_R   0.596160 0.078090 0.064240 -0.110725
N11   N     N_R   0.596160 0.921910 0.064240 -0.126649
N12   N     N_R   0.591320 0.869190 0.004220 -0.098721
N13   N     N_R   0.403840 0.078090 0.935760 -0.126645
N14   N     N_R   0.903840 0.421910 0.935760 -0.107015
N15   N     N_R   0.096160 0.578090 0.064240 -0.106993
N16   N     N_R   0.096160 0.421910 0.064240 -0.124535
N17   N     N_R   0.903840 0.578090 0.935760 -0.124519
N18   N     N_R   0.426250 0.076100 0.213650 -0.108624
N19   N     N_R   0.573750 0.923900 0.786350 -0.108627
N20   N     N_R   0.573750 0.076100 0.786350 -0.142659
N21   N     N_R   0.426250 0.923900 0.213650 -0.142672
N22   N     N_R   0.926250 0.576100 0.213650 -0.129845
N23   N     N_R   0.591320 0.130810 0.004220 -0.071718
N24   N     N_R   0.073750 0.423900 0.786350 -0.129833
N25   N     N_R   0.073750 0.576100 0.786350 -0.131078
N26   N     N_R   0.926250 0.423900 0.213650 -0.131063
N27   N     N_3   0.272805 0.201238 0.624225 -0.087564
N28   N     N_3   0.727199 0.798745 0.375781 -0.087579
N29   N     N_3   0.686465 0.265253 0.377474 -0.111905
N30   N     N_3   0.313542 0.734473 0.622448 -0.111972
N31   N     N_3   0.858146 0.751421 0.598561 -0.091916
N32   N     N_3   0.141886 0.248606 0.401422 -0.091866
N33   N     N_3   0.206353 0.758867 0.369308 -0.113068
N34   N     N_R   0.408680 0.869190 0.995780 -0.071776
N35   N     N_3   0.793554 0.241455 0.630798 -0.113000
N36   N     N_R   0.908680 0.630810 0.995780 -0.086448
N37   N     N_R   0.091320 0.369190 0.004220 -0.086454
N38   N     N_R   0.091320 0.630810 0.004220 -0.061147
N39   N     N_R   0.908680 0.369190 0.995780 -0.061194
N40   N     N_R   0.421410 0.867210 0.153620 -0.129885
Ni1   Ni    Ni4+2 0.500000 0.131570 0.000000 0.303084
Ni2   Ni    Ni4+2 0.500000 0.868430 0.000000 0.303019
Ni3   Ni    Ni4+2 0.000000 0.631570 0.000000 0.316287
Ni4   Ni    Ni4+2 0.000000 0.368430 0.000000 0.316264
Ni5   Ni    Ni4+2 0.488900 0.000000 0.862310 0.339206
Ni6   Ni    Ni4+2 0.511100 0.000000 0.137690 0.339218
Ni7   Ni    Ni4+2 0.988900 0.500000 0.862310 0.338019
Ni8   Ni    Ni4+2 0.011100 0.500000 0.137690 0.338032

loop_
_geom_bond_atom_site_label_1
_geom_bond_atom_site_label_2
_ccdc_geom_bond_type
C27   C48   A    
C35   N17   A    
C32   Cl6   S    
N11   N12   A    
N19   Ni5   S    
C28   C47   A    
H20   N32   S    
C65   C79   S    
N17   N36   A    
H17   N30   S    
C8    C83   S    
C64   C77   S    
N25   Ni7   S    
C9    C51   S    
N16   N37   A    
C16   Cl33  S    
C67   N38   A    
C10   C52   S    
C66   C85   S    
C79   C87   S    
C13   Cl30  S    
N4    N18   A    
C6    C75   S    
C12   N12   A    
C4    C87   S    
C39   C53   A    
C3    C64   S    
C25   N7    A    
C23   N23   A    
C26   N8    A    
N14   N39   A    
N24   Ni7   S    
H24   N33   S    
N37   Ni4   S    
C15   C48   S    
N1    Ni1   S    
N5    Ni4   S    
N10   Ni6   S    
C35   Cl8   S    
C1    H1    S    
C3    N29   S    
N9    Ni5   S    
C4    C65   S    
N10   N23   A    
C77   Cl25  S    
C75   C84   S    
C63   C76   S    
C72   Cl19  S    
N34   Ni2   S    
C33   Cl7   S    
C15   Cl32  S    
C2    C85   S    
C43   Cl17  S    
C63   H2    S    
C21   Cl34  S    
C33   N16   A    
C3    C74   S    
C70   C74   S    
C71   C80   S    
C18   C53   A    
C22   N5    A    
C17   Cl35  S    
C88   N27   S    
N7    N24   A    
H19   N31   S    
C30   Cl4   S    
H21   N32   S    
H25   N35   S    
C35   C49   A    
C12   H12   S    
C41   N24   A    
C69   C73   S    
C36   Cl9   S    
C25   C60   A    
C7    N33   S    
C74   C83   S    
C30   N13   A    
N2    N20   A    
C72   C81   S    
C69   C87   S    
C68   C72   S    
C26   Cl39  S    
C34   N34   A    
C45   N36   A    
C6    C68   S    
C1    N1    A    
C69   H7    S    
C21   N4    A    
C3    C86   S    
C70   H8    S    
H10   N27   S    
C30   C44   A    
N15   Ni8   S    
C74   Cl21  S    
C20   C55   A    
C52   C78   A    
C58   C86   S    
C54   C83   S    
C72   C88   S    
C39   Cl13  S    
C20   N3    A    
C40   N22   A    
C63   C80   S    
C66   H5    S    
C37   N19   A    
C32   N15   A    
C27   N9    A    
C38   N20   A    
N2    Ni1   S    
C68   C84   S    
C4    N30   S    
C36   N18   A    
C17   C46   S    
C5    N31   S    
C59   C87   S    
C12   C46   A    
C36   C57   A    
C10   C14   D    
H22   N33   S    
H13   N28   S    
C5    C66   S    
C73   Cl20  S    
C5    C80   S    
C43   N26   A    
C33   C50   A    
C34   H27   S    
H14   N29   S    
C62   C88   S    
C50   C56   A    
C40   C61   A    
C41   Cl15  S    
C53   C82   S    
N36   Ni3   S    
C19   N2    A    
C9    Cl27  S    
C67   H30   S    
N23   Ni1   S    
C24   N6    A    
C25   Cl38  S    
C64   C83   S    
C21   C57   A    
C56   H29   S    
C11   C49   S    
C20   Cl23  S    
N1    N13   A    
C27   Cl40  S    
C1    C44   A    
C66   C71   S    
C38   C54   A    
C64   H3    S    
C45   C49   A    
C76   Cl24  S    
H15   N29   S    
N9    N34   A    
C37   Cl10  S    
C45   H28   S    
C51   C67   A    
N7    Ni4   S    
C29   N11   A    
N11   Ni6   S    
N12   Ni2   S    
C4    C73   S    
C39   N21   A    
C61   C85   S    
H26   N35   S    
C19   C54   A    
C28   N10   A    
C62   C81   S    
C77   C86   S    
N8    N22   A    
N3    N19   A    
N14   Ni7   S    
C62   H32   S    
C62   C75   S    
C79   Cl26  S    
C34   C48   A    
C78   N39   A    
C2    C71   S    
C70   C86   S    
C73   C82   S    
C29   Cl3   S    
C65   H4    S    
C10   Cl28  S    
C2    C63   S    
C42   N25   A    
C7    C79   S    
C56   N37   A    
C32   C51   A    
C23   H23   S    
C11   C17   D    
C75   Cl22  S    
C18   Cl1   S    
C16   C44   S    
C84   C88   S    
C41   C60   A    
C38   Cl11  S    
C42   Cl16  S    
C42   C59   A    
C22   C58   A    
C28   Cl2   S    
C19   Cl12  S    
C13   C16   D    
C22   Cl36  S    
C14   C47   S    
C8    C70   S    
N5    N26   A    
N8    Ni3   S    
N26   Ni8   S    
C29   C46   A    
N6    N25   A    
C8    N35   S    
N16   Ni8   S    
C23   C47   A    
C68   H6    S    
C7    C69   S    
C9    C15   D    
C31   Cl5   S    
C18   N40   A    
C55   C80   S    
C60   C84   S    
C65   C82   S    
C8    C77   S    
H16   N30   S    
N39   Ni4   S    
C5    C76   S    
C24   C59   A    
N20   Ni5   S    
N18   Ni6   S    
N21   Ni6   S    
N15   N38   A    
N22   Ni8   S    
N6    Ni3   S    
H18   N31   S    
C57   C81   S    
C2    N28   S    
N4    Ni1   S    
C40   Cl14  S    
C13   C50   S    
C37   C55   A    
N17   Ni7   S    
C78   H31   S    
C7    C82   S    
N40   Ni2   S    
C14   Cl31  S    
C71   Cl18  S    
C6    N32   S    
N38   Ni3   S    
C6    C81   S    
C43   C58   A    
N3    Ni2   S    
N13   Ni5   S    
H9    N27   S    
C24   Cl37  S    
N21   N40   A    
C76   C85   S    
H11   N28   S    
C31   C52   A    
C26   C61   A    
C31   N14   A    
C11   Cl29  S    
