data_mof_unit_45536.cif
_audit_creation_date              2012-10-26T18:34:01-0400
_audit_creation_method            fapswitch 2.2
_symmetry_space_group_name_H-M    P1
_symmetry_Int_Tables_number       1
_space_group_crystal_system       triclinic
_cell_length_a                    11.06155
_cell_length_b                    10.797912
_cell_length_c                    9.591979
_cell_angle_alpha                 91.077081
_cell_angle_beta                  103.297176
_cell_angle_gamma                 91.698525
_cell_volume                      1114.08991543

loop_
_atom_site_label
_atom_site_type_symbol
_atom_type_description
_atom_site_fract_x
_atom_site_fract_y
_atom_site_fract_z
_atom_type_partial_charge
C1    C     C_R   0.499551 0.262325 0.499016 0.546388
C2    C     C_2   0.872808 0.500284 0.591576 -0.133854
C3    C     C_2   0.067509 0.499834 0.515116 -0.160977
C4    C     C_2   0.932491 0.500166 0.484884 -0.160977
C5    C     C_R   0.552837 0.063841 0.401686 -0.142720
C6    C     C_R   0.447163 0.936159 0.598314 -0.142720
C7    C     C_R   0.553312 0.935616 0.402819 -0.138107
C8    C     C_R   0.446687 0.064383 0.597181 -0.138107
C9    C     C_R   0.500925 0.871623 0.501602 0.022713
C10   C     C_R   0.499075 0.128377 0.498397 0.022713
C11   C     C_3   0.334625 0.322586 0.087833 -0.251916
C12   C     C_R   0.500449 0.737675 0.500984 0.546388
C13   C     C_3   0.373668 0.190902 0.062163 -0.450832
C14   C     C_3   0.665375 0.677414 0.912167 -0.251916
C15   C     C_3   0.626332 0.809098 0.937837 -0.450831
C16   C     C_R   0.262694 0.499743 0.441404 0.553440
C17   C     C_R   0.737306 0.500257 0.558596 0.553440
C18   C     C_R   0.422936 0.418774 0.048926 0.129921
C19   C     C_R   0.577064 0.581226 0.951074 0.129921
C20   C     C_R   0.423183 0.421274 0.901164 0.025339
C21   C     C_R   0.576817 0.578726 0.098836 0.025339
C22   C     C_2   0.127192 0.499716 0.408424 -0.133854
Cu1   Cu    Cu3+1 0.500000 0.500020 0.640660 0.917589
Cu2   Cu    Cu3+1 0.500000 0.499980 0.359340 0.917589
H1    H     H_    0.881569 0.500264 0.373436 0.155378
H2    H     H_    0.404057 0.113382 0.672051 0.116725
H3    H     H_    0.357224 0.168632 0.945708 0.126107
H4    H     H_    0.473686 0.180804 0.111804 0.164036
H5    H     H_    0.318450 0.123196 0.110040 0.143654
H6    H     H_    0.325634 0.330036 0.198326 0.215726
H7    H     H_    0.239618 0.335364 0.021016 0.099370
H8    H     H_    0.526314 0.819196 0.888196 0.164036
H9    H     H_    0.642775 0.831368 0.054291 0.126107
H10   H     H_    0.681550 0.876804 0.889960 0.143654
H11   H     H_    0.760382 0.664636 0.978984 0.099370
H12   H     H_    0.118431 0.499736 0.626564 0.155378
H13   H     H_    0.674366 0.669964 0.801674 0.215726
H14   H     H_    0.923920 0.500264 0.702878 0.095177
H15   H     H_    0.076080 0.499735 0.297122 0.095177
H16   H     H_    0.361603 0.359293 0.824936 0.114882
H17   H     H_    0.638397 0.640707 0.175064 0.114882
H18   H     H_    0.596703 0.112478 0.327765 0.120366
H19   H     H_    0.403297 0.887521 0.672235 0.120366
H20   H     H_    0.595943 0.886618 0.327949 0.116725
N1    N     N_R   0.500030 0.500030 0.852080 -0.234142
N2    N     N_R   0.499970 0.499970 0.147920 -0.234142
O1    O     O_R   0.499990 0.319660 0.618740 -0.503699
O2    O     O_R   0.500010 0.680340 0.381260 -0.503699
O3    O     O_R   0.499990 0.319630 0.381170 -0.515271
O4    O     O_R   0.500010 0.680370 0.618830 -0.515271
O5    O     O_R   0.320690 0.500020 0.575130 -0.500583
O6    O     O_R   0.679310 0.499980 0.424870 -0.500583
O7    O     O_R   0.320680 0.499990 0.337560 -0.514710
O8    O     O_R   0.679320 0.500010 0.662440 -0.514710

loop_
_geom_bond_atom_site_label_1
_geom_bond_atom_site_label_2
_ccdc_geom_bond_type
Cu2   O6    S    
C2    C4    D    
C5    H18   S    
C19   N1    A    
C13   H4    S    
Cu1   N1    S    
C8    H2    S    
Cu2   O3    S    
C2    H14   S    
C15   H10   S    
Cu1   O5    S    
C20   N1    A    
C16   O5    A    
C12   O2    A    
Cu1   Cu2   S    
Cu2   N2    S    
C6    C9    A    
C4    H1    S    
C11   H7    S    
C15   H8    S    
C11   C18   S    
C7    H20   S    
C16   O7    A    
C2    C17   S    
C11   C13   S    
C3    H12   S    
C21   H17   S    
C22   H15   S    
C18   N2    A    
C17   O6    A    
C13   H5    S    
C19   C21   A    
C18   C20   A    
C6    H19   S    
C20   H16   S    
C9    C12   S    
Cu1   O1    S    
C3    C4    S    
Cu2   O2    S    
C5    C10   A    
Cu1   O8    S    
C8    C10   A    
C21   N2    A    
C14   H11   S    
C7    C9    A    
C5    C7    A    
C13   H3    S    
Cu1   O4    S    
C6    C8    A    
C14   C19   S    
C3    C22   D    
Cu2   O7    S    
C14   C15   S    
C1    O3    A    
C17   O8    A    
C15   H9    S    
C1    O1    A    
C1    C10   S    
C11   H6    S    
C16   C22   S    
C12   O4    A    
C14   H13   S    
