data_mof_unit_39912.cif
_audit_creation_date              2012-12-10T17:08:38-0500
_audit_creation_method            fapswitch 2.2
_symmetry_space_group_name_H-M    P1
_symmetry_Int_Tables_number       1
_space_group_crystal_system       triclinic
_cell_length_a                    15.723852
_cell_length_b                    10.679459
_cell_length_c                    10.071768
_cell_angle_alpha                 91.25516
_cell_angle_beta                  91.320137
_cell_angle_gamma                 90.877445
_cell_volume                      1690.20744693

loop_
_atom_site_label
_atom_site_type_symbol
_atom_type_description
_atom_site_fract_x
_atom_site_fract_y
_atom_site_fract_z
_atom_type_partial_charge
C1    C     C_R   0.500177 0.262614 0.498689 0.916325
C2    C     C_3   0.954175 0.422204 0.621143 0.367979
C3    C     C_3   0.916944 0.499231 0.502464 0.171271
C4    C     C_3   0.953388 0.635430 0.501765 -0.537430
C5    C     C_3   0.051372 0.633508 0.502194 -0.408611
C6    C     C_1   0.825639 0.501269 0.505319 -0.027754
C7    C     C_1   0.173910 0.496652 0.494463 -0.061798
C8    C     C_1   0.249331 0.497729 0.495274 -0.188274
C9    C     C_2   0.536267 0.932019 0.396852 -0.156435
C10   C     C_2   0.521842 0.868717 0.507099 -0.340117
C11   C     C_2   0.540795 0.067345 0.402382 -0.167619
C12   C     C_R   0.338377 0.499371 0.498587 0.892932
C13   C     C_2   0.499197 0.130095 0.495991 -0.324248
C14   C     C_2   0.540534 0.583093 0.928781 -0.089136
C15   C     C_2   0.550781 0.569632 0.077400 0.037674
C16   C     C_R   0.505103 0.737327 0.501614 0.926823
C17   C     C_R   0.661524 0.500608 0.501401 0.890673
C18   C     C_3   0.052597 0.429249 0.623137 -0.485740
C19   C     C_3   0.043928 0.428626 0.371209 -0.465261
C20   C     C_3   0.945172 0.434918 0.370036 0.297310
C21   C     C_1   0.750357 0.501463 0.504688 -0.188623
C22   C     C_3   0.082444 0.496705 0.497286 0.245302
H1    H     H_    0.938291 0.322469 0.596142 0.166721
H2    H     H_    0.078724 0.477778 0.714145 0.184572
H3    H     H_    0.930303 0.683023 0.410782 0.180156
H4    H     H_    0.541818 0.885209 0.300630 0.171189
H5    H     H_    0.524623 0.913140 0.605120 0.155165
H6    H     H_    0.574157 0.115669 0.324724 0.172430
H7    H     H_    0.462656 0.085191 0.572103 0.145176
H8    H     H_    0.570319 0.663599 0.884009 0.130145
H9    H     H_    0.487156 0.416115 0.890470 0.211556
H10   H     H_    0.601991 0.622231 0.127802 0.078742
H11   H     H_    0.078328 0.332642 0.624494 0.154852
H12   H     H_    0.068179 0.473036 0.280221 0.150227
H13   H     H_    0.064529 0.329340 0.368582 0.195571
H14   H     H_    0.924555 0.495828 0.286646 0.081790
H15   H     H_    0.077245 0.683173 0.593046 0.178406
H16   H     H_    0.074807 0.684939 0.414914 0.186240
H17   H     H_    0.930966 0.694542 0.585037 0.178726
N1    N     N_2   0.500900 0.501330 0.852150 -0.172033
N2    N     N_2   0.500920 0.501360 0.147810 0.069748
O1    O     O_R   0.499990 0.319060 0.613040 -0.621662
O2    O     O_R   0.500010 0.319100 0.386900 -0.639663
O3    O     O_R   0.377130 0.499990 0.613120 -0.596988
O4    O     O_R   0.377160 0.500030 0.386980 -0.617228
O5    O     O_R   0.499990 0.680900 0.613100 -0.619308
O6    O     O_R   0.500010 0.680940 0.386960 -0.608806
O7    O     O_R   0.622840 0.499970 0.613020 -0.605680
O8    O     O_R   0.622870 0.500010 0.386880 -0.638563
Zn1   Zn    Zn3+2 0.499980 0.499970 0.650990 0.950619
Zn2   Zn    Zn3+2 0.500020 0.500030 0.349010 0.957009
O9    O     O_3   0.917071 0.439704 0.748014 -0.651226
C23   C     C_3   0.923108 0.562993 0.801466 0.121305
H18   H     H_    0.867679 0.616866 0.765135 0.150155
H19   H     H_    0.983127 0.612197 0.776741 0.135393
C24   C     C_3   0.919140 0.557464 0.952778 -0.346235
H20   H     H_    0.858177 0.512429 0.980654 0.230458
H21   H     H_    0.972364 0.500141 0.991185 0.216987
C25   C     C_3   0.925291 0.687929 0.017482 -1.001491
H22   H     H_    0.986650 0.734147 0.993549 0.268861
H23   H     H_    0.921862 0.680319 0.127014 0.257542
H24   H     H_    0.871884 0.746374 0.982062 0.267331
O10   O     O_3   0.426563 0.468359 0.085025 -0.577590
C26   C     C_3   0.399428 0.347646 0.123595 0.203109
H25   H     H_    0.337388 0.328071 0.071686 0.122850
H26   H     H_    0.385506 0.344236 0.229567 0.190049
C27   C     C_3   0.460005 0.241522 0.084929 -0.433414
H27   H     H_    0.469289 0.237676 0.976354 0.208119
H28   H     H_    0.522976 0.256213 0.135458 0.234423
C28   C     C_3   0.422972 0.114450 0.122542 -0.939870
H29   H     H_    0.406174 0.114594 0.228934 0.276061
H30   H     H_    0.470282 0.040285 0.104104 0.265234
H31   H     H_    0.364724 0.092326 0.061474 0.260538
O11   O     O_3   0.909234 0.311936 0.357582 -0.658986
C29   C     C_3   0.880606 0.282828 0.226068 0.081149
H32   H     H_    0.882692 0.179427 0.212439 0.173186
H33   H     H_    0.922940 0.322884 0.149932 0.120795
C30   C     C_3   0.788434 0.324641 0.204730 -0.352680
H34   H     H_    0.748832 0.289426 0.286421 0.240388
H35   H     H_    0.785989 0.428570 0.206517 0.209965
C31   C     C_3   0.750791 0.274942 0.072488 -0.958794
H36   H     H_    0.790136 0.305985 0.988833 0.280058
H37   H     H_    0.685395 0.310988 0.058241 0.260174
H38   H     H_    0.747466 0.170961 0.071705 0.261801

loop_
_geom_bond_atom_site_label_1
_geom_bond_atom_site_label_2
_ccdc_geom_bond_type
C10   H5    S    
C5    H15   S    
C2    C18   S    
C19   C20   S    
C17   O7    A    
C3    C6    S    
C4    H3    S    
C7    C8    T    
C23   H18   S    
C24   H20   S    
C18   H2    S    
C13   H7    S    
C30   H35   S    
O4    Zn2   S    
H9    N1    S    
C1    O2    A    
C5    C22   S    
O8    Zn2   S    
C28   H29   S    
C9    C10   D    
O7    Zn1   S    
C25   H22   S    
C5    H16   S    
C14   H8    S    
C16   O6    A    
C31   H37   S    
C9    H4    S    
C31   H36   S    
C23   H19   S    
C25   H23   S    
O11   C29   S    
C27   H27   S    
C26   C27   S    
C15   H10   S    
C19   C22   S    
C15   N2    D    
C16   O5    A    
C30   H34   S    
C12   O4    A    
O6    Zn2   S    
C29   C30   S    
C6    C21   T    
C17   C21   S    
C27   H28   S    
C26   H26   S    
C29   H32   S    
C29   H33   S    
C4    H17   S    
C8    C12   S    
C28   H31   S    
C20   O11   S    
C3    C20   S    
C9    C11   S    
C2    O9    S    
O1    Zn1   S    
C1    C13   S    
N2    O10   S    
C17   O8    A    
C3    C4    S    
C31   H38   S    
O9    C23   S    
C23   C24   S    
O3    Zn1   S    
C25   H24   S    
C18   C22   S    
C4    C5    S    
C19   H12   S    
C28   H30   S    
C7    C22   S    
O5    Zn1   S    
C24   C25   S    
C27   C28   S    
C26   H25   S    
C2    C3    S    
C12   O3    A    
C10   C16   S    
C11   C13   D    
C30   C31   S    
O2    Zn2   S    
C11   H6    S    
N1    Zn1   S    
C24   H21   S    
C18   H11   S    
C14   N1    D    
O10   C26   S    
C20   H14   S    
C1    O1    A    
C2    H1    S    
C14   C15   S    
C19   H13   S    
N2    Zn2   S    
