data_mof_unit_5110.cif
_audit_creation_date              2012-12-11T14:04:26-0500
_audit_creation_method            fapswitch 2.2
_symmetry_space_group_name_H-M    P1
_symmetry_Int_Tables_number       1
_space_group_crystal_system       triclinic
_cell_length_a                    19.194402
_cell_length_b                    10.917953
_cell_length_c                    18.853932
_cell_angle_alpha                 90.164762
_cell_angle_beta                  91.164324
_cell_angle_gamma                 90.085565
_cell_volume                      3950.26059068

loop_
_atom_site_label
_atom_site_type_symbol
_atom_type_description
_atom_site_fract_x
_atom_site_fract_y
_atom_site_fract_z
_atom_type_partial_charge
C1    C     C_R   0.239292 0.463999 0.649735 0.543239
C2    C     C_R   0.033934 0.645482 0.560406 0.030196
C3    C     C_R   0.525155 0.171782 0.412473 0.048656
C4    C     C_R   0.533362 0.145533 0.560665 0.031693
C5    C     C_R   0.020116 0.895034 0.427549 0.233519
C6    C     C_R   0.977012 0.854589 0.566227 0.289098
C7    C     C_R   0.519619 0.395206 0.427883 0.231859
C8    C     C_R   0.476576 0.354727 0.566601 0.289363
C9    C     C_R   0.999850 0.993147 0.469540 -0.129999
C10   C     C_R   0.974699 0.971929 0.536952 -0.121524
C11   C     C_R   0.499404 0.493305 0.469909 -0.130254
C12   C     C_R   0.760253 0.463500 0.351526 0.623557
C13   C     C_R   0.474290 0.472082 0.537341 -0.122091
C14   C     C_R   0.009812 0.757257 0.528718 -0.003084
C15   C     C_R   0.019266 0.774808 0.455477 -0.029412
C16   C     C_R   0.509260 0.257369 0.529025 -0.001725
C17   C     C_R   0.518699 0.274968 0.455790 -0.031493
C18   C     C_R   0.054446 0.542861 0.514621 -0.020519
C19   C     C_R   0.056182 0.565765 0.439984 -0.030105
C20   C     C_R   0.553872 0.042932 0.514961 -0.019787
C21   C     C_R   0.555812 0.066094 0.440449 -0.034954
C22   C     C_R   0.072837 0.417760 0.535437 0.278492
C23   C     C_R   0.739284 0.964015 0.649721 0.547343
C24   C     C_R   0.085495 0.479975 0.392482 0.211667
C25   C     C_R   0.572340 0.917785 0.535716 0.280466
C26   C     C_R   0.585668 0.980964 0.393111 0.210670
C27   C     C_R   0.095276 0.332920 0.485081 -0.106348
C28   C     C_R   0.101571 0.363359 0.414976 -0.109459
C29   C     C_R   0.594926 0.833169 0.485289 -0.106800
C30   C     C_R   0.601607 0.864133 0.415304 -0.108690
C31   C     C_2   0.254807 0.929552 0.917618 -0.093072
C32   C     C_2   0.761856 0.898455 0.071125 -0.114322
C33   C     C_2   0.722709 0.342184 0.936042 -0.158387
C34   C     C_R   0.260255 0.963511 0.351529 0.642622
C35   C     C_2   0.262467 0.393234 0.070080 -0.086438
C36   C     C_2   0.275667 0.008570 0.065820 -0.094862
C37   C     C_2   0.752780 0.898231 0.915395 -0.066911
C38   C     C_2   0.738025 0.382980 0.091299 -0.032191
C39   C     C_2   0.254396 0.393259 0.913997 -0.076960
C40   C     C_R   0.226276 0.873650 0.647324 0.538683
C41   C     C_R   0.771694 0.882423 0.347513 0.618725
C42   C     C_R   0.726279 0.373644 0.647319 0.548136
C43   C     C_R   0.271680 0.382444 0.347499 0.622667
C44   C     C_2   0.227310 0.058217 0.021409 0.180335
C45   C     C_2   0.299588 0.871284 0.539763 0.174884
C46   C     C_2   0.813390 0.907151 0.951598 0.221359
C47   C     C_2   0.677594 0.400842 0.054402 0.202025
C48   C     C_2   0.314546 0.401100 0.951067 0.211095
C49   C     C_2   0.223677 0.027849 0.945454 -0.112359
C50   C     C_2   0.816500 0.886010 0.027779 -0.079520
C51   C     C_2   0.670939 0.378608 0.977619 -0.157628
C52   C     C_2   0.316448 0.372866 0.026743 -0.115678
C53   C     C_2   0.038282 0.660120 0.930601 -0.120685
C54   C     C_2   0.006766 0.657603 0.085577 -0.103046
C55   C     C_2   0.542336 0.150344 0.933415 -0.111042
C56   C     C_2   0.784122 0.868227 0.472061 0.202213
C57   C     C_2   0.504408 0.157665 0.082310 -0.107912
C58   C     C_2   0.975293 0.602567 0.030040 0.248913
C59   C     C_2   0.016188 0.567514 0.970670 0.220742
C60   C     C_2   0.523215 0.055351 0.046839 0.195997
C61   C     C_2   0.515909 0.054693 0.969593 0.228656
C62   C     C_R   0.056083 0.648590 0.636694 0.558975
C63   C     C_R   0.976289 0.656608 0.350673 0.667937
C64   C     C_R   0.555852 0.148633 0.636733 0.561486
C65   C     C_R   0.476195 0.156640 0.350784 0.674683
C66   C     C_R   0.240058 0.462570 0.849311 0.564705
C67   C     C_2   0.799613 0.371239 0.539751 0.172146
C68   C     C_R   0.758139 0.458750 0.152928 0.614054
C69   C     C_R   0.739800 0.963145 0.849413 0.554964
C70   C     C_R   0.275720 0.022856 0.142793 0.558548
C71   C     C_R   0.228374 0.875713 0.851948 0.549411
C72   C     C_R   0.773933 0.870908 0.145549 0.604437
C73   C     C_R   0.709697 0.326409 0.860156 0.524821
C74   C     C_R   0.274243 0.369509 0.145047 0.559206
C75   C     C_R   0.060918 0.647913 0.858724 0.564289
C76   C     C_R   0.973499 0.652576 0.152562 0.625862
C77   C     C_R   0.558787 0.147068 0.858775 0.555500
C78   C     C_2   0.284081 0.368313 0.472048 0.201962
C79   C     C_R   0.472813 0.151884 0.151179 0.591625
C80   C     C_2   0.243724 0.911417 0.575720 -0.105825
C81   C     C_2   0.757760 0.929108 0.416453 -0.088733
C82   C     C_2   0.743745 0.411393 0.575708 -0.107661
C83   C     C_2   0.257705 0.429143 0.416424 -0.088202
C84   C     C_2   0.249308 0.902639 0.418970 -0.092800
C85   C     C_2   0.752519 0.887544 0.590837 -0.048816
C86   C     C_2   0.749304 0.402606 0.418961 -0.090728
C87   C     C_2   0.252541 0.387546 0.590852 -0.048747
C88   C     C_2   0.304200 0.895370 0.463751 -0.105481
C89   C     C_R   0.025544 0.671595 0.412119 0.053118
C90   C     C_2   0.788634 0.931983 0.538142 -0.121595
C91   C     C_2   0.804209 0.395248 0.463725 -0.104276
C92   C     C_2   0.288566 0.432099 0.538120 -0.120692
Cl1   Cl    Cl    0.055218 0.928471 0.344005 -0.576312
Cl2   Cl    Cl    0.893471 0.942248 0.911360 -0.478655
Cl3   Cl    Cl    0.601959 0.463502 0.092753 -0.510370
Cl4   Cl    Cl    0.394214 0.446479 0.913610 -0.482335
Cl5   Cl    Cl    0.924994 0.832034 0.641545 -0.458082
Cl6   Cl    Cl    0.554898 0.428708 0.344410 -0.550446
Cl7   Cl    Cl    0.424813 0.332214 0.642108 -0.465441
Cl8   Cl    Cl    0.107597 0.517714 0.304488 -0.602975
Cl9   Cl    Cl    0.057260 0.335586 0.614498 -0.446449
Cl10  Cl    Cl    0.609248 0.020871 0.306090 -0.548038
Cl11  Cl    Cl    0.556908 0.835368 0.614748 -0.450959
Cl12  Cl    Cl    0.158835 0.152883 0.050398 -0.537260
Cr1   Cr    Cr6+3 0.113970 0.508630 0.747920 1.179880
Cr2   Cr    Cr6+3 0.887700 0.820070 0.250200 1.148202
Cr3   Cr    Cr6+3 0.612300 0.320070 0.749800 1.119991
Cr4   Cr    Cr6+3 0.387700 0.320070 0.250200 1.152244
Cr5   Cr    Cr6+3 0.886030 0.508630 0.252080 1.147822
Cr6   Cr    Cr6+3 0.613970 0.008630 0.747920 1.158230
Cr7   Cr    Cr6+3 0.386030 0.008630 0.252080 1.145677
Cr8   Cr    Cr6+3 0.269200 0.666740 0.749850 1.172366
Cr9   Cr    Cr6+3 0.730800 0.666740 0.250150 1.203698
Cr10  Cr    Cr6+3 0.769200 0.166740 0.749850 1.186483
Cr11  Cr    Cr6+3 0.230800 0.166740 0.250150 1.170081
Cr12  Cr    Cr6+3 0.112300 0.820070 0.749800 1.128524
H1    H     H_    0.355626 0.918885 0.445026 0.219757
H2    H     H_    0.707587 0.857759 0.939943 0.123331
H3    H     H_    0.777511 0.322995 0.070807 0.114353
H4    H     H_    0.210844 0.346494 0.937445 0.148344
H5    H     H_    0.293111 0.876183 0.946691 0.160166
H6    H     H_    0.710594 0.924198 0.052095 0.144795
H7    H     H_    0.773787 0.318397 0.957087 0.169072
H8    H     H_    0.211423 0.421985 0.050767 0.142684
H9    H     H_    0.061481 0.683268 0.084494 0.064702
H10   H     H_    0.032416 0.753749 0.949930 0.115710
H11   H     H_    0.493004 0.241546 0.053469 0.107206
H12   H     H_    0.810896 0.023688 0.539912 0.139347
H13   H     H_    0.564398 0.226674 0.962400 0.044734
H14   H     H_    0.196642 0.884136 0.436028 0.123172
H15   H     H_    0.722640 0.803201 0.585320 0.146625
H16   H     H_    0.696635 0.384178 0.436032 0.123032
H17   H     H_    0.222741 0.303111 0.585376 0.146126
H18   H     H_    0.202918 0.961644 0.547802 0.125379
H19   H     H_    0.744543 0.025663 0.421088 0.057761
H20   H     H_    0.702945 0.461629 0.547786 0.124952
H21   H     H_    0.244418 0.525670 0.421040 0.059253
H22   H     H_    0.001059 0.085329 0.448717 0.158560
H23   H     H_    0.855638 0.418662 0.444976 0.220501
H24   H     H_    0.952759 0.046891 0.566461 0.215178
H25   H     H_    0.500703 0.585502 0.449122 0.160100
H26   H     H_    0.452461 0.547070 0.566906 0.215238
H27   H     H_    0.106684 0.239132 0.499972 0.189137
H28   H     H_    0.119348 0.295136 0.377880 0.197944
H29   H     H_    0.606359 0.739331 0.500057 0.189087
H30   H     H_    0.619738 0.796336 0.378143 0.199254
H31   H     H_    0.805685 0.582361 0.941066 0.364885
H32   H     H_    0.003355 0.242993 0.012218 0.399377
H33   H     H_    0.611594 0.758494 0.054279 0.391601
H34   H     H_    0.310740 0.523876 0.539868 0.139917
H35   H     H_    0.488454 0.768951 0.870147 0.385316
H36   H     H_    0.417364 0.731062 0.487422 0.310096
H37   H     H_    0.807841 0.642940 0.580464 0.362346
H38   H     H_    0.917693 0.231157 0.487477 0.308956
H39   H     H_    0.308006 0.142851 0.580439 0.361565
H40   H     H_    0.185196 0.077458 0.913702 0.203169
H41   H     H_    0.867827 0.863791 0.049549 0.208908
H42   H     H_    0.621134 0.402576 0.953059 0.202243
H43   H     H_    0.366524 0.343609 0.048726 0.171884
H44   H     H_    0.318917 0.957204 0.045394 0.129650
O1    O     O_R   0.043230 0.549300 0.667990 -0.384946
O2    O     O_R   0.832470 0.905110 0.169660 -0.518209
O3    O     O_R   0.667530 0.405110 0.830340 -0.482424
O4    O     O_R   0.332470 0.405110 0.169660 -0.500921
O5    O     O_R   0.054010 0.748440 0.822860 -0.443777
O6    O     O_R   0.945990 0.748440 0.177140 -0.484137
O7    O     O_R   0.554010 0.248440 0.822860 -0.457731
O8    O     O_R   0.445990 0.248440 0.177140 -0.490686
O9    O     O_3   0.165160 0.665150 0.749190 -0.365344
O10   O     O_3   0.834840 0.665150 0.250810 -0.277514
O11   O     O_3   0.665160 0.165150 0.749190 -0.382505
O12   O     O_R   0.956770 0.549300 0.332010 -0.477737
O13   O     O_3   0.334840 0.165150 0.250810 -0.322192
O14   O     O_R   0.178620 0.457600 0.674100 -0.509154
O15   O     O_R   0.821380 0.457600 0.325900 -0.519003
O16   O     O_R   0.678620 0.957600 0.674100 -0.505599
O17   O     O_R   0.321380 0.957600 0.325900 -0.501803
O18   O     O_R   0.284680 0.542100 0.669460 -0.439064
O19   O     O_R   0.715320 0.542100 0.330540 -0.423246
O20   O     O_R   0.784680 0.042100 0.669460 -0.436806
O21   O     O_R   0.215320 0.042100 0.330540 -0.419474
O22   O     O_R   0.262860 0.790390 0.676650 -0.431246
O23   O     O_R   0.543230 0.049300 0.667990 -0.383549
O24   O     O_R   0.737140 0.790390 0.323350 -0.452463
O25   O     O_R   0.762860 0.290390 0.676650 -0.426440
O26   O     O_R   0.237140 0.290390 0.323350 -0.451683
O27   O     O_R   0.167460 0.907030 0.670940 -0.518566
O28   O     O_R   0.832540 0.907030 0.329060 -0.500869
O29   O     O_R   0.667460 0.407030 0.670940 -0.513977
O30   O     O_R   0.332540 0.407030 0.329060 -0.493011
O31   O     O_R   0.053950 0.750220 0.675100 -0.446288
O32   O     O_R   0.946050 0.750220 0.324900 -0.442201
O33   O     O_R   0.553950 0.250220 0.675100 -0.446911
O34   O     O_R   0.456770 0.049300 0.332010 -0.469217
O35   O     O_R   0.446050 0.250220 0.324900 -0.433875
O36   O     O_R   0.043300 0.547370 0.827390 -0.386817
O37   O     O_R   0.956700 0.547370 0.172610 -0.433107
O38   O     O_R   0.543300 0.047370 0.827390 -0.388654
O39   O     O_R   0.456700 0.047370 0.172610 -0.438014
O40   O     O_R   0.178690 0.455820 0.821860 -0.491793
O41   O     O_R   0.821310 0.455820 0.178140 -0.465943
O42   O     O_R   0.678690 0.955820 0.821860 -0.510925
O43   O     O_R   0.321310 0.955820 0.178140 -0.494757
O44   O     O_R   0.284750 0.540170 0.828860 -0.434083
O45   O     O_R   0.262920 0.788600 0.824420 -0.468663
O46   O     O_R   0.715250 0.540170 0.171140 -0.437084
O47   O     O_R   0.784750 0.040170 0.828860 -0.437343
O48   O     O_R   0.215250 0.040170 0.171140 -0.424631
O49   O     O_2   0.877961 0.431983 0.034584 -0.259958
O50   O     O_2   0.843664 0.635890 0.076314 -0.340327
O51   O     O_3   0.856185 0.601192 0.940834 -0.473955
O52   O     O_2   0.960675 0.374284 0.901756 -0.172105
O53   O     O_2   0.087389 0.373768 0.918280 -0.289513
O54   O     O_3   0.012308 0.328642 0.027342 -0.448533
O55   O     O_2   0.604868 0.951931 0.147394 -0.255057
O56   O     O_R   0.737080 0.788600 0.175580 -0.445435
O57   O     O_2   0.496213 0.843814 0.116982 -0.174195
O58   O     O_3   0.596063 0.832347 0.028001 -0.507934
O59   O     O_2   0.425630 0.866578 0.985906 -0.261393
O60   O     O_2   0.415973 0.983293 0.875677 -0.260954
O61   O     O_3   0.519691 0.831712 0.891689 -0.430173
O62   O     O_2   0.404418 0.921097 0.630004 -0.145717
O63   O     O_2   0.371623 0.705243 0.620600 -0.254178
O64   O     O_3   0.437132 0.798753 0.516557 -0.520752
O65   O     O_2   0.728937 0.647796 0.469419 -0.372044
O66   O     O_2   0.839447 0.671416 0.408661 -0.262013
O67   O     O_R   0.762920 0.288600 0.824420 -0.444757
O68   O     O_3   0.843474 0.663585 0.545231 -0.461300
O69   O     O_2   0.904372 0.420816 0.630169 -0.141771
O70   O     O_2   0.871630 0.204979 0.620408 -0.251143
O71   O     O_3   0.937266 0.299036 0.516599 -0.521463
O72   O     O_2   0.229021 0.147774 0.469516 -0.372853
O73   O     O_2   0.339452 0.171505 0.408655 -0.262776
O74   O     O_3   0.343604 0.163851 0.545234 -0.461991
O75   O     O_R   0.237080 0.288600 0.175580 -0.464801
O76   O     O_R   0.167530 0.905110 0.830340 -0.510752
S1    S     S_3+6 0.885461 0.566982 0.023067 0.041712
S2    S     S_3+6 0.019962 0.407804 0.951479 0.109455
S3    S     S_3+6 0.554964 0.918643 0.088083 0.091081
S4    S     S_3+6 0.466104 0.932550 0.930386 0.094484
S5    S     S_3+6 0.378746 0.822393 0.580282 0.059612
S6    S     S_3+6 0.799076 0.708585 0.472109 -0.010422
S7    S     S_3+6 0.878775 0.322314 0.580272 0.062672
S8    S     S_3+6 0.299124 0.208689 0.472127 -0.011441

loop_
_geom_bond_atom_site_label_1
_geom_bond_atom_site_label_2
_ccdc_geom_bond_type
C44   C49   S    
C1    C87   S    
Cr1   O36   S    
C21   C26   A    
C35   C74   S    
C8    C13   A    
C7    Cl6   S    
C37   C69   S    
H38   O71   S    
Cr6   O38   S    
C43   C83   S    
C87   H17   S    
C49   H40   S    
Cr5   O37   S    
C42   C82   S    
Cr2   O32   S    
Cr11  O75   S    
C53   C59   D    
C56   C81   D    
C32   C72   S    
C40   O27   A    
Cr3   O11   S    
C7    C11   A    
Cr4   O4    S    
Cr5   O41   S    
C22   Cl9   S    
Cr1   O9    S    
Cr2   O6    S    
C35   H8    S    
O54   S2    S    
C8    Cl7   S    
O49   S1    D    
Cr8   O45   S    
Cr3   O3    S    
C76   O37   A    
C29   H29   S    
Cr12  O27   S    
C55   C77   S    
O64   S5    S    
O66   S6    D    
C62   O1    A    
C15   C89   A    
C20   C25   A    
C70   O48   A    
C63   O32   A    
C80   H18   S    
Cr10  O47   S    
C34   O21   A    
C18   C19   A    
C1    O18   A    
C57   C79   S    
O70   S7    D    
H37   O68   S    
Cr7   O39   S    
Cr10  O67   S    
C64   O23   A    
C78   C83   D    
Cr1   O40   S    
C37   H2    S    
C43   O30   A    
C16   C17   A    
C55   H13   S    
Cr6   O42   S    
C27   H27   S    
O51   S1    S    
C41   O24   A    
C76   O6    A    
C28   H28   S    
C90   H12   S    
C79   O8    A    
C58   S1    S    
C24   C28   A    
C9    C10   A    
O57   S3    D    
C37   C46   D    
Cr5   O12   S    
C88   H1    S    
C66   O44   A    
Cr6   O11   S    
C52   H43   S    
C56   C90   S    
Cr4   O8    S    
C69   O42   A    
C8    C16   A    
C18   C22   A    
Cr11  O48   S    
C64   O33   A    
Cr2   O10   S    
Cr4   O30   S    
C53   C75   S    
C34   C84   S    
O58   S3    S    
C31   C49   D    
H31   O51   S    
Cr11  O21   S    
O62   S5    D    
C36   C70   S    
C46   C50   S    
C81   H19   S    
C40   O22   A    
C50   H41   S    
C25   C29   A    
Cr10  O11   S    
C3    C65   S    
C54   H9    S    
Cr3   O7    S    
C1    O14   A    
C69   O47   A    
C79   O39   A    
O61   S4    S    
C6    Cl5   S    
C32   H6    S    
C59   S2    S    
C31   H5    S    
O53   S2    D    
C53   H10   S    
Cr7   O43   S    
C73   O67   A    
Cr11  O26   S    
C67   S7    S    
C25   Cl11  S    
C57   C60   D    
C47   C51   S    
C23   O16   A    
H39   O74   S    
C7    C17   A    
O65   S6    D    
C71   O76   A    
C78   S8    S    
C33   C51   D    
H35   O61   S    
C41   O28   A    
C60   C61   S    
O59   S4    D    
C4    C16   A    
O71   S7    S    
O50   S1    D    
C5    C9    A    
C29   C30   A    
C19   C89   A    
C6    C14   A    
C11   H25   S    
C9    H22   S    
O73   S8    D    
C5    Cl1   S    
Cr8   O9    S    
C46   Cl2   S    
C71   O45   A    
C85   C90   D    
C41   C81   S    
Cr4   O13   S    
Cr3   O29   S    
C66   O40   A    
C67   C91   S    
C38   C47   D    
C75   O36   A    
C75   O5    A    
C40   C80   S    
C13   H26   S    
Cr4   O35   S    
Cr10  O25   S    
C32   C50   D    
C23   O20   A    
C62   O31   A    
C12   O15   A    
C91   H23   S    
C45   C88   S    
C42   O25   A    
C33   C73   S    
Cr9   O19   S    
Cr12  O31   S    
Cr7   O13   S    
Cr6   O23   S    
C26   C30   A    
Cr10  O20   S    
Cr1   O14   S    
C10   H24   S    
C92   H34   S    
C22   C27   A    
C39   C66   S    
C54   C76   S    
Cr12  O5    S    
C36   C44   D    
O55   S3    D    
Cr8   O44   S    
C45   S5    S    
C83   H21   S    
C33   H7    S    
Cr5   O10   S    
Cr8   O18   S    
C65   O34   A    
C54   C58   D    
C70   O43   A    
C56   S6    S    
C35   C52   D    
C72   O2    A    
C48   Cl4   S    
Cr3   O33   S    
C72   O56   A    
C68   O41   A    
O72   S8    D    
C61   S4    S    
C84   C88   D    
C77   O38   A    
C38   C68   S    
C2    C18   A    
C39   C48   D    
H32   O54   S    
C57   H11   S    
Cr8   O22   S    
C24   Cl8   S    
Cr5   O15   S    
C44   Cl12  S    
Cr9   O10   S    
Cr6   O16   S    
C77   O7    A    
C4    C64   S    
C51   H42   S    
C43   O26   A    
C12   C86   S    
C86   C91   D    
C30   H30   S    
C78   C92   S    
Cr9   O46   S    
H36   O64   S    
C19   C24   A    
C58   C59   S    
Cr2   O28   S    
C73   O3    A    
C26   Cl10  S    
C74   O4    A    
C11   C13   A    
C42   O29   A    
C86   H16   S    
C63   O12   A    
C68   O46   A    
O63   S5    D    
O69   S7    D    
C55   C61   D    
C84   H14   S    
C38   H3    S    
Cr12  O9    S    
C3    C17   A    
C45   C80   D    
Cr1   O1    S    
C63   C89   S    
Cr2   O2    S    
C82   H20   S    
C2    C14   A    
O52   S2    D    
C5    C15   A    
C3    C21   A    
C6    C10   A    
C36   H44   S    
Cr7   O34   S    
C4    C20   A    
Cr9   O24   S    
C48   C52   S    
C12   O19   A    
O68   S6    S    
C20   C21   A    
C67   C82   D    
Cr11  O13   S    
C23   C85   S    
C60   S3    S    
C27   C28   A    
Cr7   O17   S    
C47   Cl3   S    
C14   C15   A    
O60   S4    D    
C34   O17   A    
H33   O58   S    
Cr9   O56   S    
C74   O75   A    
C87   C92   D    
C2    C62   S    
Cr12  O76   S    
C85   H15   S    
C39   H4    S    
O74   S8    S    
C31   C71   S    
C65   O35   A    
