data_mof_unit_60380.cif
_audit_creation_date              2012-12-10T20:09:04-0500
_audit_creation_method            fapswitch 2.2
_symmetry_space_group_name_H-M    P1
_symmetry_Int_Tables_number       1
_space_group_crystal_system       triclinic
_cell_length_a                    22.486063
_cell_length_b                    22.485283
_cell_length_c                    17.08352
_cell_angle_alpha                 89.999982
_cell_angle_beta                  48.843062
_cell_angle_gamma                 90.0
_cell_volume                      6503.27415506

loop_
_atom_site_label
_atom_site_type_symbol
_atom_type_description
_atom_site_fract_x
_atom_site_fract_y
_atom_site_fract_z
_atom_type_partial_charge
C1    C     C_R   0.858369 0.750022 0.783306 0.593358
C2    C     C_1   0.223338 0.249986 0.500001 0.006021
C3    C     C_1   0.223338 0.750014 0.500001 0.006018
C4    C     C_1   0.776662 0.249986 0.499999 0.006021
C5    C     C_1   0.276662 0.250014 0.499999 0.006021
C6    C     C_1   0.723338 0.749986 0.500001 0.006019
C7    C     C_1   0.723338 0.250014 0.500001 0.006021
C8    C     C_1   0.276662 0.749986 0.499999 0.006018
C9    C     C_1   0.000000 0.526665 0.500000 0.019935
C10   C     C_1   1.000000 0.473335 0.500000 0.019935
C11   C     C_1   0.500000 0.026665 0.500000 0.019935
C12   C     C_R   0.141631 0.249978 0.216694 0.593357
C13   C     C_1   0.500000 0.973335 0.500000 0.019935
C14   C     C_R   0.160022 0.750032 0.500012 0.523934
C15   C     C_R   0.839978 0.249968 0.499988 0.523938
C16   C     C_R   0.839978 0.750032 0.499988 0.523934
C17   C     C_R   0.160022 0.249968 0.500012 0.523932
C18   C     C_R   0.660022 0.250032 0.500012 0.523938
C19   C     C_R   0.339978 0.749968 0.499988 0.523934
C20   C     C_R   0.339978 0.250032 0.499988 0.523932
C21   C     C_R   0.660022 0.749968 0.500012 0.523935
C22   C     C_R   0.000000 0.589986 0.500000 0.530971
C23   C     C_R   0.141631 0.750022 0.216694 0.593357
C24   C     C_R   0.000000 0.410014 0.500000 0.530973
C25   C     C_R   0.500000 0.089986 0.500000 0.530973
C26   C     C_R   0.500000 0.910014 0.500000 0.530971
C27   C     C_R   1.000000 0.910044 0.500000 0.516446
C28   C     C_R   1.000000 0.089956 0.500000 0.516443
C29   C     C_R   0.500000 0.410044 0.500000 0.516443
C30   C     C_R   0.500000 0.589956 0.500000 0.516446
C31   C     C_1   0.000000 0.973342 0.500000 -0.008476
C32   C     C_1   1.000000 0.026658 0.500000 -0.008476
C33   C     C_1   0.500000 0.473342 0.500000 -0.008476
C34   C     C_R   0.858369 0.249977 0.783306 0.593358
C35   C     C_1   0.500000 0.526658 0.500000 -0.008476
C36   C     C_3   0.272525 0.790105 0.035220 -0.172312
C37   C     C_3   0.727487 0.209882 0.964780 -0.172313
C38   C     C_3   0.727475 0.790106 0.964780 -0.172313
C39   C     C_3   0.272524 0.209893 0.035220 -0.172312
C40   C     C_3   0.772513 0.290118 0.035220 -0.172313
C41   C     C_3   0.227475 0.709895 0.964780 -0.172312
C42   C     C_3   0.227476 0.290107 0.964780 -0.172312
C43   C     C_3   0.772524 0.709894 0.035220 -0.172313
C44   C     C_3   0.752685 0.304089 0.965844 -0.022392
C45   C     C_R   0.358369 0.250022 0.783306 0.593358
C46   C     C_3   0.247299 0.695907 0.034154 -0.022392
C47   C     C_3   0.247301 0.304093 0.034154 -0.022392
C48   C     C_3   0.752700 0.695907 0.965846 -0.022392
C49   C     C_3   0.252701 0.804093 0.965846 -0.022392
C50   C     C_3   0.747314 0.195911 0.034156 -0.022392
C51   C     C_3   0.747300 0.804093 0.034154 -0.022392
C52   C     C_3   0.252699 0.195907 0.965845 -0.022392
C53   C     C_3   0.801492 0.250072 0.897209 0.061402
C54   C     C_3   0.198508 0.749928 0.102791 0.061401
C55   C     C_3   0.198508 0.250072 0.102791 0.061402
C56   C     C_R   0.641631 0.749978 0.216694 0.593357
C57   C     C_3   0.801492 0.749928 0.897209 0.061402
C58   C     C_3   0.301492 0.750072 0.897209 0.061402
C59   C     C_3   0.698507 0.249928 0.102791 0.061402
C60   C     C_3   0.698508 0.750072 0.102791 0.061402
C61   C     C_3   0.301492 0.249928 0.897209 0.061402
C62   C     C_3   0.821142 0.235579 0.965895 -0.020206
C63   C     C_3   0.178862 0.764437 0.034107 -0.020207
C64   C     C_3   0.178861 0.235565 0.034107 -0.020207
C65   C     C_3   0.821138 0.764436 0.965893 -0.020206
C66   C     C_3   0.321138 0.735563 0.965893 -0.020207
C67   C     C_R   0.641631 0.250023 0.216694 0.593357
C68   C     C_3   0.678858 0.264421 0.034105 -0.020206
C69   C     C_3   0.678862 0.735564 0.034107 -0.020206
C70   C     C_3   0.321139 0.264435 0.965893 -0.020207
C71   C     C_2   0.753228 0.365672 0.931785 0.233029
C72   C     C_2   0.246740 0.634317 0.068210 0.233031
C73   C     C_2   0.246743 0.365681 0.068210 0.233031
C74   C     C_2   0.753259 0.634318 0.931790 0.233030
C75   C     C_2   0.253260 0.865683 0.931790 0.233031
C76   C     C_2   0.746772 0.134328 0.068214 0.233029
C77   C     C_2   0.746741 0.865682 0.068210 0.233030
C78   C     C_R   0.358368 0.749978 0.783306 0.593358
C79   C     C_2   0.253257 0.134319 0.931790 0.233031
C80   C     C_2   0.899726 0.219060 0.931890 0.228761
C81   C     C_2   0.100282 0.780975 0.068114 0.228758
C82   C     C_2   0.100282 0.219029 0.068114 0.228759
C83   C     C_2   0.899718 0.780973 0.931886 0.228758
C84   C     C_2   0.399718 0.719025 0.931886 0.228758
C85   C     C_2   0.600274 0.280940 0.068110 0.228760
C86   C     C_2   0.600282 0.719027 0.068114 0.228758
C87   C     C_2   0.399718 0.280971 0.931886 0.228759
C88   C     C_1   0.776662 0.750014 0.499999 0.006019
H1    H     H_    0.290917 0.822981 0.064235 0.139135
H2    H     H_    0.283498 0.600185 0.010207 0.118147
H3    H     H_    0.283503 0.399813 0.010207 0.118147
H4    H     H_    0.716500 0.600186 0.989793 0.118146
H5    H     H_    0.216502 0.899815 0.989793 0.118147
H6    H     H_    0.783544 0.100198 0.010213 0.118148
H7    H     H_    0.783500 0.899814 0.010207 0.118146
H8    H     H_    0.216497 0.100187 0.989793 0.118147
H9    H     H_    0.904825 0.211296 0.989920 0.120664
H10   H     H_    0.095184 0.788753 0.010086 0.120664
H11   H     H_    0.095183 0.211252 0.010085 0.120664
H12   H     H_    0.709106 0.176996 0.935765 0.139135
H13   H     H_    0.904816 0.788751 0.989915 0.120664
H14   H     H_    0.404816 0.711247 0.989914 0.120664
H15   H     H_    0.595175 0.288704 0.010080 0.120664
H16   H     H_    0.595184 0.711249 0.010085 0.120664
H17   H     H_    0.404817 0.288748 0.989915 0.120665
H18   H     H_    0.709084 0.822982 0.935765 0.139136
H19   H     H_    0.290915 0.177017 0.064235 0.139136
H20   H     H_    0.790894 0.323004 0.064235 0.139135
H21   H     H_    0.209082 0.677019 0.935765 0.139135
H22   H     H_    0.209085 0.322983 0.935765 0.139136
H23   H     H_    0.790916 0.677018 0.064235 0.139136
H24   H     H_    0.716456 0.399802 0.989787 0.118148
O1    O     O_3   1.000000 0.750020 0.500000 -0.472509
O2    O     O_R   0.651900 0.715370 0.265390 -0.558823
O3    O     O_R   0.651900 0.284630 0.265390 -0.558823
O4    O     O_R   0.348100 0.715370 0.734610 -0.558823
O5    O     O_R   0.101280 0.715410 0.561510 -0.517606
O6    O     O_R   0.898720 0.284590 0.438490 -0.517605
O7    O     O_R   0.898720 0.715410 0.438490 -0.517606
O8    O     O_R   0.101280 0.284590 0.561510 -0.517603
O9    O     O_R   0.601280 0.215410 0.561510 -0.517605
O10   O     O_R   0.398720 0.784590 0.438490 -0.517606
O11   O     O_R   0.398720 0.215410 0.438490 -0.517603
O12   O     O_3   1.000000 0.249980 0.500000 -0.472509
O13   O     O_R   0.601280 0.784590 0.561510 -0.517606
O14   O     O_R   0.003860 0.617990 0.561510 -0.520326
O15   O     O_R   0.996140 0.382010 0.438490 -0.520323
O16   O     O_R   0.996140 0.617990 0.438490 -0.520324
O17   O     O_R   0.003860 0.382010 0.561510 -0.520329
O18   O     O_R   0.503860 0.117990 0.561510 -0.520324
O19   O     O_R   0.496140 0.882010 0.438490 -0.520326
O20   O     O_R   0.496140 0.117990 0.438490 -0.520329
O21   O     O_R   0.503860 0.882010 0.561510 -0.520325
O22   O     O_R   0.934640 0.882050 0.561510 -0.532914
O23   O     O_3   0.500000 0.250020 0.500000 -0.472509
O24   O     O_R   0.065360 0.117950 0.438490 -0.532915
O25   O     O_R   0.065360 0.882050 0.438490 -0.532914
O26   O     O_R   0.934640 0.117950 0.561510 -0.532917
O27   O     O_R   0.434640 0.382050 0.561510 -0.532915
O28   O     O_R   0.565360 0.617950 0.438490 -0.532914
O29   O     O_R   0.565360 0.382050 0.438490 -0.532917
O30   O     O_R   0.434640 0.617950 0.561510 -0.532914
O31   O     O_R   0.162780 0.784640 0.438490 -0.535272
O32   O     O_R   0.837220 0.215360 0.561510 -0.535269
O33   O     O_R   0.837220 0.784640 0.561510 -0.535272
O34   O     O_3   0.500000 0.749980 0.500000 -0.472509
O35   O     O_R   0.162780 0.215360 0.438490 -0.535273
O36   O     O_R   0.662780 0.284640 0.438490 -0.535268
O37   O     O_R   0.337220 0.715360 0.561510 -0.535273
O38   O     O_R   0.337220 0.284640 0.561510 -0.535273
O39   O     O_R   0.662780 0.715360 0.438490 -0.535271
O40   O     O_R   0.917330 0.715410 0.734610 -0.467815
O41   O     O_R   0.082670 0.284590 0.265390 -0.467816
O42   O     O_R   0.082670 0.715410 0.265390 -0.467815
O43   O     O_R   0.917330 0.284590 0.734610 -0.467815
O44   O     O_R   0.417330 0.215410 0.734610 -0.467816
O45   O     O_R   0.848100 0.784630 0.734610 -0.558824
O46   O     O_R   0.582670 0.784590 0.265390 -0.467815
O47   O     O_R   0.582670 0.215410 0.265390 -0.467815
O48   O     O_R   0.417330 0.784590 0.734610 -0.467816
O49   O     O_2   0.794275 0.377769 0.839750 -0.482570
O50   O     O_2   0.205694 0.622219 0.160244 -0.482562
O51   O     O_2   0.205697 0.377780 0.160245 -0.482563
O52   O     O_2   0.794304 0.622219 0.839756 -0.482563
O53   O     O_2   0.294306 0.877781 0.839756 -0.482563
O54   O     O_2   0.705725 0.122231 0.160250 -0.482570
O55   O     O_2   0.705696 0.877781 0.160244 -0.482563
O56   O     O_R   0.151900 0.215370 0.265390 -0.558822
O57   O     O_2   0.294303 0.122220 0.839755 -0.482563
O58   O     O_2   0.957849 0.214055 0.839866 -0.490208
O59   O     O_2   0.042161 0.785978 0.160140 -0.490214
O60   O     O_2   0.042160 0.214025 0.160139 -0.490212
O61   O     O_2   0.957839 0.785975 0.839861 -0.490214
O62   O     O_2   0.457839 0.714022 0.839860 -0.490214
O63   O     O_2   0.542151 0.285944 0.160134 -0.490208
O64   O     O_2   0.542161 0.714025 0.160139 -0.490214
O65   O     O_2   0.457840 0.285975 0.839861 -0.490212
O66   O     O_R   0.151900 0.784630 0.265390 -0.558823
O67   O     O_R   0.848100 0.215370 0.734610 -0.558824
O68   O     O_R   0.348100 0.284630 0.734610 -0.558823
Zn1   Zn    Zn3+2 0.093390 0.799470 0.412120 0.972548
Zn2   Zn    Zn3+2 0.994480 0.299440 0.412120 1.030267
Zn3   Zn    Zn3+2 0.994480 0.700560 0.412120 1.030263
Zn4   Zn    Zn3+2 0.005520 0.299440 0.587880 1.030263
Zn5   Zn    Zn3+2 0.505520 0.200560 0.587880 1.030268
Zn6   Zn    Zn3+2 0.494480 0.799440 0.412120 1.030262
Zn7   Zn    Zn3+2 0.494480 0.200560 0.412120 1.030263
Zn8   Zn    Zn3+2 0.505520 0.799440 0.587880 1.030263
Zn9   Zn    Zn3+2 0.906610 0.200530 0.587880 0.972548
Zn10  Zn    Zn3+2 0.906610 0.799470 0.587880 0.972548
Zn11  Zn    Zn3+2 0.093390 0.200530 0.412120 0.972545
Zn12  Zn    Zn3+2 0.593390 0.299470 0.412120 0.972548
Zn13  Zn    Zn3+2 0.406610 0.700530 0.587880 0.972548
Zn14  Zn    Zn3+2 0.406610 0.299470 0.587880 0.972544
Zn15  Zn    Zn3+2 0.593390 0.700530 0.412120 0.972548
Zn16  Zn    Zn3+2 0.005520 0.700560 0.587880 1.030262

loop_
_geom_bond_atom_site_label_1
_geom_bond_atom_site_label_2
_ccdc_geom_bond_type
C36   H1    S    
O36   Zn12  S    
C19   O10   A    
C49   C63   S    
O33   Zn10  S    
C41   C63   S    
C84   H14   S    
C82   H11   S    
C80   O58   D    
C48   C69   S    
C86   H16   S    
O18   Zn5   S    
C40   C62   S    
C48   C57   S    
C5    C20   S    
O44   Zn5   S    
C39   H19   S    
O1    Zn10  S    
O29   Zn12  S    
C27   O25   A    
O56   Zn11  S    
O47   Zn7   S    
C30   C35   S    
C63   C81   S    
O13   Zn8   S    
C50   C59   S    
O31   Zn1   S    
O34   Zn8   S    
C17   O35   A    
C41   C58   S    
C46   C66   S    
C50   C76   S    
C52   C61   S    
C39   C70   S    
C80   H9    S    
C36   C66   S    
C9    C22   S    
O10   Zn6   S    
O25   Zn1   S    
C81   H10   S    
C25   O18   A    
O39   Zn15  S    
C37   C68   S    
C29   C33   S    
C6    C88   T    
C1    O40   A    
C51   C65   S    
C74   H4    S    
C67   O3    A    
O45   Zn10  S    
O38   Zn14  S    
C23   O66   A    
C56   O46   A    
O21   Zn8   S    
C76   H6    S    
C44   C53   S    
C58   C66   S    
C45   O68   A    
O1    Zn1   S    
O35   Zn11  S    
C20   O11   A    
O67   Zn9   S    
C24   O15   A    
C41   C46   S    
C49   C75   S    
C76   O54   D    
C52   C79   S    
C83   H13   S    
C9    C10   T    
C12   O41   A    
C47   C73   S    
C46   C72   S    
C17   O8    A    
O27   Zn14  S    
C40   H20   S    
C59   C67   S    
C7    C18   S    
C21   O39   A    
C39   C52   S    
C38   C69   S    
C40   C59   S    
C41   H21   S    
C55   C64   S    
C2    C17   S    
C68   C85   S    
C34   O67   A    
O16   Zn3   S    
C43   H23   S    
C4    C7    T    
C84   O62   D    
C70   C87   S    
O46   Zn6   S    
O20   Zn7   S    
O23   Zn7   S    
O12   Zn9   S    
C36   C49   S    
O6    Zn2   S    
C29   O27   A    
C82   O60   D    
C8    C19   S    
C30   O28   A    
O2    Zn15  S    
O40   Zn16  S    
O24   Zn11  S    
C27   C31   S    
C12   C55   S    
C48   C74   S    
C28   C32   S    
C28   O26   A    
C73   H3    S    
C3    C8    T    
C52   C64   S    
C16   O7    A    
C58   C78   S    
O43   Zn4   S    
C39   C55   S    
C38   C51   S    
C10   C24   S    
C34   O43   A    
C6    C21   S    
O9    Zn5   S    
C77   H7    S    
C26   O21   A    
C49   C58   S    
C56   C60   S    
C44   C71   S    
C61   C70   S    
C38   H18   S    
C37   H12   S    
C51   C77   S    
C47   C70   S    
O12   Zn2   S    
C1    C57   S    
C59   C68   S    
C87   O65   D    
C38   C57   S    
C72   H2    S    
C53   C62   S    
C54   C63   S    
C22   O16   A    
C31   C32   T    
C87   H17   S    
C43   C65   S    
C14   O5    A    
C29   O29   A    
O42   Zn3   S    
C46   C54   S    
C24   O17   A    
C75   O53   D    
C45   O44   A    
O7    Zn3   S    
O34   Zn13  S    
O8    Zn4   S    
C42   C61   S    
C64   C82   S    
C3    C14   S    
C43   C60   S    
O3    Zn12  S    
C78   O48   A    
O17   Zn4   S    
C83   O61   D    
C50   C62   S    
O1    Zn16  S    
C13   C26   S    
C44   C68   S    
O26   Zn9   S    
O4    Zn13  S    
C21   O13   A    
C42   C64   S    
O68   Zn14  S    
C75   H5    S    
C23   C54   S    
C47   C55   S    
C43   C48   S    
C62   C80   S    
C14   O31   A    
C72   O50   D    
C71   O49   D    
C28   O24   A    
C27   O22   A    
O34   Zn6   S    
C22   O14   A    
C78   O4    A    
C57   C65   S    
C85   H15   S    
C12   O56   A    
O12   Zn4   S    
C77   O55   D    
O37   Zn13  S    
C18   O36   A    
C30   O30   A    
C15   O6    A    
O22   Zn10  S    
C4    C15   S    
C1    O45   A    
C42   H22   S    
C37   C53   S    
C79   H8    S    
C73   O51   D    
O5    Zn16  S    
C85   O63   D    
O23   Zn14  S    
C74   O52   D    
C37   C50   S    
C11   C13   T    
C33   C35   T    
C79   O57   D    
O1    Zn3   S    
C60   C69   S    
C16   C88   S    
C45   C61   S    
C19   O37   A    
O30   Zn13  S    
C20   O38   A    
C86   O64   D    
C42   C47   S    
C81   O59   D    
O11   Zn7   S    
O28   Zn15  S    
O23   Zn12  S    
O66   Zn1   S    
C65   C83   S    
C69   C86   S    
C18   O9    A    
C66   C84   S    
C15   O32   A    
C2    C5    T    
C11   C25   S    
O14   Zn16  S    
O19   Zn6   S    
C40   C44   S    
O41   Zn2   S    
C34   C53   S    
O32   Zn9   S    
C23   O42   A    
C71   H24   S    
O15   Zn2   S    
C56   O2    A    
C16   O33   A    
C67   O47   A    
C51   C60   S    
C36   C54   S    
O34   Zn15  S    
C25   O20   A    
O23   Zn5   S    
O12   Zn11  S    
C26   O19   A    
O48   Zn8   S    
