data_mof_unit_63803.cif
_audit_creation_date              2012-10-26T17:41:54-0400
_audit_creation_method            fapswitch 2.2
_symmetry_space_group_name_H-M    P1
_symmetry_Int_Tables_number       1
_space_group_crystal_system       triclinic
_cell_length_a                    21.736392
_cell_length_b                    21.739436
_cell_length_c                    22.162446
_cell_angle_alpha                 119.290636
_cell_angle_beta                  119.154809
_cell_angle_gamma                 90.123637
_cell_volume                      7568.38500405

loop_
_atom_site_label
_atom_site_type_symbol
_atom_type_description
_atom_site_fract_x
_atom_site_fract_y
_atom_site_fract_z
_atom_type_partial_charge
C1    C     C_R   0.500146 0.118663 0.500115 0.559710
C2    C     C_R   0.501416 0.185628 0.501598 0.030042
C3    C     C_R   0.568054 0.245028 0.555052 -0.126908
C4    C     C_R   0.579875 0.079873 0.659895 0.556833
C5    C     C_R   0.567928 0.310186 0.555627 -0.136074
C6    C     C_R   0.501678 0.315247 0.500668 0.024090
C7    C     C_R   0.438017 0.254923 0.448208 0.017564
C8    C     C_3   0.357059 0.226536 0.382607 -0.262826
C9    C     C_3   0.356685 0.156284 0.383940 -0.250497
C10   C     C_3   0.211228 0.763962 0.049174 -0.248918
C11   C     C_3   0.318337 0.722805 0.047956 0.114997
C12   C     C_3   0.729805 0.326391 0.050233 -0.180047
C13   C     C_3   0.267462 0.673125 0.950609 -0.189915
C14   C     C_1   0.125242 0.624892 0.749626 -0.011583
C15   C     C_3   0.293895 0.793358 0.082753 0.018906
C16   C     C_R   0.499384 0.880709 0.499013 0.542922
C17   C     C_3   0.161783 0.718748 0.952413 -0.232755
C18   C     C_3   0.210164 0.709400 0.917206 -0.021479
C19   C     C_3   0.252886 0.787496 0.949818 -0.192671
C20   C     C_3   0.299440 0.838737 0.047149 0.151311
C21   C     C_1   0.163314 0.662833 0.825009 -0.061819
C22   C     C_1   0.338803 0.838667 0.175068 0.046278
C23   C     C_3   0.790755 0.292670 0.082694 0.019633
C24   C     C_1   0.375644 0.875706 0.250452 0.064462
C25   C     C_R   0.465714 0.797176 0.530656 -0.035266
C26   C     C_R   0.496137 0.811907 0.494593 0.028717
C27   C     C_R   0.520339 0.757597 0.451301 -0.130927
C28   C     C_R   0.420150 0.920102 0.340134 0.555774
C29   C     C_R   0.520437 0.693479 0.452063 -0.131785
C30   C     C_R   0.499830 0.685150 0.499413 0.057412
C31   C     C_R   0.470229 0.736717 0.536072 -0.013328
C32   C     C_3   0.482825 0.779610 0.620992 0.151934
C33   C     C_3   0.476589 0.845792 0.613451 -0.217879
C34   C     C_3   0.752384 0.212125 0.047873 -0.228289
C35   C     C_R   0.881604 0.500006 0.500160 0.547370
C36   C     C_R   0.920233 0.420063 0.340092 0.542699
C37   C     C_R   0.118276 0.499278 0.498635 0.541797
C38   C     C_R   0.080127 0.579947 0.659889 0.550284
C39   C     C_R   0.618938 0.499955 0.500012 0.546746
C40   C     C_3   0.680600 0.279039 0.952823 0.137041
C41   C     C_R   0.500197 0.381162 0.500077 0.546064
C42   C     C_R   0.381161 0.499800 0.500183 0.544081
C43   C     C_R   0.500058 0.619033 0.500096 0.551497
C44   C     C_R   0.757561 0.515515 0.452408 0.017285
C45   C     C_3   0.702903 0.164751 0.950948 -0.261018
C46   C     C_R   0.815982 0.500107 0.501504 0.021210
C47   C     C_R   0.808443 0.483504 0.552168 -0.145873
C48   C     C_R   0.743831 0.484166 0.552705 -0.145224
C49   C     C_R   0.685312 0.498852 0.500398 0.025878
C50   C     C_R   0.694606 0.513325 0.450541 0.018117
C51   C     C_3   0.659292 0.533062 0.388482 -0.267550
C52   C     C_3   0.790815 0.239413 0.951361 -0.200559
C53   C     C_3   0.730918 0.534751 0.389878 -0.261410
C54   C     C_R   0.245730 0.562799 0.554430 0.006233
C55   C     C_R   0.184974 0.498434 0.498930 0.002329
C56   C     C_1   0.837243 0.337959 0.174912 -0.067267
C57   C     C_R   0.192804 0.431084 0.449782 -0.160178
C58   C     C_R   0.257270 0.431085 0.449676 -0.155012
C59   C     C_R   0.315575 0.497931 0.501767 0.011532
C60   C     C_R   0.311092 0.562153 0.558520 -0.018375
C61   C     C_3   0.328923 0.639859 0.580893 -0.241453
C62   C     C_3   0.255699 0.640453 0.574558 0.155588
C63   C     C_3   0.838758 0.289824 0.048241 -0.218813
C64   C     C_1   0.875175 0.375286 0.250318 -0.021217
C65   C     C_3   0.707910 0.211410 0.917312 0.045465
C66   C     C_3   0.176795 0.595356 0.428959 0.031622
C67   C     C_1   0.662048 0.163948 0.825039 -0.007645
C68   C     C_3   0.160785 0.631254 0.380647 -0.260744
C69   C     C_3   0.130664 0.573474 0.289139 -0.479322
C70   C     C_1   0.624565 0.125300 0.749639 0.026566
C71   C     C_R   0.437564 0.193780 0.449945 0.016731
Cu1   Cu    Cu3+1 0.438190 0.000000 0.500020 0.971304
Cu2   Cu    Cu3+1 0.561810 0.000000 0.499980 1.013079
Cu3   Cu    Cu3+1 0.000200 0.561800 0.500000 0.980486
Cu4   Cu    Cu3+1 0.000170 0.438200 0.500000 0.962640
Cu5   Cu    Cu3+1 0.541330 0.541310 0.582630 1.048061
Cu6   Cu    Cu3+1 0.458770 0.458690 0.417370 0.946050
H1    H     H_    0.756497 0.384934 0.076490 0.186021
H2    H     H_    0.345537 0.105906 0.325697 0.196079
H3    H     H_    0.128221 0.663284 0.927243 0.128053
H4    H     H_    0.205796 0.727620 0.069469 0.098261
H5    H     H_    0.310446 0.689739 0.070738 0.126585
H6    H     H_    0.237836 0.617593 0.929394 0.113058
H7    H     H_    0.300517 0.663120 0.922970 0.191488
H8    H     H_    0.358375 0.858354 0.070273 0.192833
H9    H     H_    0.212847 0.812175 0.921614 0.153488
H10   H     H_    0.190897 0.810210 0.075915 0.210666
H11   H     H_    0.122221 0.747645 0.932152 0.162929
H12   H     H_    0.622857 0.256407 0.931897 0.092275
H13   H     H_    0.810999 0.191006 0.930204 0.114860
H14   H     H_    0.290683 0.782016 0.928417 0.139095
H15   H     H_    0.540186 0.765268 0.418347 0.142474
H16   H     H_    0.539804 0.652279 0.419108 0.117243
H17   H     H_    0.436688 0.758302 0.621375 0.097974
H18   H     H_    0.425843 0.860550 0.607237 0.113266
H19   H     H_    0.528281 0.894061 0.658398 0.180794
H20   H     H_    0.852556 0.471294 0.591936 0.132853
H21   H     H_    0.739204 0.472317 0.592726 0.128206
H22   H     H_    0.609556 0.487130 0.328072 0.152132
H23   H     H_    0.694123 0.328424 0.073559 0.093618
H24   H     H_    0.798024 0.269807 0.925877 0.186733
H25   H     H_    0.651444 0.588546 0.415398 0.139061
H26   H     H_    0.722621 0.489463 0.330444 0.141342
H27   H     H_    0.764081 0.591109 0.417005 0.156977
H28   H     H_    0.147913 0.379368 0.408743 0.133768
H29   H     H_    0.261168 0.379515 0.408382 0.126377
H30   H     H_    0.378306 0.678146 0.645845 0.143807
H31   H     H_    0.331343 0.643308 0.533660 0.121847
H32   H     H_    0.264553 0.680154 0.636145 0.144693
H33   H     H_    0.864584 0.346876 0.069741 0.150120
H34   H     H_    0.795038 0.186277 0.069566 0.142472
H35   H     H_    0.884670 0.268129 0.072815 0.121535
H36   H     H_    0.644330 0.143674 0.928721 0.127666
H37   H     H_    0.720845 0.115297 0.926459 0.149083
H38   H     H_    0.717700 0.212609 0.071923 0.133475
H39   H     H_    0.585497 0.370597 0.925395 0.338879
H40   H     H_    0.487121 0.673909 0.076498 0.382690
H41   H     H_    0.159808 0.899498 0.986853 0.349888
H42   H     H_    0.621075 0.744273 0.770856 0.365654
H43   H     H_    0.124323 0.554217 0.399969 0.161149
H44   H     H_    0.216609 0.565146 0.422488 0.126336
H45   H     H_    0.619472 0.241552 0.596866 0.145406
H46   H     H_    0.119414 0.660263 0.384253 0.186776
H47   H     H_    0.212821 0.672984 0.409395 0.170462
H48   H     H_    0.171842 0.544833 0.283986 0.152898
H49   H     H_    0.119504 0.601329 0.255859 0.161612
H50   H     H_    0.078031 0.531715 0.258828 0.154611
H51   H     H_    0.619288 0.355722 0.597727 0.133818
H52   H     H_    0.325918 0.259717 0.406473 0.134568
H53   H     H_    0.345629 0.216575 0.323382 0.169762
H54   H     H_    0.324885 0.148637 0.408004 0.153446
O1    O     O_R   0.447800 0.090170 0.500010 -0.503286
O2    O     O_R   0.555400 0.465140 0.430260 -0.511318
O3    O     O_R   0.534920 0.444720 0.569790 -0.509881
O4    O     O_R   0.552190 0.090170 0.499980 -0.507523
O5    O     O_R   0.465190 0.374940 0.430230 -0.509016
O6    O     O_R   0.444700 0.534860 0.569740 -0.483677
O7    O     O_R   0.374970 0.465080 0.430180 -0.523159
O8    O     O_R   0.534910 0.625060 0.569770 -0.431058
O9    O     O_R   0.465180 0.555280 0.430210 -0.531199
O10   O     O_R   0.508090 0.060280 0.620580 -0.501655
O11   O     O_R   0.612480 0.060280 0.620550 -0.504592
O12   O     O_R   0.909990 0.447840 0.500030 -0.510958
O13   O     O_R   0.447810 0.909830 0.500020 -0.515177
O14   O     O_R   0.552200 0.909830 0.499990 -0.506795
O15   O     O_R   0.387520 0.939720 0.379450 -0.513936
O16   O     O_R   0.491910 0.939720 0.379420 -0.477359
O17   O     O_R   0.910020 0.552220 0.500020 -0.507622
O18   O     O_2   0.751809 0.378520 0.948095 -0.260253
O19   O     O_2   0.629730 0.292630 0.821501 -0.273925
O20   O     O_3   0.635652 0.400387 0.949731 -0.482024
O21   O     O_2   0.430059 0.772713 0.042780 -0.293547
O22   O     O_2   0.464727 0.795211 0.176768 -0.268733
O23   O     O_R   0.939920 0.491910 0.379430 -0.507885
O24   O     O_3   0.434199 0.660975 0.056723 -0.513543
O25   O     O_2   0.314836 0.969842 0.175431 -0.266041
O26   O     O_2   0.295013 0.966556 0.055709 -0.273070
O27   O     O_3   0.182002 0.903152 0.039989 -0.529716
O28   O     O_2   0.596055 0.872766 0.782447 -0.278134
O29   O     O_2   0.629260 0.795718 0.684497 -0.268895
O30   O     O_3   0.569366 0.732942 0.726115 -0.498582
O31   O     O_3   0.202511 0.651294 0.512763 -0.545084
O32   O     O_R   0.939890 0.387530 0.379440 -0.503095
O33   O     O_R   0.090380 0.552160 0.499970 -0.487751
O34   O     O_R   0.090350 0.447780 0.499980 -0.509116
O35   O     O_R   0.060480 0.612470 0.620560 -0.498673
O36   O     O_R   0.060450 0.508090 0.620570 -0.502915
O37   O     O_R   0.625130 0.534920 0.569820 -0.508730
S1    S     S_3+6 0.675495 0.337575 0.915281 -0.002119
S2    S     S_3+6 0.415066 0.741663 0.083531 -0.021027
S3    S     S_3+6 0.273873 0.922671 0.081950 -0.011924
S4    S     S_3+6 0.573157 0.797499 0.705935 0.018119

loop_
_geom_bond_atom_site_label_1
_geom_bond_atom_site_label_2
_ccdc_geom_bond_type
C25   C31   A    
C66   C68   S    
C42   O7    A    
C18   C21   S    
C32   H17   S    
C19   C20   S    
Cu6   O9    S    
C1    O1    A    
H42   O30   S    
C4    C70   S    
C36   O23   A    
C23   C56   S    
C54   C60   A    
Cu5   O6    S    
C51   H25   S    
C13   H7    S    
Cu3   O23   S    
C26   C27   A    
C13   C18   S    
Cu2   O16   S    
O18   S1    D    
C14   C21   T    
Cu3   O17   S    
C16   O13   A    
C18   C19   S    
C10   C15   S    
C7    C71   A    
C30   C31   A    
O27   S3    S    
O19   S1    D    
C27   C29   A    
C53   H27   S    
C17   H11   S    
C63   H35   S    
C66   O31   S    
Cu4   O32   S    
C1    C2    S    
C9    H2    S    
C39   O37   A    
C61   H31   S    
C41   O3    A    
C54   C55   A    
O30   S4    S    
C52   H13   S    
C45   H37   S    
C15   C22   S    
Cu2   O4    S    
C8    C9    S    
C65   C67   S    
C6    C41   S    
C12   H1    S    
O22   S2    D    
H40   O24   S    
C36   O32   A    
C56   C64   T    
C43   O8    A    
Cu6   O5    S    
C40   H12   S    
C3    H45   S    
C19   H9    S    
C23   C63   S    
C32   S4    S    
C69   H48   S    
C59   C60   A    
C66   H43   S    
C42   O6    A    
C51   H22   S    
C34   H34   S    
O29   S4    D    
C68   H47   S    
C38   O36   A    
Cu6   O2    S    
C60   C61   S    
C27   H15   S    
C33   H18   S    
C68   H46   S    
C40   S1    S    
C29   H16   S    
C44   C46   A    
Cu1   O1    S    
Cu2   O11   S    
C9    H54   S    
C11   H5    S    
C16   C26   S    
Cu1   O10   S    
C52   H24   S    
C10   H10   S    
O28   S4    D    
C9    C71   S    
C7    C8    S    
Cu5   Cu6   S    
Cu3   Cu4   S    
C4    O10   A    
Cu5   O3    S    
C68   C69   S    
C37   O34   A    
C54   C62   S    
C50   C51   S    
C25   C26   A    
C62   O31   S    
C17   H3    S    
Cu2   O14   S    
C15   C20   S    
C58   H29   S    
C12   C40   S    
C29   C30   A    
C14   C38   S    
O21   S2    D    
C47   C48   A    
C12   C23   S    
C23   C34   S    
C20   H8    S    
C17   C18   S    
C44   C53   S    
C66   H44   S    
C43   O9    A    
Cu4   O34   S    
C34   C45   S    
Cu6   O7    S    
Cu4   O12   S    
C37   O33   A    
C48   C49   A    
C39   C49   S    
C69   H49   S    
C11   C15   S    
C40   C65   S    
C55   C57   A    
C8    H53   S    
C22   C24   T    
C30   C43   S    
H41   O27   S    
C2    C71   A    
C33   H19   S    
Cu3   O35   S    
C39   O2    A    
Cu5   O8    S    
C44   C50   A    
Cu1   O13   S    
C46   C47   A    
C28   O16   A    
O25   S3    D    
C31   C32   S    
C24   C28   S    
Cu1   Cu2   S    
C3    C5    A    
C52   C63   S    
C47   H20   S    
C42   C59   S    
C6    C7    A    
C38   O35   A    
C48   H21   S    
C13   H6    S    
C10   H4    S    
C28   O15   A    
O20   S1    S    
C67   C70   T    
C45   C65   S    
C32   C33   S    
Cu3   O33   S    
C63   H33   S    
C2    C3    A    
C34   H38   S    
C36   C64   S    
O26   S3    D    
C4    O11   A    
C11   C13   S    
O24   S2    S    
C57   C58   A    
C5    C6    A    
C62   H32   S    
C57   H28   S    
C53   H26   S    
Cu1   O15   S    
C5    H51   S    
Cu5   O37   S    
C35   O17   A    
C41   O5    A    
C61   C62   S    
C61   H30   S    
C58   C59   A    
C12   H23   S    
C19   H14   S    
C37   C55   S    
C45   H36   S    
C20   S3    S    
C69   H50   S    
C11   S2    S    
C49   C50   A    
C25   C33   S    
C8    H52   S    
C16   O14   A    
Cu4   O36   S    
C10   C17   S    
C51   C53   S    
C1    O4    A    
C35   C46   S    
H39   O20   S    
C52   C65   S    
C35   O12   A    
