data_mof_unit_30727.cif
_audit_creation_date              2012-12-11T18:04:36-0500
_audit_creation_method            fapswitch 2.2
_symmetry_space_group_name_H-M    P1
_symmetry_Int_Tables_number       1
_space_group_crystal_system       triclinic
_cell_length_a                    8.232744
_cell_length_b                    12.691241
_cell_length_c                    22.839156
_cell_angle_alpha                 96.410892
_cell_angle_beta                  89.234576
_cell_angle_gamma                 98.689583
_cell_volume                      2344.1626776

loop_
_atom_site_label
_atom_site_type_symbol
_atom_type_description
_atom_site_fract_x
_atom_site_fract_y
_atom_site_fract_z
_atom_type_partial_charge
Ba1   Ba    Ba6+2 0.856210 0.551220 0.472190 1.681813
Ba2   Ba    Ba6+2 0.333620 0.448870 0.527810 1.666015
C1    C     C_3   0.651791 0.815272 0.208559 -0.280246
C2    C     C_3   0.619934 0.806899 0.274086 0.798005
C3    C     C_3   0.474755 0.290172 0.349721 0.286932
C4    C     C_3   0.452194 0.258395 0.283812 -0.316782
C5    C     C_3   0.952362 0.142163 0.682650 0.288429
C6    C     C_3   0.983222 0.114155 0.744052 -0.299437
C7    C     C_3   0.484279 0.174955 0.687638 0.393165
C8    C     C_3   0.467039 0.099590 0.735379 -0.372854
C9    C     C_R   0.342822 0.528756 0.331888 -0.285244
C10   C     C_R   0.103068 0.582557 0.940115 -0.026750
C11   C     C_R   0.056321 0.577445 0.880093 0.591132
C12   C     C_3   0.127868 0.775510 0.312512 0.390301
C13   C     C_R   0.980686 0.386525 0.875827 0.587406
C14   C     C_R   0.021569 0.389517 0.936066 -0.020678
C15   C     C_R   0.083559 0.488061 0.968315 -0.052637
C16   C     C_R   0.167931 0.680191 0.972832 -0.074174
C17   C     C_R   0.212678 0.683832 0.032043 -0.076892
C18   C     C_R   0.192487 0.590143 0.060863 -0.018030
C19   C     C_R   0.126771 0.491998 0.028953 -0.052214
C20   C     C_R   0.002099 0.295741 0.964789 -0.075564
C21   C     C_R   0.042368 0.299826 0.024417 -0.072554
C22   C     C_R   0.105147 0.397665 0.057319 -0.029206
C23   C     C_3   0.117805 0.805148 0.250149 -0.286780
C24   C     C_R   0.147742 0.403076 0.117713 0.591718
C25   C     C_R   0.236867 0.592653 0.120775 0.573631
C26   C     C_2   0.796915 0.419462 0.767749 -0.090759
C27   C     C_3   0.762275 0.391399 0.702545 -0.065003
C28   C     C_1   0.007730 0.519713 0.685106 0.038499
C29   C     C_2   0.055480 0.526563 0.741280 -0.079800
C30   C     C_2   0.944072 0.475257 0.786545 0.215863
C31   C     C_R   0.416961 0.551122 0.230615 -0.107511
C32   C     C_R   0.457920 0.565226 0.290747 -0.053086
C33   C     C_R   0.188537 0.475028 0.314041 0.029305
C34   C     C_3   0.225342 0.779169 0.597112 0.289625
C35   C     C_R   0.143828 0.464724 0.253839 -0.101262
C36   C     C_R   0.257156 0.505114 0.211382 0.221292
C37   C     C_2   0.869279 0.461898 0.664406 -0.265361
C38   C     C_R   0.761822 0.180022 0.523124 -0.281540
C39   C     C_R   0.432468 0.810359 0.475856 -0.257214
C40   C     C_R   0.404610 0.989813 0.458083 0.016053
C41   C     C_R   0.342463 0.881470 0.454003 -0.001274
C42   C     C_R   0.577751 0.847828 0.507305 0.087398
C43   C     C_R   0.640941 0.959219 0.513924 -0.030026
C44   C     C_R   0.553751 0.030483 0.487607 -0.015678
C45   C     C_3   0.242747 0.900026 0.611802 -0.358844
C46   C     C_R   0.617405 0.140663 0.491884 0.049115
C47   C     C_R   0.851505 0.111111 0.547190 -0.035745
C48   C     C_R   0.789603 0.001694 0.544355 -0.091845
C49   C     C_3   0.979878 0.217638 0.403903 0.242763
C50   C     C_3   0.036447 0.108874 0.394977 -0.254405
C51   C     C_3   0.714387 0.688253 0.646289 0.295050
C52   C     C_3   0.733433 0.716514 0.712578 -0.356623
H1    H     H_    0.327636 0.925655 0.649673 0.111437
H2    H     H_    0.292842 0.940921 0.573721 0.061005
H3    H     H_    0.120936 0.923829 0.623318 0.137633
H4    H     H_    0.845155 0.206183 0.408715 0.012313
H5    H     H_    0.038602 0.260891 0.444932 0.066900
H6    H     H_    0.969437 0.057832 0.357954 0.207117
H7    H     H_    0.014868 0.069369 0.435704 0.104446
H8    H     H_    0.168946 0.118816 0.384010 0.121307
H9    H     H_    0.830851 0.665861 0.628025 0.008464
H10   H     H_    0.614551 0.619281 0.637641 0.086865
H11   H     H_    0.771123 0.865806 0.201672 0.131441
H12   H     H_    0.837795 0.782395 0.722429 0.126764
H13   H     H_    0.757263 0.645628 0.733545 0.074888
H14   H     H_    0.619005 0.742528 0.731462 0.134117
H15   H     H_    0.493932 0.764900 0.278886 -0.140542
H16   H     H_    0.552323 0.850876 0.189315 0.129797
H17   H     H_    0.357094 0.311245 0.368162 0.009140
H18   H     H_    0.572377 0.361091 0.356754 0.050534
H19   H     H_    0.354233 0.187925 0.275620 0.163834
H20   H     H_    0.416609 0.325775 0.262425 0.059841
H21   H     H_    0.568827 0.237845 0.263975 0.132188
H22   H     H_    0.656280 0.735006 0.184589 0.052112
H23   H     H_    0.082333 0.731406 0.219451 0.097763
H24   H     H_    0.917911 0.223691 0.686453 0.017687
H25   H     H_    0.849812 0.082115 0.662985 -0.028122
H26   H     H_    0.084374 0.172822 0.765678 0.169173
H27   H     H_    0.869939 0.116021 0.770839 0.112627
H28   H     H_    0.017319 0.032344 0.741380 0.097739
H29   H     H_    0.616298 0.188049 0.675351 -0.134373
H30   H     H_    0.414136 0.135417 0.647948 0.077861
H31   H     H_    0.530474 0.140546 0.776175 0.127891
H32   H     H_    0.524124 0.027314 0.720583 0.070902
H33   H     H_    0.027270 0.709223 0.318454 0.094693
H34   H     H_    0.335370 0.074516 0.745077 0.128351
H35   H     H_    0.024578 0.225712 0.044648 0.127042
H36   H     H_    0.954640 0.218555 0.941260 0.121376
H37   H     H_    0.262625 0.760748 0.055331 0.122718
H38   H     H_    0.508572 0.576112 0.198739 0.082128
H39   H     H_    0.184911 0.754373 0.952671 0.123665
H40   H     H_    0.177228 0.567170 0.754447 0.121012
H41   H     H_    0.711422 0.382486 0.798763 0.103273
H42   H     H_    0.022365 0.425162 0.240169 0.120354
H43   H     H_    0.376671 0.537496 0.377980 0.079201
H44   H     H_    0.246582 0.746891 0.318651 -0.044623
H45   H     H_    0.843215 0.449004 0.617487 0.074673
H46   H     H_    0.333112 0.041072 0.438794 0.090638
H47   H     H_    0.860655 0.951615 0.565237 0.096043
H48   H     H_    0.810323 0.264554 0.525495 0.056500
H49   H     H_    0.383080 0.725856 0.471899 0.053809
H50   H     H_    0.023623 0.858319 0.247424 0.153315
H51   H     H_    0.238114 0.847604 0.236798 0.154704
H52   H     H_    0.347158 0.756552 0.586014 -0.003554
H53   H     H_    0.140595 0.755385 0.558929 0.061794
N1    N     N_R   0.994948 0.480081 0.848362 -0.423007
N2    N     N_R   0.211787 0.500116 0.149203 -0.424058
O1    O     O_2   0.890290 0.440320 0.360790 -0.454448
O2    O     O_3   0.676620 0.777622 0.621493 -0.648039
O3    O     O_3   0.111091 0.865219 0.352667 -0.559853
O4    O     O_2   0.299410 0.559720 0.639240 -0.452464
O5    O     O_3   0.058870 0.558650 0.568170 -0.503723
O6    O     O_3   0.517310 0.362160 0.604450 -0.468907
O7    O     O_3   0.164916 0.731303 0.646744 -0.628112
O8    O     O_3   0.614910 0.369290 0.471050 -0.484355
O9    O     O_3   0.099190 0.306290 0.575790 -0.462587
O10   O     O_2   0.189794 0.117380 0.540761 -0.498609
O11   O     O_3   0.096038 0.139438 0.649241 -0.582791
O12   O     O_3   0.130840 0.441440 0.431840 -0.499588
O13   O     O_3   0.574800 0.630800 0.528960 -0.493145
O14   O     O_2   0.344900 0.234690 0.472540 -0.479787
O15   O     O_3   0.519476 0.203474 0.375499 -0.604095
O16   O     O_2   0.466373 0.478071 0.706941 -0.487249
O17   O     O_3   0.421090 0.269532 0.708611 -0.563287
O18   O     O_2   0.068240 0.660006 0.856462 -0.597329
O19   O     O_2   0.933526 0.299973 0.847670 -0.624001
O20   O     O_2   0.130269 0.320965 0.141905 -0.586743
O21   O     O_2   0.297760 0.677740 0.147639 -0.633670
O22   O     O_3   0.672400 0.637930 0.395560 -0.446209
O23   O     O_2   0.790795 0.558410 0.294153 -0.509630
O24   O     O_3   0.020389 0.268729 0.353380 -0.625739
O25   O     O_3   0.742311 0.756571 0.297502 -0.609329
O26   O     O_2   0.844800 0.765340 0.527490 -0.468776
O27   O     O_3   0.090520 0.693800 0.424220 -0.505039
O28   O     O_2   0.005409 0.883433 0.460747 -0.468850
P1    P     P_3+3 0.057140 0.408270 0.369700 0.991908
P2    P     P_3+3 0.667360 0.749400 0.544670 0.975200
P3    P     P_3+3 0.137074 0.832008 0.423794 0.999043
P4    P     P_3+3 0.132580 0.591820 0.630310 0.989934
P5    P     P_3+3 0.056724 0.167057 0.577898 0.955963
P6    P     P_3+3 0.662692 0.629364 0.318204 0.959519
P7    P     P_3+3 0.527579 0.235446 0.452003 0.962832
P8    P     P_3+3 0.541799 0.378545 0.681175 0.977562
S1    S     S_3+6 0.626146 0.938070 0.312640 -0.099260
O29   O     O_2   0.455582 0.966792 0.316534 -0.336344
O30   O     O_2   0.692205 0.938145 0.373587 -0.324288
O31   O     O_3   0.747649 0.029349 0.277320 -0.542490
H54   H     H_    0.734293 0.099545 0.299005 0.368486

loop_
_geom_bond_atom_site_label_1
_geom_bond_atom_site_label_2
_ccdc_geom_bond_type
O12   P1    S    
C8    H31   S    
C49   O24   S    
O3    P3    S    
C17   C18   A    
O27   P3    S    
Ba2   O9    S    
O2    P2    S    
C5    C6    S    
C51   C52   S    
C12   O3    S    
C3    O15   S    
C8    H34   S    
C28   P4    S    
C26   H41   S    
C23   H23   S    
C45   H1    S    
C26   C27   S    
C33   C35   A    
C22   C24   A    
C12   H33   S    
C16   C17   A    
C3    H18   S    
C50   H7    S    
C33   P1    S    
C27   P8    S    
C28   C29   D    
C51   H10   S    
C52   H14   S    
C38   C47   A    
C46   P7    S    
C34   C45   S    
Ba1   Ba2   S    
C40   C44   A    
Ba1   O13   S    
O10   P5    D    
C50   H6    S    
O25   P6    S    
Ba2   O8    S    
C14   C15   A    
O14   P7    D    
C5    H25   S    
C21   C22   A    
C21   H35   S    
C12   H44   S    
Ba1   O27   S    
C7    C8    S    
Ba1   P2    S    
C51   O2    S    
O23   P6    D    
O24   P1    S    
C34   H53   S    
C39   C41   A    
C1    H11   S    
C11   N1    Am   
C2    H15   S    
O17   P8    S    
C4    H20   S    
S1    O30   D    
Ba2   O13   S    
O28   P3    D    
C44   C46   A    
C32   P6    S    
C23   H51   S    
C6    H27   S    
O5    P4    S    
C26   C30   D    
C1    H16   S    
O11   P5    S    
C31   H38   S    
C52   H13   S    
C7    H30   S    
O9    P5    S    
C43   C44   A    
C34   H52   S    
C15   C19   A    
C49   C50   S    
C35   H42   S    
C13   N1    Am   
C10   C15   A    
O26   P2    D    
C35   C36   A    
C40   H46   S    
Ba1   O1    S    
C45   H3    S    
S1    O31   S    
Ba2   O6    S    
C37   H45   S    
C29   C30   S    
O1    P1    D    
C16   H39   S    
C2    S1    S    
C47   P5    S    
C27   C37   S    
C31   C32   A    
C20   H36   S    
C41   P3    S    
C49   H4    S    
Ba1   O8    S    
C10   C11   A    
C36   N2    S    
C1    H22   S    
C24   N2    Am   
C24   O20   D    
C7    H29   S    
C5    H24   S    
C42   P2    S    
C13   O19   D    
C30   N1    S    
C39   C42   A    
C6    H28   S    
C49   H5    S    
Ba1   O5    S    
C1    C2    S    
C34   O7    S    
O22   P6    S    
C42   C43   A    
C4    H19   S    
C2    O25   S    
S1    O29   D    
Ba2   O12   S    
C38   C46   A    
C8    H32   S    
C14   C20   A    
C5    O11   S    
C9    C32   A    
C31   C36   A    
Ba1   O22   S    
O13   P2    S    
C23   H50   S    
C52   H12   S    
C18   C25   A    
C29   H40   S    
O6    P8    S    
C7    O17   S    
C9    H43   S    
C9    C33   A    
C3    H17   S    
C50   H8    S    
O31   H54   S    
C51   H9    S    
C3    C4    S    
C43   C48   A    
Ba2   P4    S    
Ba2   O4    S    
O4    P4    D    
C28   C37   D    
C12   C23   S    
Ba1   O12   S    
C17   H37   S    
Ba2   O5    S    
C38   H48   S    
O7    P4    S    
C11   O18   D    
C39   H49   S    
C18   C19   A    
C25   N2    Am   
C48   H47   S    
O8    P7    S    
C47   C48   A    
C40   C41   A    
C19   C22   A    
C10   C16   A    
C6    H26   S    
C25   O21   D    
C20   C21   A    
O15   P7    S    
O16   P8    D    
Ba1   O26   S    
Ba2   O14   S    
Ba1   P1    S    
C13   C14   A    
C45   H2    S    
C4    H21   S    
