data_mof_unit_20742.cif
_audit_creation_date              2012-12-10T17:45:28-0500
_audit_creation_method            fapswitch 2.2
_symmetry_space_group_name_H-M    P1
_symmetry_Int_Tables_number       1
_space_group_crystal_system       triclinic
_cell_length_a                    11.548346
_cell_length_b                    10.759
_cell_length_c                    9.893734
_cell_angle_alpha                 91.468448
_cell_angle_beta                  90.000624
_cell_angle_gamma                 91.661636
_cell_volume                      1228.36233454

loop_
_atom_site_label
_atom_site_type_symbol
_atom_type_description
_atom_site_fract_x
_atom_site_fract_y
_atom_site_fract_z
_atom_type_partial_charge
C1    C     C_R   0.511396 0.260970 0.498454 0.901909
C2    C     C_R   0.493894 0.874341 0.509255 -0.154504
C3    C     C_R   0.350929 0.334641 0.136084 -0.120672
C4    C     C_R   0.281956 0.499551 0.499994 0.894407
C5    C     C_R   0.278203 0.251717 0.064188 -0.312798
C6    C     C_R   0.277106 0.251244 0.923208 0.457830
C7    C     C_R   0.349590 0.334781 0.855774 -0.151232
C8    C     C_R   0.426213 0.418332 0.925616 0.075174
C9    C     C_R   0.426526 0.418294 0.070199 0.177797
C10   C     C_R   0.570264 0.578366 0.073738 -0.102770
C11   C     C_R   0.570307 0.578265 0.930498 -0.123680
C12   C     C_R   0.607539 0.079314 0.858293 0.515771
C13   C     C_R   0.495194 0.740350 0.502795 0.909256
C14   C     C_R   0.718052 0.500234 0.500014 0.897683
C15   C     C_1   0.161494 0.499159 0.500009 -0.168690
C16   C     C_1   0.059326 0.499038 0.500031 0.014265
C17   C     C_1   0.940666 0.499262 0.500039 0.011587
C18   C     C_1   0.838509 0.499688 0.500026 -0.175538
C19   C     C_R   0.608904 0.131120 0.729583 -0.251687
C20   C     C_R   0.552159 0.964365 0.874806 -0.164840
C21   C     C_R   0.507334 0.897527 0.763166 -0.238617
C22   C     C_R   0.517400 0.944561 0.630616 0.108900
C23   C     C_R   0.553106 0.068969 0.618288 -0.009421
C24   C     C_R   0.528551 0.128568 0.495985 -0.148108
C25   C     C_R   0.501307 0.059369 0.377130 0.449848
C26   C     C_R   0.486689 0.932417 0.385127 -0.332068
H1    H     H_    0.342355 0.331541 0.748666 0.225035
H2    H     H_    0.468371 0.054207 0.182706 0.336663
H3    H     H_    0.160237 0.117911 0.910482 0.337292
H4    H     H_    0.688161 0.222218 0.942159 0.332350
H5    H     H_    0.627603 0.642255 0.878302 0.151302
H6    H     H_    0.653826 0.219757 0.717108 0.157002
H7    H     H_    0.544853 0.925631 0.974518 0.145258
H8    H     H_    0.460276 0.812702 0.785533 0.191272
H9    H     H_    0.468418 0.879019 0.292819 0.168195
H10   H     H_    0.627562 0.642434 0.129380 0.148849
H11   H     H_    0.345601 0.330072 0.243160 0.226039
H12   H     H_    0.222180 0.188171 0.118977 0.157055
N1    N     N_R   0.498930 0.498800 0.142780 -0.111830
N2    N     N_R   0.498900 0.498720 0.857170 -0.113467
O1    O     O_R   0.500000 0.316780 0.614690 -0.657804
O2    O     O_3   0.205723 0.170970 0.848071 -0.763934
O3    O     O_3   0.655628 0.140478 0.969908 -0.745039
O4    O     O_R   0.499990 0.316750 0.385360 -0.567178
O5    O     O_R   0.334450 0.500030 0.614670 -0.629745
O6    O     O_R   0.334440 0.500000 0.385330 -0.641181
O7    O     O_R   0.500010 0.683250 0.614640 -0.634057
O8    O     O_R   0.500000 0.683220 0.385310 -0.622679
O9    O     O_R   0.665560 0.500000 0.614670 -0.619037
O10   O     O_R   0.665550 0.499970 0.385330 -0.603593
O11   O     O_3   0.489642 0.116762 0.254466 -0.725370
Zn1   Zn    Zn3+2 0.500010 0.500020 0.653130 0.929749
Zn2   Zn    Zn3+2 0.499990 0.499980 0.346870 0.969053

loop_
_geom_bond_atom_site_label_1
_geom_bond_atom_site_label_2
_ccdc_geom_bond_type
C2    C22   A    
C13   O8    A    
C19   C23   A    
C23   C24   A    
C25   O11   S    
N2    Zn1   S    
C6    C7    A    
C3    C9    A    
C1    O4    A    
H3    O2    S    
C14   C18   S    
O1    Zn1   S    
O9    Zn1   S    
C12   C20   A    
C4    C15   S    
O6    Zn2   S    
C17   C18   T    
C11   H5    S    
C7    C8    A    
C2    C26   A    
C14   O10   A    
C5    H12   S    
C24   C25   A    
N1    Zn2   S    
C5    C6    A    
C19   H6    S    
C12   C19   A    
C1    O1    A    
O8    Zn2   S    
C10   H10   S    
C12   O3    S    
C4    O5    A    
C11   N2    A    
H2    O11   S    
H4    O3    S    
O10   Zn2   S    
C16   C17   S    
C10   C11   A    
C20   H7    S    
C15   C16   T    
C14   O9    A    
C26   H9    S    
C9    N1    A    
C7    H1    S    
C20   C21   A    
C3    H11   S    
C1    C24   S    
C6    O2    S    
O7    Zn1   S    
C13   O7    A    
C2    C13   S    
C22   C23   A    
C10   N1    A    
C4    O6    A    
C21   H8    S    
C8    N2    A    
O5    Zn1   S    
C25   C26   A    
C21   C22   A    
O4    Zn2   S    
C8    C9    A    
C3    C5    A    
