data_mof_unit_6237.cif
_audit_creation_date              2012-12-10T16:44:44-0500
_audit_creation_method            fapswitch 2.2
_symmetry_space_group_name_H-M    P1
_symmetry_Int_Tables_number       1
_space_group_crystal_system       triclinic
_cell_length_a                    15.033317
_cell_length_b                    8.681074
_cell_length_c                    7.494492
_cell_angle_alpha                 103.255287
_cell_angle_beta                  95.073456
_cell_angle_gamma                 93.266715
_cell_volume                      945.26802049

loop_
_atom_site_label
_atom_site_type_symbol
_atom_type_description
_atom_site_fract_x
_atom_site_fract_y
_atom_site_fract_z
_atom_type_partial_charge
C1    C     C_R   0.497141 0.199674 0.452980 0.878605
C2    C     C_R   0.502859 0.800326 0.547019 0.878605
C3    C     C_R   0.028394 0.390307 0.168079 -0.213433
C4    C     C_R   0.971606 0.609693 0.831921 -0.213433
C5    C     C_2   0.495616 0.031385 0.426959 -0.368691
C6    C     C_2   0.504384 0.968615 0.573041 -0.368691
C7    C     C_R   0.328779 0.498840 0.500807 0.805541
C8    C     C_R   0.671221 0.501160 0.499193 0.805541
C9    C     C_R   0.823387 0.555571 0.664618 -0.250589
C10   C     C_R   0.176613 0.444429 0.335382 -0.250589
C11   C     C_R   0.768058 0.502540 0.498261 -0.064336
C12   C     C_R   0.231942 0.497460 0.501739 -0.064336
C13   C     C_R   0.805365 0.449748 0.332265 -0.253987
C14   C     C_R   0.194634 0.550251 0.667734 -0.253987
C15   C     C_R   0.897891 0.447540 0.331908 0.102448
C16   C     C_R   0.102109 0.552460 0.668092 0.102448
C17   C     C_R   0.953445 0.500836 0.499554 0.066699
C18   C     C_R   0.046554 0.499164 0.500446 0.066699
C19   C     C_R   0.915974 0.555770 0.666337 0.101635
C20   C     C_R   0.084026 0.444230 0.333663 0.101635
C21   C     C_R   0.935738 0.392187 0.167140 -0.221196
C22   C     C_R   0.064262 0.607812 0.832859 -0.221196
Cu1   Cu    Cu3+1 0.510010 0.517380 0.684380 0.971097
Cu2   Cu    Cu3+1 0.489990 0.482620 0.315620 0.971097
H1    H     H_    0.794509 0.597466 0.792893 0.148249
H2    H     H_    0.205490 0.402534 0.207107 0.148249
H3    H     H_    0.762465 0.408334 0.203869 0.155751
H4    H     H_    0.237535 0.591666 0.796130 0.155751
H5    H     H_    0.893739 0.350704 0.037713 0.152876
H6    H     H_    0.106260 0.649296 0.962287 0.152876
H7    H     H_    0.056559 0.347148 0.039391 0.156372
H8    H     H_    0.943441 0.652851 0.960609 0.156372
H9    H     H_    0.487189 0.958887 0.286602 0.174119
H10   H     H_    0.512811 0.041113 0.713398 0.174119
N1    N     N_2   0.474890 0.456420 0.038520 0.000477
N2    N     N_2   0.525110 0.543580 0.961480 0.000477
O1    O     O_R   0.506510 0.286130 0.619770 -0.557976
O2    O     O_R   0.493490 0.713870 0.380230 -0.557976
O3    O     O_R   0.489600 0.256770 0.308360 -0.602071
O4    O     O_R   0.510400 0.743230 0.691640 -0.602071
O5    O     O_R   0.378710 0.514640 0.655720 -0.569877
O6    O     O_R   0.621290 0.485360 0.344280 -0.569877
O7    O     O_R   0.361800 0.485290 0.344300 -0.602307
O8    O     O_R   0.638200 0.514710 0.655700 -0.602307
N3    N     N_3   0.410731 0.350966 0.921642 -0.412664
H11   H     H_    0.421345 0.238340 0.942759 0.201686
H12   H     H_    0.348593 0.379495 0.966555 0.201570
N4    N     N_3   0.589269 0.649034 0.078358 -0.412664
H13   H     H_    0.578655 0.761660 0.057241 0.201686
H14   H     H_    0.651407 0.620504 0.033445 0.201570

loop_
_geom_bond_atom_site_label_1
_geom_bond_atom_site_label_2
_ccdc_geom_bond_type
Cu2   O2    S    
Cu1   Cu2   S    
C7    O7    A    
C11   C13   A    
C2    O2    A    
N1    N2    D    
Cu1   O5    S    
C1    O1    A    
C10   H2    S    
C7    O5    A    
C17   C18   A    
C9    H1    S    
C3    C20   A    
C2    C6    S    
N3    H11   S    
C3    H7    S    
Cu2   O6    S    
C9    C11   A    
C8    O8    A    
C4    H8    S    
C10   C12   A    
C8    C11   S    
C1    C5    S    
N4    H14   S    
N4    H13   S    
C17   C19   A    
C12   C14   A    
N2    N4    S    
C18   C20   A    
C13   C15   A    
C5    C6    D    
C14   C16   A    
C7    C12   S    
C3    C21   A    
Cu2   N1    S    
C1    O3    A    
Cu1   O4    S    
N1    N3    S    
C2    O4    A    
C15   C21   A    
Cu2   O3    S    
C4    C22   A    
C16   C18   A    
Cu1   N2    S    
N3    H12   S    
C10   C20   A    
C15   C17   A    
Cu2   O7    S    
C13   H3    S    
C16   C22   A    
C22   H6    S    
C14   H4    S    
Cu1   O1    S    
C4    C19   A    
C21   H5    S    
C9    C19   A    
Cu1   O8    S    
C6    H10   S    
C8    O6    A    
C5    H9    S    
