data_mof_unit_33303.cif
_audit_creation_date              2013-03-05T15:39:57-0500
_audit_creation_method            fapswitch 2.2
_symmetry_space_group_name_H-M    P1
_symmetry_Int_Tables_number       1
_space_group_crystal_system       triclinic
_cell_length_a                    10.848567
_cell_length_b                    8.712232
_cell_length_c                    7.45593
_cell_angle_alpha                 103.102246
_cell_angle_beta                  93.762628
_cell_angle_gamma                 92.558587
_cell_volume                      683.588688946

loop_
_atom_site_label
_atom_site_type_symbol
_atom_site_description
_atom_site_fract_x
_atom_site_fract_y
_atom_site_fract_z
_atom_type_partial_charge
O1    O     O_R   0.508930 0.286130 0.619780 -0.544241
O2    O     O_R   0.485720 0.256780 0.308360 -0.577409
C1    C     C_R   0.496289 0.199798 0.453606 0.886058
O3    O     O_R   0.333540 0.514670 0.655670 -0.614860
O4    O     O_R   0.310330 0.485320 0.344250 -0.553081
C2    C     C_R   0.266411 0.513590 0.504939 0.879788
Cu1   Cu    Cu3+1 0.513740 0.517380 0.684380 1.175039
Cu2   Cu    Cu3+1 0.486260 0.482620 0.315620 1.159310
O5    O     O_R   0.514280 0.743220 0.691640 -0.529990
O6    O     O_R   0.491070 0.713870 0.380220 -0.559586
O7    O     O_R   0.689670 0.514680 0.655750 -0.531376
O8    O     O_R   0.666460 0.485330 0.344330 -0.507192
C3    C     C_R   0.503901 0.799973 0.546896 0.775456
C4    C     C_R   0.734292 0.495941 0.496030 0.863791
C5    C     C_2   0.928233 0.576316 0.399177 0.495886
C6    C     C_2   0.865180 0.477939 0.481681 0.004299
C7    C     C_2   0.061935 0.572622 0.380570 0.296890
C8    C     C_2   0.136433 0.542976 0.519152 -0.387658
H1    H     H_    0.099302 0.536667 0.649344 0.192322
C9    C     C_2   0.494632 0.032056 0.429133 -0.378742
H2    H     H_    0.483954 0.960421 0.288526 0.193036
C10   C     C_2   0.505917 0.967420 0.574854 0.472305
N1    N     N_2   0.465540 0.456420 0.038510 -0.113752
H3    H     H_    0.402283 0.379605 0.949219 0.208151
N2    N     N_2   0.534460 0.543580 0.961490 0.204364
F1    F     F_    0.868014 0.688734 0.333449 -0.563204
N3    N     N_R   0.917170 0.342346 0.531110 0.084116
O9    O     O_R   0.877931 0.292382 0.670259 -0.254036
O10   O     O_R   0.983627 0.251410 0.417229 -0.303509
N4    N     N_R   0.109424 0.615212 0.221484 0.180218
O11   O     O_R   0.047827 0.568750 0.060987 -0.264746
O12   O     O_R   0.198188 0.724926 0.242877 -0.333023
F2    F     F_    0.519403 0.054666 0.752402 -0.607619
F3    F     F_    0.618049 0.643349 0.074162 -0.447006

loop_
_geom_bond_atom_site_label_1
_geom_bond_atom_site_label_2
_geom_bond_distance
_ccdc_geom_bond_type
O4    Cu2   1.934950 S    
Cu1   O7    1.934950 S    
N1    H3    1.029107 S    
N3    O10   1.301826 A    
Cu1   N2    2.022894 S    
N2    F3    1.334976 S    
Cu2   O8    1.951083 S    
C6    N3    1.441886 S    
C7    C8    1.348164 D    
C1    C9    1.430263 S    
N4    O12   1.301896 A    
C7    N4    1.439688 S    
N4    O11   1.301404 A    
O3    Cu1   1.951082 S    
Cu2   O6    1.959873 S    
C9    C10   1.333649 D    
C3    C10   1.425069 S    
O2    C1    1.290313 A    
N1    N2    1.291815 D    
O4    C2    1.294099 A    
C2    C8    1.450734 S    
O7    C4    1.293724 A    
C4    C6    1.443779 S    
C5    C6    1.350121 D    
Cu1   O5    1.955745 S    
Cu1   Cu2   2.692009 S    
Cu2   N1    2.022894 S    
C9    H2    1.087633 S    
O3    C2    1.296392 A    
C8    H1    1.086778 S    
N3    O9    1.301245 A    
C5    C7    1.467210 S    
C10   F2    1.363832 S    
O5    C3    1.285606 A    
C5    F1    1.363422 S    
O1    Cu1   1.959873 S    
O2    Cu2   1.955746 S    
O8    C4    1.290992 A    
O1    C1    1.290577 A    
O6    C3    1.292973 A    
