data_mof_unit_49876.cif
_audit_creation_date              2012-12-11T15:36:51-0500
_audit_creation_method            fapswitch 2.2
_symmetry_space_group_name_H-M    P1
_symmetry_Int_Tables_number       1
_space_group_crystal_system       triclinic
_cell_length_a                    15.04469
_cell_length_b                    15.034513
_cell_length_c                    34.790529
_cell_angle_alpha                 91.26803
_cell_angle_beta                  91.8299
_cell_angle_gamma                 60.169058
_cell_volume                      6822.89668607

loop_
_atom_site_label
_atom_site_type_symbol
_atom_type_description
_atom_site_fract_x
_atom_site_fract_y
_atom_site_fract_z
_atom_type_partial_charge
C1    C     C_R   0.610671 0.302324 0.444094 0.538149
C2    C     C_R   0.742568 0.680152 0.182366 0.018990
C3    C     C_R   0.610430 0.151263 0.830708 0.025816
C4    C     C_R   0.680373 0.171541 0.851260 -0.113308
C5    C     C_R   0.711008 0.136205 0.888623 -0.112959
C6    C     C_R   0.589747 0.260503 0.774299 -0.101430
C7    C     C_R   0.594347 0.270910 0.734875 -0.097315
C8    C     C_R   0.601584 0.194111 0.709394 0.023800
C9    C     C_R   0.598777 0.109129 0.723668 -0.100204
C10   C     C_R   0.595595 0.097894 0.763259 -0.097466
C11   C     C_R   0.593921 0.172223 0.788995 0.030756
C12   C     C_R   0.548341 0.194961 0.640692 -0.100641
C13   C     C_R   0.826556 0.614075 0.160171 -0.147068
C14   C     C_R   0.550909 0.218808 0.602339 -0.106524
C15   C     C_R   0.692262 0.248572 0.617983 -0.097729
C16   C     C_R   0.688686 0.226125 0.656332 -0.101230
C17   C     C_R   0.614413 0.202718 0.668144 0.020580
C18   C     C_R   0.620452 0.249486 0.590957 0.015963
C19   C     C_R   0.048055 0.737888 0.048186 0.577562
C20   C     C_R   0.747524 0.746596 0.064148 0.542521
C21   C     C_R   0.750278 0.041711 0.050387 0.563185
C22   C     C_R   0.016819 0.722411 0.939664 0.548299
C23   C     C_R   0.717146 0.730005 0.954900 0.540692
C24   C     C_R   0.826055 0.631894 0.120959 -0.126860
C25   C     C_R   0.721266 0.024644 0.942095 0.542274
C26   C     C_R   0.730506 0.588694 0.238489 -0.093622
C27   C     C_R   0.720189 0.583523 0.277872 -0.125933
C28   C     C_R   0.726328 0.654618 0.303035 0.057465
C29   C     C_R   0.748960 0.727784 0.288713 0.211118
C30   C     C_R   0.758832 0.732850 0.249144 -0.046381
C31   C     C_R   0.746828 0.665200 0.223966 0.021140
C32   C     C_R   0.600273 0.727969 0.355761 0.199985
C33   C     C_R   0.593193 0.610279 0.449327 0.544319
C34   C     C_R   0.568686 0.716677 0.391728 -0.088821
C35   C     C_R   0.733710 0.564742 0.403269 -0.121162
C36   C     C_R   0.765951 0.576222 0.367523 -0.130848
C37   C     C_R   0.698926 0.656189 0.343247 0.056165
C38   C     C_R   0.633691 0.633087 0.415177 -0.014719
C39   C     C_R   0.111815 0.723877 0.083790 0.000567
C40   C     C_R   0.155998 0.629649 0.104081 0.161658
C41   C     C_R   0.175800 0.628272 0.143929 0.185937
C42   C     C_R   0.157036 0.719033 0.163043 -0.040082
C43   C     C_R   0.132312 0.806349 0.141793 -0.129472
C44   C     C_R   0.303779 0.591562 0.442101 0.561720
C45   C     C_R   0.111818 0.808908 0.102272 0.118059
C46   C     C_R   0.242671 0.723296 0.225030 -0.072600
C47   C     C_R   0.249619 0.717097 0.265107 -0.057003
C48   C     C_R   0.172991 0.713092 0.285858 0.051174
C49   C     C_R   0.088468 0.717070 0.266000 -0.095628
C50   C     C_R   0.081841 0.722707 0.225940 -0.081130
C51   C     C_R   0.159823 0.723967 0.205290 0.048318
C52   C     C_R   0.190194 0.605002 0.341489 -0.109902
C53   C     C_R   0.220392 0.573382 0.379506 0.156442
C54   C     C_R   0.237248 0.724273 0.391168 -0.118610
C55   C     C_R   0.605617 0.300476 0.553755 0.541468
C56   C     C_R   0.207052 0.755367 0.353202 0.161111
C57   C     C_R   0.187459 0.693195 0.327607 -0.001307
C58   C     C_R   0.249239 0.630931 0.404522 -0.004350
C59   C     C_R   0.723479 0.099444 0.087021 0.022792
C60   C     C_R   0.803098 0.095701 0.110388 -0.141727
C61   C     C_R   0.788641 0.119914 0.149335 -0.129974
C62   C     C_R   0.693771 0.149649 0.165587 -0.008717
C63   C     C_R   0.610755 0.164919 0.141564 -0.064042
C64   C     C_R   0.624647 0.140785 0.102423 0.161394
C65   C     C_R   0.595498 0.237390 0.224413 -0.091793
C66   C     C_R   0.588822 0.606968 0.558847 0.566859
C67   C     C_R   0.585736 0.243278 0.264203 -0.096906
C68   C     C_R   0.663807 0.169560 0.287948 0.034559
C69   C     C_R   0.751154 0.088956 0.271285 -0.079770
C70   C     C_R   0.760762 0.082813 0.231472 -0.095367
C71   C     C_R   0.683478 0.157596 0.207723 0.030034
C72   C     C_R   0.739766 0.176782 0.351748 -0.102372
C73   C     C_R   0.727145 0.208717 0.390082 -0.107240
C74   C     C_R   0.551685 0.242987 0.386407 -0.105441
C75   C     C_R   0.564176 0.211686 0.348025 -0.085310
C76   C     C_R   0.656965 0.182352 0.330023 0.034235
C77   C     C_R   0.295634 0.590548 0.551323 0.582705
C78   C     C_R   0.631615 0.246279 0.407234 0.014445
C79   C     C_R   0.691808 0.690125 0.919597 -0.013150
C80   C     C_R   0.768870 0.602634 0.901258 -0.131528
C81   C     C_R   0.755652 0.581418 0.863014 -0.142600
C82   C     C_R   0.664926 0.646390 0.842634 0.026164
C83   C     C_R   0.583589 0.728643 0.861873 0.165774
C84   C     C_R   0.597286 0.749631 0.900245 -0.089286
C85   C     C_R   0.594105 0.612845 0.781587 -0.039005
C86   C     C_R   0.589661 0.609842 0.741414 0.183942
C87   C     C_R   0.655217 0.630815 0.720026 0.058900
C88   C     C_R   0.741120 0.715905 0.103461 -0.018051
C89   C     C_R   0.724819 0.653649 0.739170 -0.094515
C90   C     C_R   0.729055 0.656192 0.779176 -0.095113
C91   C     C_R   0.663028 0.636945 0.800541 0.018621
C92   C     C_R   0.728502 0.553228 0.655955 0.201837
C93   C     C_R   0.715657 0.550253 0.615696 0.174012
C94   C     C_R   0.549992 0.706177 0.619767 -0.135387
C95   C     C_R   0.563937 0.709848 0.659272 -0.119487
C96   C     C_R   0.650184 0.631273 0.677753 0.019145
C97   C     C_R   0.621883 0.623515 0.597743 -0.008902
C98   C     C_R   0.064445 0.698131 0.901888 -0.007018
C99   C     C_R   0.654928 0.778672 0.125511 -0.084924
C100  C     C_R   0.090843 0.765270 0.884896 -0.125681
C101  C     C_R   0.118044 0.752478 0.846491 -0.140230
C102  C     C_R   0.118891 0.672752 0.824564 0.026874
C103  C     C_R   0.097064 0.602256 0.841926 0.160815
C104  C     C_R   0.071134 0.614743 0.880530 -0.088132
C105  C     C_R   0.214139 0.584927 0.765668 -0.041053
C106  C     C_R   0.223419 0.581547 0.725929 -0.031214
C107  C     C_R   0.151929 0.663856 0.703436 0.059645
C108  C     C_R   0.072427 0.750550 0.720837 -0.089434
C109  C     C_R   0.062718 0.753653 0.760568 -0.098706
C110  C     C_R   0.655366 0.761472 0.164747 0.172333
C111  C     C_R   0.132885 0.670390 0.783045 0.052475
C112  C     C_R   0.195191 0.724663 0.646053 -0.107361
C113  C     C_R   0.227009 0.711074 0.608275 0.130733
C114  C     C_R   0.183042 0.575565 0.600114 0.154808
C115  C     C_R   0.152246 0.589749 0.638540 0.181312
C116  C     C_R   0.164409 0.660390 0.661871 -0.040695
C117  C     C_R   0.230877 0.629115 0.585873 -0.001755
C118  C     C_R   0.672408 0.079841 0.906256 0.021968
C119  C     C_R   0.596857 0.065819 0.886878 -0.111985
C120  C     C_R   0.566339 0.101002 0.849265 -0.102823
Cr1   Cr    Cr6+3 0.426010 0.422500 0.497000 1.106380
Cr2   Cr    Cr6+3 0.651300 0.426310 0.501970 1.092165
Cr3   Cr    Cr6+3 0.422670 0.651170 0.501050 1.094259
Cr4   Cr    Cr6+3 0.905130 0.911420 0.992650 1.083005
Cr5   Cr    Cr6+3 0.911860 0.682710 0.002320 1.070533
Cr6   Cr    Cr6+3 0.682710 0.906840 0.004710 1.092831
H1    H     H_    0.588475 0.843691 0.112675 0.183000
H2    H     H_    0.490988 0.769763 0.400186 0.173257
H3    H     H_    0.316671 0.711579 0.279856 0.161594
H4    H     H_    0.893767 0.582459 0.104751 0.170438
H5    H     H_    0.125070 0.874136 0.156266 0.167908
H6    H     H_    0.255732 0.771796 0.409783 0.173991
H7    H     H_    0.878973 0.066520 0.099325 0.191143
H8    H     H_    0.499865 0.214935 0.331879 0.152144
H9    H     H_    0.841515 0.519881 0.357969 0.144840
H10   H     H_    0.853008 0.110890 0.167112 0.135553
H11   H     H_    0.811916 0.030983 0.289077 0.147181
H12   H     H_    0.828287 0.019059 0.219219 0.114706
H13   H     H_    0.477374 0.270746 0.398932 0.175871
H14   H     H_    0.818791 0.517917 0.848540 0.155371
H15   H     H_    0.775179 0.670353 0.723056 0.156096
H16   H     H_    0.782422 0.675280 0.793551 0.143345
H17   H     H_    0.086370 0.830067 0.900804 0.150322
H18   H     H_    0.286395 0.515139 0.712652 0.154134
H19   H     H_    0.269566 0.520917 0.782838 0.148932
H20   H     H_    0.017779 0.814941 0.703639 0.125400
H21   H     H_    0.199195 0.782739 0.663853 0.175595
H22   H     H_    0.566001 0.022382 0.899842 0.146778
H23   H     H_    0.603887 0.049341 0.704354 0.118479
H24   H     H_    0.600151 0.028449 0.773764 0.120398
H25   H     H_    0.490765 0.176665 0.649315 0.138968
H26   H     H_    0.772469 0.791517 0.237862 0.141975
O1    O     O_R   0.324990 0.503440 0.453910 -0.445954
O2    O     O_R   0.639980 0.519500 0.542640 -0.457783
O3    O     O_R   0.500750 0.673190 0.545480 -0.484847
O4    O     O_R   0.336260 0.640450 0.538210 -0.453279
O5    O     O_3   0.499990 0.499990 0.500010 -0.276326
O6    O     O_R   0.834210 0.019400 0.034570 -0.490967
O7    O     O_R   0.002210 0.824620 0.031030 -0.454755
O8    O     O_R   0.024400 0.669340 0.039790 -0.470866
O9    O     O_R   0.830490 0.694950 0.045870 -0.498116
O10   O     O_R   0.675430 0.831160 0.051290 -0.494013
O11   O     O_R   0.698870 0.998880 0.039560 -0.458019
O12   O     O_R   0.522030 0.339050 0.458320 -0.497217
O13   O     O_R   0.811290 0.006780 0.950620 -0.514037
O14   O     O_R   0.980960 0.812920 0.953200 -0.497658
O15   O     O_R   0.001480 0.656720 0.955830 -0.507398
O16   O     O_R   0.809240 0.683250 0.968050 -0.501185
O17   O     O_R   0.652500 0.818540 0.967340 -0.509335
O18   O     O_R   0.677620 0.987170 0.961730 -0.491196
O19   O     O_3   0.833240 0.833660 0.999890 -0.270985
O20   O     O_R   0.676180 0.324490 0.458320 -0.510140
O21   O     O_R   0.643570 0.521510 0.464260 -0.495441
O22   O     O_R   0.504630 0.675350 0.460920 -0.509278
O23   O     O_R   0.339850 0.642450 0.459830 -0.513248
O24   O     O_R   0.321120 0.501280 0.538470 -0.466385
O25   O     O_R   0.518440 0.337050 0.536710 -0.498417
O26   O     O_R   0.672300 0.322330 0.542880 -0.489068
H27   H     H_    0.893729 0.550810 0.173485 0.149792
H28   H     H_    0.785474 0.499676 0.420788 0.157674
Br1   Br    Br    0.193758 0.501109 0.078036 -0.340885
Br2   Br    Br    0.086953 0.930229 0.075752 -0.466208
Br3   Br    Br    0.194421 0.883054 0.337732 -0.448119
H29   H     H_    0.303625 0.723512 0.209355 0.148935
Br4   Br    Br    0.226876 0.503066 0.172675 -0.436261
H30   H     H_    0.029089 0.713247 0.281460 0.139999
H31   H     H_    0.017427 0.723138 0.210906 0.123341
H32   H     H_    0.173539 0.557518 0.322074 0.160114
Br5   Br    Br    0.223897 0.448852 0.393772 -0.447221
Br6   Br    Br    0.506294 0.163597 0.072042 -0.388807
H33   H     H_    0.518535 0.307319 0.276507 0.123086
H34   H     H_    0.535222 0.296267 0.206760 0.142327
H35   H     H_    0.812031 0.154560 0.338403 0.130540
H36   H     H_    0.790295 0.209740 0.405521 0.150904
H37   H     H_    0.536230 0.190220 0.153506 0.170084
H38   H     H_    0.842475 0.555009 0.915402 0.150498
H39   H     H_    0.536710 0.817311 0.913833 0.167902
H40   H     H_    0.504707 0.771716 0.675804 0.167352
H41   H     H_    0.702794 0.526920 0.288629 0.120227
Br7   Br    Br    0.493693 0.576225 0.717026 -0.569816
H42   H     H_    0.543400 0.597346 0.798019 0.161396
Br8   Br    Br    0.849354 0.446734 0.681555 -0.364180
Br9   Br    Br    0.827740 0.446529 0.586440 -0.339587
Br10  Br    Br    0.457948 0.822670 0.835750 -0.514887
H43   H     H_    0.479324 0.765405 0.606879 0.198033
H44   H     H_    0.721175 0.536181 0.219205 0.133026
H45   H     H_    0.049710 0.562921 0.893021 0.163794
Br11  Br    Br    0.094106 0.512730 0.659621 -0.331647
H46   H     H_    0.134684 0.807139 0.833392 0.145493
H47   H     H_    0.999770 0.820186 0.773785 0.115833
Br12  Br    Br    0.264319 0.808204 0.590637 -0.458152
Br13  Br    Br    0.089170 0.495493 0.813337 -0.484971
Br14  Br    Br    0.536051 0.852062 0.193333 -0.416746
Br15  Br    Br    0.154367 0.486128 0.567721 -0.321478
H48   H     H_    0.768971 0.148523 0.902997 0.141370
H49   H     H_    0.741329 0.230977 0.677115 0.145385
H50   H     H_    0.594180 0.338138 0.724245 0.166688
H51   H     H_    0.586467 0.319890 0.793395 0.122846
H52   H     H_    0.511378 0.085450 0.834189 0.144252
Br16  Br    Br    0.763468 0.823670 0.321891 -0.470638
H53   H     H_    0.494708 0.218890 0.582068 0.152056
H54   H     H_    0.716699 0.208937 0.837666 0.117747
H55   H     H_    0.746414 0.272322 0.610155 0.180282
Br17  Br    Br    0.502217 0.835769 0.323108 -0.362675

loop_
_geom_bond_atom_site_label_1
_geom_bond_atom_site_label_2
_ccdc_geom_bond_type
C25   O18   A    
C81   H14   S    
C59   C60   A    
C95   H40   S    
C101  C102  A    
C21   O11   A    
C15   C18   A    
C55   O25   A    
C41   C42   A    
C14   C18   A    
C14   H53   S    
C95   C96   A    
C44   O23   A    
C112  C116  A    
C72   C76   A    
C25   C118  S    
C49   C50   A    
C114  C115  A    
C85   C91   A    
C75   H8    S    
C7    C8    A    
Cr3   O3    S    
C85   C86   A    
C56   C57   A    
C9    H23   S    
C59   C64   A    
C62   C63   A    
C83   Br10  S    
Cr1   O1    S    
C105  C106  A    
C47   H3    S    
C22   C98   S    
C19   O8    A    
C19   C39   S    
C66   C97   S    
C36   C37   A    
Cr5   O15   S    
C21   C59   S    
C77   C117  S    
C69   C70   A    
C109  C111  A    
C77   O4    A    
C79   C84   A    
C80   C81   A    
C4    H54   S    
C109  H47   S    
Cr1   O24   S    
C106  C107  A    
C15   C16   A    
C5    H48   S    
Cr4   O7    S    
C92   C96   A    
C108  C109  A    
C21   O6    A    
C104  H45   S    
C46   H29   S    
C16   H49   S    
C2    C13   A    
C114  Br15  S    
C118  C119  A    
C92   C93   A    
Cr6   O19   S    
C6    H51   S    
C29   Br16  S    
C2    C110  A    
C49   H30   S    
C35   C36   A    
C1    O12   A    
C44   C58   S    
C16   C17   A    
C65   C67   A    
Cr4   O6    S    
C12   C17   A    
C48   C49   A    
C107  C108  A    
C70   C71   A    
C22   O14   A    
C33   O21   A    
C9    C10   A    
C85   H42   S    
C42   C51   S    
C39   C45   A    
C110  Br14  S    
C105  C111  A    
C20   O10   A    
C26   C31   A    
Cr1   O5    S    
C115  Br11  S    
C1    C78   S    
Cr2   O2    S    
C12   H25   S    
C102  C111  S    
C102  C103  A    
C94   H43   S    
Cr5   O19   S    
C50   H31   S    
C112  C113  A    
C32   Br17  S    
C45   Br2   S    
C81   C82   A    
C108  H20   S    
Cr3   O4    S    
C69   H11   S    
C80   H38   S    
C54   C56   A    
Cr5   O8    S    
C74   C75   A    
C67   C68   A    
C114  C117  A    
C47   C48   A    
C48   C57   S    
C35   C38   A    
C27   H41   S    
C113  Br12  S    
C3    C120  A    
C72   H35   S    
C66   O2    A    
C86   C87   A    
C8    C9    A    
C99   H1    S    
Cr3   O5    S    
C94   C97   A    
C101  H46   S    
C119  H22   S    
C65   C71   A    
Cr1   O12   S    
C46   C51   A    
C82   C91   S    
C63   C64   A    
C13   C24   A    
C73   H36   S    
C60   C61   A    
C32   C34   A    
C75   C76   A    
C29   C30   A    
Cr6   O18   S    
C23   O16   A    
C43   C45   A    
C30   H26   S    
C83   C84   A    
C23   O17   A    
C65   H34   S    
C30   C31   A    
C73   C78   A    
C105  H19   S    
C87   C96   S    
Cr5   O16   S    
C50   C51   A    
C26   C27   A    
C41   Br4   S    
C94   C95   A    
Cr3   O23   S    
C32   C37   A    
C119  C120  A    
C33   O22   A    
C24   C88   A    
C90   H16   S    
Cr4   O13   S    
C18   C55   S    
Cr4   O14   S    
C22   O15   A    
C40   C41   A    
C12   C14   A    
C70   H12   S    
C77   O24   A    
C98   C100  A    
C6    C11   A    
C55   O26   A    
C63   H37   S    
C42   C43   A    
C44   O1    A    
C3    C4    A    
C36   H9    S    
C93   C97   A    
C39   C40   A    
Cr3   O22   S    
C92   Br8   S    
C52   C53   A    
C40   Br1   S    
C54   C58   A    
C113  C117  A    
C35   H28   S    
Cr2   O26   S    
C46   C47   A    
C28   C29   A    
C34   C38   A    
Cr6   O11   S    
C68   C69   A    
Cr5   O9    S    
C33   C38   S    
C72   C73   A    
C100  H17   S    
C103  Br13  S    
C52   C57   A    
Cr1   O25   S    
C53   C58   A    
C106  H18   S    
C6    C7    A    
C56   Br3   S    
C84   H39   S    
C68   C76   S    
Cr2   O21   S    
C54   H6    S    
C74   H13   S    
C1    O20   A    
Cr2   O20   S    
C8    C17   S    
C112  H21   S    
C5    C118  A    
C25   O13   A    
C87   C89   A    
C19   O7    A    
Cr6   O17   S    
C13   H27   S    
C26   H44   S    
C10   H24   S    
C99   C110  A    
C90   C91   A    
C66   O3    A    
Cr4   O19   S    
C28   C37   S    
C120  H52   S    
C89   H15   S    
C20   O9    A    
C20   C88   S    
C43   H5    S    
C100  C101  A    
Cr2   O5    S    
C62   C71   S    
C67   H33   S    
C15   H55   S    
C61   C62   A    
C93   Br9   S    
C107  C116  S    
C88   C99   A    
C3    C11   S    
C10   C11   A    
C79   C80   A    
C7    H50   S    
C24   H4    S    
C4    C5    A    
C64   Br6   S    
C34   H2    S    
C82   C83   A    
C74   C78   A    
C103  C104  A    
C2    C31   S    
C52   H32   S    
C23   C79   S    
C89   C90   A    
Cr6   O10   S    
C53   Br5   S    
C60   H7    S    
C98   C104  A    
C115  C116  A    
C61   H10   S    
C86   Br7   S    
C27   C28   A    
