data_mof_unit_61608.cif
_audit_creation_date              2012-12-10T17:02:12-0500
_audit_creation_method            fapswitch 2.2
_symmetry_space_group_name_H-M    P1
_symmetry_Int_Tables_number       1
_space_group_crystal_system       monoclinic
_cell_length_a                    21.802538
_cell_length_b                    21.802535
_cell_length_c                    29.380051
_cell_angle_alpha                 90.0
_cell_angle_beta                  90.0
_cell_angle_gamma                 89.999986
_cell_volume                      13965.8248072

loop_
_atom_site_label
_atom_site_type_symbol
_atom_type_description
_atom_site_fract_x
_atom_site_fract_y
_atom_site_fract_z
_atom_type_partial_charge
C1    C     C_R   0.500000 0.118681 0.500000 0.786328
C2    C     C_R   0.881319 0.500000 0.500000 0.786329
C3    C     C_R   0.500000 0.881319 0.500000 0.786330
C4    C     C_R   0.118681 0.500000 0.500000 0.786329
C5    C     C_R   1.000000 0.618681 1.000000 0.786329
C6    C     C_R   0.381319 0.000000 0.000000 0.786330
C7    C     C_R   0.000000 0.381319 0.000000 0.786329
C8    C     C_R   0.618681 0.000000 1.000000 0.786329
C9    C     C_R   0.454921 0.282182 0.474701 -0.002485
C10   C     C_R   0.717818 0.454921 0.474701 -0.002484
C11   C     C_R   0.545079 0.717818 0.474701 -0.002484
C12   C     C_R   0.282182 0.545079 0.474701 -0.002483
C13   C     C_R   0.454921 0.717818 0.525299 -0.002485
C14   C     C_R   0.717818 0.545079 0.525299 -0.002484
C15   C     C_R   0.545079 0.282182 0.525299 -0.002485
C16   C     C_R   0.282182 0.454921 0.525298 -0.002482
C17   C     C_R   0.954921 0.782182 0.974701 -0.002482
C18   C     C_R   0.217818 0.954921 0.974701 -0.002485
C19   C     C_R   0.045079 0.217818 0.974701 -0.002487
C20   C     C_R   0.782182 0.045079 0.974701 -0.002483
C21   C     C_R   0.954921 0.217818 0.025299 -0.002483
C22   C     C_R   0.217818 0.045079 0.025298 -0.002484
C23   C     C_R   0.045079 0.782182 0.025299 -0.002486
C24   C     C_R   0.782182 0.954921 0.025299 -0.002485
C25   C     C_R   0.458504 0.217925 0.471417 0.066992
C26   C     C_R   0.782075 0.458503 0.471417 0.066993
C27   C     C_R   0.541496 0.782075 0.471417 0.066992
C28   C     C_R   0.217925 0.541497 0.471417 0.066993
C29   C     C_R   0.458504 0.782075 0.528583 0.066992
C30   C     C_R   0.782075 0.541496 0.528583 0.066993
C31   C     C_R   0.541496 0.217925 0.528583 0.066992
C32   C     C_R   0.217925 0.458503 0.528583 0.066993
C33   C     C_R   0.958503 0.717925 0.971417 0.066993
C34   C     C_R   0.282075 0.958503 0.971417 0.066993
C35   C     C_R   0.041496 0.282075 0.971417 0.066992
C36   C     C_R   0.717925 0.041496 0.971417 0.066992
C37   C     C_R   0.958504 0.282075 0.028583 0.066992
C38   C     C_R   0.282075 0.041497 0.028583 0.066993
C39   C     C_R   0.041496 0.717925 0.028583 0.066992
C40   C     C_R   0.717925 0.958504 0.028583 0.066992
C41   C     C_R   0.500000 0.313934 0.500000 -0.157228
C42   C     C_R   0.686066 0.500000 0.500000 -0.157228
C43   C     C_R   0.500000 0.686066 0.500000 -0.157229
C44   C     C_R   0.313934 0.500000 0.500000 -0.157227
C45   C     C_R   1.000000 0.813934 0.000000 -0.157227
C46   C     C_R   0.186066 0.000000 1.000000 -0.157227
C47   C     C_R   1.000000 0.186066 1.000000 -0.157229
C48   C     C_R   0.813934 0.000000 0.000000 -0.157228
C49   C     C_R   0.500000 0.185677 0.500000 -0.158053
C50   C     C_R   0.814322 0.500000 0.500000 -0.158053
C51   C     C_R   0.500000 0.814322 0.500000 -0.158052
C52   C     C_R   0.185677 0.500000 0.500000 -0.158054
C53   C     C_R   1.000000 0.685677 0.000000 -0.158053
C54   C     C_R   0.314323 0.000000 1.000000 -0.158053
C55   C     C_R   1.000000 0.314323 1.000000 -0.158053
C56   C     C_R   0.685677 0.000000 0.000000 -0.158053
C57   C     C_R   0.619644 0.500000 0.500000 0.798632
C58   C     C_R   0.500000 0.619644 0.500000 0.798631
C59   C     C_R   0.380356 0.500000 0.500000 0.798633
C60   C     C_R   0.500000 0.380356 0.500000 0.798631
C61   C     C_R   0.119644 0.000000 1.000000 0.798632
C62   C     C_R   0.000000 0.119644 0.000000 0.798630
C63   C     C_R   0.880356 0.000000 0.000000 0.798631
C64   C     C_R   1.000000 0.880356 1.000000 0.798632
C65   C     C_R   0.500000 0.000000 0.415406 0.783165
C66   C     C_R   0.000000 0.500000 0.415406 0.783166
C67   C     C_R   0.500000 0.000000 0.584594 0.783165
C68   C     C_R   1.000000 0.500000 0.584594 0.783165
C69   C     C_R   1.000000 0.500000 0.915406 0.783165
C70   C     C_R   0.500000 1.000000 0.915406 0.783166
C71   C     C_R   0.000000 0.500000 0.084594 0.783165
C72   C     C_R   0.500000 0.000000 0.084594 0.783165
C73   C     C_1   0.500000 0.000000 0.364124 -0.186149
C74   C     C_1   0.000000 0.500000 0.364124 -0.186149
C75   C     C_1   0.500000 0.000000 0.635876 -0.186149
C76   C     C_1   0.000000 0.500000 0.635876 -0.186149
C77   C     C_1   1.000000 0.500000 0.864124 -0.186149
C78   C     C_1   0.500000 1.000000 0.864124 -0.186149
C79   C     C_1   0.000000 0.500000 0.135876 -0.186149
C80   C     C_1   0.500000 0.000000 0.135876 -0.186149
C81   C     C_1   0.500000 0.000000 0.321642 0.010757
C82   C     C_1   0.000000 0.500000 0.321642 0.010757
C83   C     C_1   0.500000 1.000000 0.678358 0.010757
C84   C     C_1   1.000000 0.500000 0.678358 0.010757
C85   C     C_1   1.000000 0.500000 0.821642 0.010757
C86   C     C_1   0.500000 1.000000 0.821642 0.010757
C87   C     C_1   0.000000 0.500000 0.178358 0.010757
C88   C     C_1   0.500000 0.000000 0.178358 0.010757
C89   C     C_1   0.500000 0.000000 0.271242 0.014971
C90   C     C_1   0.000000 0.500000 0.271242 0.014971
C91   C     C_1   0.500000 1.000000 0.728758 0.014971
C92   C     C_1   1.000000 0.500000 0.728758 0.014971
C93   C     C_1   1.000000 0.500000 0.771242 0.014971
C94   C     C_1   0.500000 1.000000 0.771242 0.014971
C95   C     C_1   0.000000 0.500000 0.228758 0.014971
C96   C     C_1   0.500000 0.000000 0.228758 0.014971
C97   C     C_R   0.420519 0.187912 0.439240 -0.239315
C98   C     C_R   0.812088 0.420519 0.439240 -0.239316
C99   C     C_R   0.579480 0.812088 0.439240 -0.239316
C100  C     C_R   0.187912 0.579481 0.439240 -0.239316
C101  C     C_R   0.420520 0.812089 0.560761 -0.239314
C102  C     C_R   0.812088 0.579481 0.560760 -0.239315
C103  C     C_R   0.579480 0.187912 0.560760 -0.239315
C104  C     C_R   0.187912 0.420519 0.560760 -0.239315
C105  C     C_R   0.920519 0.687912 0.939240 -0.239315
C106  C     C_R   0.312088 0.920519 0.939240 -0.239314
C107  C     C_R   0.079480 0.312088 0.939239 -0.239315
C108  C     C_R   0.687912 0.079480 0.939240 -0.239316
C109  C     C_R   0.920520 0.312088 0.060761 -0.239316
C110  C     C_R   0.312088 0.079481 0.060760 -0.239315
C111  C     C_R   0.079481 0.687912 0.060760 -0.239315
C112  C     C_R   0.687912 0.920520 0.060760 -0.239315
C113  C     C_R   0.374578 0.219536 0.416119 -0.184340
C114  C     C_R   0.780464 0.374577 0.416119 -0.184338
C115  C     C_R   0.625422 0.780464 0.416119 -0.184339
C116  C     C_R   0.219536 0.625423 0.416119 -0.184338
C117  C     C_R   0.374579 0.780465 0.583881 -0.184340
C118  C     C_R   0.780464 0.625422 0.583881 -0.184339
C119  C     C_R   0.625422 0.219536 0.583881 -0.184340
C120  C     C_R   0.219536 0.374577 0.583880 -0.184338
C121  C     C_R   0.874577 0.719536 0.916119 -0.184338
C122  C     C_R   0.280464 0.874578 0.916119 -0.184342
C123  C     C_R   0.125421 0.280464 0.916118 -0.184341
C124  C     C_R   0.719535 0.125422 0.916119 -0.184337
C125  C     C_R   0.874578 0.280464 0.083881 -0.184337
C126  C     C_R   0.280464 0.125423 0.083880 -0.184339
C127  C     C_R   0.125422 0.719536 0.083881 -0.184342
C128  C     C_R   0.719536 0.874578 0.083881 -0.184340
C129  C     C_R   0.364687 0.281614 0.424246 0.554561
C130  C     C_R   0.718386 0.364687 0.424246 0.554561
C131  C     C_R   0.635313 0.718385 0.424246 0.554562
C132  C     C_R   0.281614 0.635313 0.424246 0.554561
C133  C     C_R   0.364688 0.718386 0.575754 0.554561
C134  C     C_R   0.718385 0.635313 0.575754 0.554561
C135  C     C_R   0.635312 0.281614 0.575754 0.554560
C136  C     C_R   0.281615 0.364687 0.575753 0.554562
C137  C     C_R   0.864687 0.781614 0.924246 0.554561
C138  C     C_R   0.218386 0.864687 0.924246 0.554559
C139  C     C_R   0.135312 0.218385 0.924245 0.554560
C140  C     C_R   0.781614 0.135313 0.924246 0.554562
C141  C     C_R   0.864687 0.218386 0.075754 0.554562
C142  C     C_R   0.218385 0.135313 0.075753 0.554562
C143  C     C_R   0.135313 0.781614 0.075754 0.554559
C144  C     C_R   0.781614 0.864687 0.075754 0.554562
C145  C     C_R   0.406291 0.313254 0.452359 -0.285848
C146  C     C_R   0.686745 0.406291 0.452360 -0.285850
C147  C     C_R   0.593709 0.686745 0.452360 -0.285850
C148  C     C_R   0.313254 0.593709 0.452360 -0.285850
C149  C     C_R   0.406291 0.686746 0.547641 -0.285846
C150  C     C_R   0.686745 0.593709 0.547640 -0.285848
C151  C     C_R   0.593709 0.313254 0.547640 -0.285847
C152  C     C_R   0.313254 0.406291 0.547640 -0.285849
C153  C     C_R   0.906291 0.813254 0.952360 -0.285849
C154  C     C_R   0.186745 0.906291 0.952360 -0.285843
C155  C     C_R   0.093709 0.186745 0.952359 -0.285844
C156  C     C_R   0.813254 0.093709 0.952360 -0.285852
C157  C     C_R   0.906291 0.186746 0.047640 -0.285851
C158  C     C_R   0.186745 0.093710 0.047640 -0.285847
C159  C     C_R   0.093709 0.813255 0.047640 -0.285844
C160  C     C_R   0.813254 0.906291 0.047640 -0.285849
Cu1   Cu    Cu3+1 0.561800 0.000000 0.500000 0.957289
Cu2   Cu    Cu3+1 0.000000 0.561800 0.500000 0.957289
Cu3   Cu    Cu3+1 0.438200 0.000000 0.500000 0.957290
Cu4   Cu    Cu3+1 0.000000 0.438200 0.500000 0.957289
Cu5   Cu    Cu3+1 0.061800 0.500000 0.000000 0.957288
Cu6   Cu    Cu3+1 0.500000 0.061800 0.000000 0.957289
Cu7   Cu    Cu3+1 0.938200 0.500000 0.000000 0.957290
Cu8   Cu    Cu3+1 0.500000 0.938200 0.000000 0.957289
Cu9   Cu    Cu3+1 0.500000 0.500000 0.542480 0.974064
Cu10  Cu    Cu3+1 0.500000 0.500000 0.457520 0.974061
Cu11  Cu    Cu3+1 1.000000 0.000000 0.042480 0.974063
Cu12  Cu    Cu3+1 0.000000 0.000000 0.957520 0.974065
H1    H     H_    0.654465 0.195157 0.607692 0.164609
H2    H     H_    0.804843 0.654465 0.607692 0.164609
H3    H     H_    0.345536 0.804843 0.607693 0.164609
H4    H     H_    0.195157 0.345535 0.607692 0.164609
H5    H     H_    0.654465 0.804842 0.392308 0.164609
H6    H     H_    0.804843 0.345535 0.392308 0.164609
H7    H     H_    0.345535 0.195157 0.392307 0.164609
H8    H     H_    0.195157 0.654466 0.392308 0.164609
H9    H     H_    0.154465 0.695157 0.107692 0.164609
H10   H     H_    0.304843 0.154466 0.107691 0.164609
H11   H     H_    0.845535 0.304843 0.107692 0.164609
H12   H     H_    0.695157 0.845535 0.107692 0.164609
H13   H     H_    0.154464 0.304843 0.892307 0.164609
H14   H     H_    0.304842 0.845535 0.892308 0.164609
H15   H     H_    0.845535 0.695157 0.892308 0.164609
H16   H     H_    0.695157 0.154465 0.892308 0.164609
H17   H     H_    0.425999 0.139982 0.430939 0.174283
H18   H     H_    0.860018 0.425999 0.430939 0.174283
H19   H     H_    0.574001 0.860018 0.430939 0.174283
H20   H     H_    0.139982 0.574001 0.430939 0.174283
H21   H     H_    0.426001 0.860018 0.569061 0.174282
H22   H     H_    0.860018 0.574001 0.569061 0.174283
H23   H     H_    0.574000 0.139982 0.569061 0.174283
H24   H     H_    0.139982 0.425999 0.569061 0.174283
H25   H     H_    0.925999 0.639982 0.930939 0.174283
H26   H     H_    0.360018 0.925999 0.930939 0.174283
H27   H     H_    0.074000 0.360018 0.930939 0.174283
H28   H     H_    0.639982 0.074000 0.930939 0.174283
H29   H     H_    0.926000 0.360018 0.069061 0.174283
H30   H     H_    0.360017 0.074001 0.069061 0.174283
H31   H     H_    0.074001 0.639982 0.069061 0.174283
H32   H     H_    0.639982 0.925999 0.069061 0.174283
H33   H     H_    0.400170 0.362003 0.456538 0.152236
H34   H     H_    0.637997 0.400170 0.456539 0.152234
H35   H     H_    0.599830 0.637997 0.456539 0.152234
H36   H     H_    0.362003 0.599830 0.456539 0.152233
H37   H     H_    0.400170 0.637997 0.543462 0.152236
H38   H     H_    0.637997 0.599830 0.543461 0.152234
H39   H     H_    0.599830 0.362003 0.543462 0.152236
H40   H     H_    0.362003 0.400170 0.543461 0.152233
H41   H     H_    0.900170 0.862003 0.956539 0.152233
H42   H     H_    0.137997 0.900169 0.956539 0.152235
H43   H     H_    0.099830 0.137997 0.956538 0.152237
H44   H     H_    0.862003 0.099830 0.956539 0.152234
H45   H     H_    0.900170 0.137997 0.043461 0.152234
H46   H     H_    0.137997 0.099831 0.043461 0.152232
H47   H     H_    0.099830 0.862003 0.043461 0.152236
H48   H     H_    0.862003 0.900170 0.043461 0.152236
O1    O     O_R   0.552190 0.090170 0.499990 -0.580226
O2    O     O_R   0.909830 0.552190 0.499990 -0.580226
O3    O     O_R   0.447810 0.909830 0.499990 -0.580226
O4    O     O_R   0.090170 0.447810 0.499990 -0.580226
O5    O     O_R   0.552190 0.909830 0.500010 -0.580226
O6    O     O_R   0.909830 0.447810 0.500010 -0.580226
O7    O     O_R   0.447810 0.090170 0.500010 -0.580225
O8    O     O_R   0.090170 0.552190 0.500010 -0.580226
O9    O     O_R   0.052190 0.590170 0.999990 -0.580226
O10   O     O_R   0.409830 0.052190 0.999990 -0.580226
O11   O     O_R   0.947810 0.409830 0.999990 -0.580225
O12   O     O_R   0.590170 0.947810 0.999990 -0.580225
O13   O     O_R   0.052190 0.409830 0.000010 -0.580226
O14   O     O_R   0.409830 0.947810 0.000010 -0.580226
O15   O     O_R   0.947810 0.590170 0.000010 -0.580226
O16   O     O_R   0.590170 0.052190 0.000010 -0.580226
O17   O     O_R   0.552190 0.000010 0.438020 -0.564626
O18   O     O_R   0.999990 0.552190 0.438020 -0.564626
O19   O     O_R   0.447810 0.999990 0.438020 -0.564626
O20   O     O_R   0.000010 0.447810 0.438020 -0.564626
O21   O     O_R   0.552190 0.999990 0.561980 -0.564626
O22   O     O_R   0.999990 0.447810 0.561980 -0.564626
O23   O     O_R   0.447810 0.000010 0.561980 -0.564626
O24   O     O_R   0.000010 0.552190 0.561980 -0.564626
O25   O     O_R   0.052190 0.500010 0.938020 -0.564626
O26   O     O_R   0.499990 0.052190 0.938020 -0.564626
O27   O     O_R   0.947810 0.499990 0.938020 -0.564625
O28   O     O_R   0.500010 0.947810 0.938020 -0.564625
O29   O     O_R   0.052190 0.499990 0.061980 -0.564626
O30   O     O_R   0.499990 0.947810 0.061980 -0.564626
O31   O     O_R   0.947810 0.500010 0.061980 -0.564626
O32   O     O_R   0.500010 0.052190 0.061980 -0.564626
O33   O     O_R   0.590140 0.499990 0.535880 -0.584944
O34   O     O_R   0.500010 0.590140 0.535880 -0.584944
O35   O     O_R   0.409860 0.500010 0.535880 -0.584943
O36   O     O_R   0.499990 0.409860 0.535880 -0.584945
O37   O     O_R   0.590140 0.500010 0.464120 -0.584945
O38   O     O_R   0.500010 0.409860 0.464120 -0.584945
O39   O     O_R   0.409860 0.499990 0.464120 -0.584944
O40   O     O_R   0.499990 0.590140 0.464120 -0.584946
O41   O     O_R   0.090140 0.999990 0.035880 -0.584944
O42   O     O_R   0.000010 0.090140 0.035880 -0.584946
O43   O     O_R   0.909860 0.000010 0.035880 -0.584945
O44   O     O_R   0.999990 0.909860 0.035880 -0.584944
O45   O     O_R   0.090140 0.000010 0.964120 -0.584942
O46   O     O_R   0.000010 0.909860 0.964120 -0.584943
O47   O     O_R   0.909860 0.999990 0.964120 -0.584945
O48   O     O_R   0.999990 0.090140 0.964120 -0.584945
O49   O     O_3   0.317631 0.310512 0.400607 -0.571985
C161  C     C_3   0.284879 0.351488 0.428839 -0.290447
H49   H     H_    0.308432 0.396590 0.430432 0.175439
H50   H     H_    0.277126 0.332708 0.463651 0.145581
H51   H     H_    0.239087 0.359547 0.413520 0.202142
O50   O     O_3   0.689489 0.317630 0.400608 -0.571987
C162  C     C_3   0.648509 0.284881 0.428838 -0.290447
H52   H     H_    0.603408 0.308436 0.430428 0.175442
H53   H     H_    0.667285 0.277129 0.463651 0.145581
H54   H     H_    0.640449 0.239088 0.413520 0.202142
O51   O     O_3   0.682370 0.689488 0.400607 -0.571987
C163  C     C_3   0.715119 0.648509 0.428838 -0.290447
H55   H     H_    0.691564 0.603408 0.430428 0.175441
H56   H     H_    0.722871 0.667285 0.463650 0.145582
H57   H     H_    0.760911 0.640449 0.413519 0.202142
O52   O     O_3   0.310511 0.682370 0.400608 -0.571987
C164  C     C_3   0.351492 0.715119 0.428838 -0.290447
H58   H     H_    0.396593 0.691563 0.430427 0.175442
H59   H     H_    0.332717 0.722871 0.463651 0.145580
H60   H     H_    0.359552 0.760912 0.413520 0.202142
O53   O     O_3   0.317630 0.689489 0.599392 -0.571986
C165  C     C_3   0.284877 0.648517 0.571159 -0.290448
H61   H     H_    0.308428 0.603414 0.569564 0.175438
H62   H     H_    0.277124 0.667299 0.536348 0.145581
H63   H     H_    0.239084 0.640458 0.586478 0.202142
O54   O     O_3   0.689488 0.682370 0.599392 -0.571986
C166  C     C_3   0.648511 0.715121 0.571161 -0.290449
H64   H     H_    0.603410 0.691567 0.569569 0.175440
H65   H     H_    0.667290 0.722874 0.536349 0.145583
H66   H     H_    0.640451 0.760913 0.586480 0.202143
O55   O     O_3   0.682369 0.310512 0.599393 -0.571985
C167  C     C_3   0.715121 0.351488 0.571161 -0.290448
H67   H     H_    0.691568 0.396589 0.569567 0.175439
H68   H     H_    0.722875 0.332707 0.536349 0.145582
H69   H     H_    0.760913 0.359547 0.586480 0.202142
O56   O     O_3   0.310511 0.317630 0.599392 -0.571987
C168  C     C_3   0.351492 0.284881 0.571161 -0.290448
H70   H     H_    0.396592 0.308436 0.569572 0.175442
H71   H     H_    0.332716 0.277128 0.536349 0.145581
H72   H     H_    0.359551 0.239088 0.586480 0.202142
O57   O     O_3   0.817630 0.810511 0.900608 -0.571987
C169  C     C_3   0.784881 0.851492 0.928838 -0.290447
H73   H     H_    0.808436 0.896593 0.930428 0.175441
H74   H     H_    0.777129 0.832716 0.963651 0.145582
H75   H     H_    0.739088 0.859551 0.913519 0.202142
O58   O     O_3   0.189488 0.817630 0.900608 -0.571985
C170  C     C_3   0.148514 0.784877 0.928840 -0.290448
H76   H     H_    0.103412 0.808430 0.930435 0.175439
H77   H     H_    0.167296 0.777123 0.963651 0.145579
H78   H     H_    0.140454 0.739085 0.913521 0.202142
O59   O     O_3   0.182368 0.189488 0.900607 -0.571986
C171  C     C_3   0.215123 0.148516 0.928840 -0.290450
H79   H     H_    0.191572 0.103415 0.930437 0.175437
H80   H     H_    0.222879 0.167301 0.963649 0.145583
H81   H     H_    0.260914 0.140456 0.913519 0.202143
O60   O     O_3   0.810511 0.182370 0.900608 -0.571987
C172  C     C_3   0.851492 0.215119 0.928838 -0.290445
H82   H     H_    0.896592 0.191564 0.930427 0.175441
H83   H     H_    0.832716 0.222871 0.963651 0.145582
H84   H     H_    0.859551 0.260912 0.913519 0.202142
O61   O     O_3   0.817630 0.189489 0.099393 -0.571987
C173  C     C_3   0.784881 0.148508 0.071162 -0.290448
H85   H     H_    0.808436 0.103408 0.069572 0.175442
H86   H     H_    0.777129 0.167285 0.036350 0.145583
H87   H     H_    0.739089 0.140449 0.086481 0.202142
O62   O     O_3   0.189489 0.182371 0.099392 -0.571987
C174  C     C_3   0.148508 0.215119 0.071161 -0.290449
H88   H     H_    0.103407 0.191564 0.069572 0.175442
H89   H     H_    0.167284 0.222871 0.036349 0.145581
H90   H     H_    0.140449 0.260912 0.086480 0.202142
O63   O     O_3   0.182370 0.810512 0.099392 -0.571984
C175  C     C_3   0.215123 0.851486 0.071159 -0.290447
H91   H     H_    0.191571 0.896588 0.069565 0.175439
H92   H     H_    0.222876 0.832704 0.036348 0.145578
H93   H     H_    0.260915 0.859545 0.086478 0.202142
O64   O     O_3   0.810512 0.817631 0.099392 -0.571986
C176  C     C_3   0.851488 0.784879 0.071161 -0.290448
H94   H     H_    0.896590 0.808432 0.069568 0.175440
H95   H     H_    0.832709 0.777126 0.036349 0.145582
H96   H     H_    0.859548 0.739087 0.086480 0.202142

loop_
_geom_bond_atom_site_label_1
_geom_bond_atom_site_label_2
_ccdc_geom_bond_type
Cu5   O13   S    
C130  C146  A    
C165  H63   S    
C19   C155  A    
C7    C55   S    
C98   H18   S    
C117  C133  A    
C8    C56   S    
C153  H41   S    
C90   C95   T    
Cu7   O15   S    
C27   C99   A    
O52   C164  S    
C142  O62   S    
Cu2   O18   S    
C98   C114  A    
C22   C38   A    
C1    O1    A    
O50   C162  S    
C60   O38   A    
C32   C52   A    
Cu12  O46   S    
C43   C58   S    
O60   C172  S    
C156  H44   S    
C32   C104  A    
C144  C160  A    
C16   C44   A    
Cu1   O21   S    
C138  C154  A    
C105  H25   S    
C17   C153  A    
C79   C87   T    
Cu5   O9    S    
C140  O60   S    
Cu9   O36   S    
C6    C54   S    
Cu3   O7    S    
C102  H22   S    
C73   C81   T    
C136  C152  A    
C139  O59   S    
C169  H74   S    
C173  H85   S    
C59   O35   A    
C34   C106  A    
C171  H81   S    
C175  H91   S    
C111  H31   S    
C174  H89   S    
C48   C63   S    
O58   C170  S    
Cu6   O32   S    
C58   O40   A    
C133  O53   S    
C123  H13   S    
Cu8   O12   S    
Cu4   O4    S    
C11   C27   A    
C158  H46   S    
C30   C102  A    
C64   O44   A    
C10   C26   A    
C137  C153  A    
Cu10  O38   S    
C127  C143  A    
C176  H96   S    
Cu11  O43   S    
C128  C144  A    
C115  H5    S    
C140  C156  A    
C69   O25   A    
C113  H7    S    
C34   C54   A    
C116  H8    S    
C161  H50   S    
C112  H32   S    
Cu3   O19   S    
C167  H67   S    
C2    O6    A    
C66   O20   A    
C149  H37   S    
Cu2   O8    S    
C152  H40   S    
C83   C91   S    
C9    C41   A    
C110  H30   S    
C89   C96   T    
C26   C50   A    
C61   O41   A    
C164  H59   S    
C19   C35   A    
C91   C94   T    
C57   O37   A    
C142  C158  A    
C35   C107  A    
C174  H88   S    
C80   C88   T    
C172  H82   S    
C71   O29   A    
C36   C108  A    
C69   C77   S    
C175  H93   S    
C11   C147  A    
C47   C62   S    
C71   C79   S    
C166  H65   S    
C150  H38   S    
C17   C45   A    
Cu7   O27   S    
C122  H14   S    
C44   C59   S    
C66   C74   S    
C123  C139  A    
C60   O36   A    
C121  C137  A    
C172  H83   S    
C2    C50   S    
C62   O48   A    
C85   C93   S    
C69   O27   A    
C125  C141  A    
C168  H71   S    
Cu1   O1    S    
Cu3   O23   S    
C118  C134  A    
C167  H69   S    
C117  H3    S    
C97   H17   S    
C6    O14   A    
C77   C85   T    
Cu5   Cu7   S    
C66   O18   A    
Cu6   Cu8   S    
C100  H20   S    
C27   C51   A    
Cu6   O16   S    
C24   C48   A    
Cu9   O33   S    
C162  H54   S    
C163  H55   S    
C124  H16   S    
O62   C174  S    
C87   C95   S    
C171  H80   S    
C147  H35   S    
C134  O54   S    
C135  O55   S    
C116  C132  A    
C139  C155  A    
C106  C122  A    
O53   C165  S    
C15   C151  A    
C110  C126  A    
C25   C97   A    
C10   C146  A    
C6    O10   A    
C130  O50   S    
Cu2   O24   S    
C29   C51   A    
C170  H78   S    
C3    O3    A    
C37   C109  A    
C41   C60   S    
C15   C31   A    
C175  H92   S    
C68   C76   S    
Cu8   O30   S    
C45   C64   S    
C72   C80   S    
Cu5   O25   S    
C64   O46   A    
C107  H27   S    
C160  H48   S    
C39   C111  A    
C57   O33   A    
C37   C55   A    
C67   C75   S    
O64   C176  S    
C118  H2    S    
C12   C44   A    
C84   C92   S    
C70   O28   A    
C21   C47   A    
C88   C96   S    
C23   C45   A    
C10   C42   A    
C114  C130  A    
Cu9   O35   S    
C162  H52   S    
C100  C116  A    
C163  H57   S    
C107  C123  A    
C154  H42   S    
Cu4   O22   S    
C76   C84   T    
C9    C25   A    
C7    O11   A    
C173  H86   S    
C12   C28   A    
C13   C29   A    
C108  C124  A    
C99   C115  A    
O54   C166  S    
Cu1   O17   S    
C2    O2    A    
C165  H61   S    
Cu9   Cu10  S    
C71   O31   A    
Cu1   Cu3   S    
C120  H4    S    
C101  H21   S    
C40   C56   A    
C173  H87   S    
O51   C163  S    
Cu10  O39   S    
C38   C110  A    
C131  O51   S    
C106  H26   S    
C81   C89   S    
C30   C50   A    
C170  H76   S    
Cu6   O10   S    
O49   C161  S    
C161  H51   S    
C59   O39   A    
C17   C33   A    
C31   C49   A    
C18   C46   A    
C42   C57   S    
C145  H33   S    
C167  H68   S    
C46   C61   S    
C33   C105  A    
C122  C138  A    
C40   C112  A    
C166  H64   S    
C67   O23   A    
C22   C158  A    
C138  O58   S    
C126  C142  A    
C119  C135  A    
C120  C136  A    
O55   C167  S    
Cu12  O45   S    
C36   C56   A    
O63   C175  S    
C38   C54   A    
C14   C150  A    
C157  H45   S    
C104  H24   S    
C29   C101  A    
C16   C152  A    
C155  H43   S    
C15   C41   A    
C20   C48   A    
C151  H39   S    
C70   O26   A    
C8    O16   A    
C132  O52   S    
C159  H47   S    
C16   C32   A    
C13   C43   A    
Cu8   O14   S    
C169  H73   S    
C143  O63   S    
C124  C140  A    
C63   O43   A    
C174  H90   S    
C136  O56   S    
C143  C159  A    
C164  H60   S    
C82   C90   S    
C101  C117  A    
C109  H29   S    
C1    O7    A    
Cu2   Cu4   S    
C119  H1    S    
C99   H19   S    
C75   C83   T    
C39   C53   A    
C135  C151  A    
C9    C145  A    
C92   C93   T    
C3    C51   S    
Cu10  O37   S    
C19   C47   A    
C4    O8    A    
Cu11  O44   S    
C25   C49   A    
C112  C128  A    
C137  O57   S    
C148  H36   S    
Cu6   O26   S    
O59   C171  S    
C20   C36   A    
C21   C37   A    
C168  H70   S    
C161  H49   S    
Cu4   O6    S    
C72   O30   A    
C104  C120  A    
C169  H75   S    
Cu11  Cu12  S    
C7    O13   A    
C70   C78   S    
C8    O12   A    
O61   C173  S    
C128  H12   S    
C146  H34   S    
C62   O42   A    
C67   O21   A    
Cu7   O31   S    
C115  C131  A    
O57   C169  S    
C164  H58   S    
C58   O34   A    
C113  C129  A    
C4    C52   S    
Cu5   O29   S    
C5    C53   S    
C125  H11   S    
C162  H53   S    
C163  H56   S    
Cu12  O47   S    
C121  H15   S    
C134  C150  A    
C65   C73   S    
Cu11  O41   S    
C144  O64   S    
C86   C94   S    
Cu2   O2    S    
C68   O22   A    
Cu4   O20   S    
C11   C43   A    
C3    O5    A    
C102  C118  A    
C14   C42   A    
C78   C86   T    
C65   O17   A    
C14   C30   A    
C166  H66   S    
Cu1   O5    S    
C33   C53   A    
C170  H77   S    
C35   C55   A    
C132  C148  A    
C133  C149  A    
C103  H23   S    
C114  H6    S    
C4    O4    A    
C172  H84   S    
C23   C159  A    
C31   C103  A    
C108  H28   S    
Cu11  O42   S    
C168  H72   S    
C105  C121  A    
C72   O32   A    
C131  C147  A    
C18   C34   A    
C61   O45   A    
C26   C98   A    
C109  C125  A    
O56   C168  S    
Cu8   O28   S    
C111  C127  A    
C127  H9    S    
C5    O9    A    
C126  H10   S    
C97   C113  A    
C74   C82   T    
C141  C157  A    
C20   C156  A    
C22   C46   A    
C21   C157  A    
Cu9   O34   S    
C103  C119  A    
C18   C154  A    
C24   C160  A    
Cu7   O11   S    
Cu3   O3    S    
C171  H79   S    
C12   C148  A    
C13   C149  A    
Cu12  O48   S    
C28   C52   A    
C28   C100  A    
C176  H95   S    
C1    C49   S    
C68   O24   A    
C23   C39   A    
C24   C40   A    
C141  O61   S    
C165  H62   S    
C129  C145  A    
C129  O49   S    
C5    O15   A    
C65   O19   A    
Cu10  O40   S    
C176  H94   S    
C63   O47   A    
