data_mof_unit_55772.cif
_audit_creation_date              2013-03-05T15:43:49-0500
_audit_creation_method            fapswitch 2.2
_symmetry_space_group_name_H-M    P1
_symmetry_Int_Tables_number       1
_space_group_crystal_system       triclinic
_cell_length_a                    10.025266
_cell_length_b                    10.719249
_cell_length_c                    15.339577
_cell_angle_alpha                 90.039025
_cell_angle_beta                  67.739702
_cell_angle_gamma                 90.278259
_cell_volume                      1525.56835927

loop_
_atom_site_label
_atom_site_type_symbol
_atom_site_description
_atom_site_fract_x
_atom_site_fract_y
_atom_site_fract_z
_atom_type_partial_charge
O1    O     O_R   0.386950 0.680940 0.500010 -0.606503
O2    O     O_R   0.613110 0.680900 0.499990 -0.618743
C1    C     C_R   0.501132 0.737395 0.498854 0.928617
O3    O     O_R   0.322330 0.500030 0.632270 -0.614051
O4    O     O_R   0.548480 0.499990 0.632240 -0.558181
C2    C     C_R   0.409621 0.495749 0.676584 0.933971
Zn1   Zn    Zn3+2 0.349000 0.500030 0.500020 0.953596
Zn2   Zn    Zn3+2 0.651000 0.499970 0.499980 1.027727
O5    O     O_R   0.386890 0.319100 0.500010 -0.612891
O6    O     O_R   0.613050 0.319060 0.499990 -0.581232
O7    O     O_R   0.451520 0.500010 0.367760 -0.622755
O8    O     O_R   0.677670 0.499970 0.367730 -0.557305
C3    C     C_R   0.497899 0.262665 0.503279 0.933760
C4    C     C_R   0.589931 0.497127 0.323633 0.832806
C5    C     C_R   0.349032 0.486105 0.779689 -0.259544
C6    C     C_R   0.640660 0.464103 0.224308 -0.019842
C7    C     C_R   0.162868 0.552461 0.926765 0.310027
C8    C     C_R   0.214322 0.539183 0.829214 -0.306098
C9    C     C_R   0.427205 0.430093 0.828623 0.290574
C10   C     C_R   0.373088 0.436424 0.928329 -0.044150
C11   C     C_R   0.248609 0.510188 0.975565 -0.012261
C12   C     C_R   0.450527 0.386951 0.981176 -0.010511
C13   C     C_R   0.438700 0.448192 0.065211 0.012781
C14   C     C_R   0.318086 0.525019 0.109907 -0.231648
C15   C     C_R   0.220558 0.549599 0.067869 -0.142833
C16   C     C_R   0.537371 0.278303 0.954714 0.510042
C17   C     C_R   0.637503 0.253188 0.995514 -0.299675
C18   C     C_R   0.645435 0.328882 0.067408 0.093559
C19   C     C_R   0.545122 0.426865 0.103142 0.090219
C20   C     C_R   0.746240 0.303172 0.108338 -0.132274
C21   C     C_R   0.741354 0.368585 0.188231 -0.128072
C22   C     C_R   0.553199 0.499533 0.176720 -0.178120
H1    H     H_    0.130538 0.609413 0.105445 0.196731
H2    H     H_    0.483842 0.578875 0.203778 0.131994
H3    H     H_    0.807955 0.338454 0.225586 0.161745
H4    H     H_    0.706854 0.172587 0.972054 0.177112
H5    H     H_    0.152134 0.577271 0.791173 0.219326
H6    H     H_    0.292799 0.562981 0.179469 0.144292
H7    H     H_    0.822116 0.227301 0.082467 0.134351
C23   C     C_2   0.606142 0.067334 0.511476 -0.132011
C24   C     C_2   0.489968 0.131377 0.515830 -0.322326
H8    H     H_    0.707148 0.113115 0.503298 0.176562
H9    H     H_    0.385372 0.088450 0.531084 0.153783
C25   C     C_2   0.601500 0.933162 0.516651 -0.162265
C26   C     C_2   0.505761 0.869272 0.492902 -0.327598
H10   H     H_    0.680458 0.886776 0.537997 0.178911
H11   H     H_    0.430790 0.912480 0.466635 0.148703
C27   C     C_2   0.115927 0.467490 0.427988 -0.267998
N1    N     N_2   0.148330 0.498670 0.499030 -0.200268
H12   H     H_    0.203345 0.448156 0.361728 0.181954
H13   H     H_    0.065471 0.506774 0.563559 0.177014
C28   C     C_2   0.963048 0.450992 0.432332 0.506196
N2    N     N_2   0.852680 0.498640 0.499000 -0.196599
H14   H     H_    0.870340 0.550880 0.549790 0.134451
O9    O     O_3   0.940588 0.395727 0.357244 -0.615603
C29   C     C_3   0.994672 0.272375 0.342052 0.061421
H15   H     H_    0.904209 0.209501 0.345759 0.160138
H16   H     H_    0.035618 0.237602 0.395917 0.126491
C30   C     C_3   0.113117 0.261964 0.243631 -0.352906
H17   H     H_    0.071610 0.294654 0.189945 0.237860
H18   H     H_    0.206084 0.321752 0.239063 0.219226
C31   C     C_3   0.165315 0.127937 0.221412 -0.962576
H19   H     H_    0.207539 0.093283 0.274184 0.268967
H20   H     H_    0.253351 0.124401 0.150807 0.252247
H21   H     H_    0.075849 0.066423 0.221374 0.268915
N3    N     N_R   0.027433 0.614291 0.974013 0.205120
O10   O     O_R   0.987562 0.703865 0.932117 -0.393687
O11   O     O_R   0.934526 0.569244 0.052268 -0.405742
N4    N     N_R   0.569869 0.383994 0.776525 0.244795
O12   O     O_R   0.681151 0.438514 0.784242 -0.386051
O13   O     O_R   0.589447 0.293162 0.716562 -0.365520
O14   O     O_3   0.522030 0.192906 0.891576 -0.589179
C32   C     C_3   0.410403 0.108534 0.940810 0.042109
H22   H     H_    0.305939 0.158527 0.973817 0.136150
H23   H     H_    0.436160 0.058567 0.996203 0.138269
C33   C     C_3   0.395398 0.012232 0.871492 -0.288187
H24   H     H_    0.366822 0.060387 0.816794 0.240404
H25   H     H_    0.500138 0.964144 0.836045 0.241239
C34   C     C_3   0.279622 0.915087 0.921222 -0.896839
H26   H     H_    0.307431 0.864104 0.975065 0.262779
H27   H     H_    0.271864 0.846660 0.868902 0.280031
H28   H     H_    0.173198 0.960691 0.955799 0.275078

loop_
_geom_bond_atom_site_label_1
_geom_bond_atom_site_label_2
_geom_bond_distance
_ccdc_geom_bond_type
C5    C8    1.397955 A    
N3    O11   1.300381 A    
O9    C29   1.416836 S    
C16   O14   1.381981 S    
C32   H22   1.115198 S    
C9    C10   1.417638 A    
C33   C34   1.527087 S    
C3    C24   1.418306 S    
N2    H14   1.027068 S    
C28   N2    1.295554 D    
C6    C21   1.399881 A    
Zn1   O7    1.895422 S    
C16   C17   1.396698 A    
C13   C19   1.414923 A    
C18   C19   1.416610 A    
C8    H5    1.083652 S    
C33   H25   1.111880 S    
C19   C22   1.398068 A    
C20   C21   1.396296 A    
O7    C4    1.293589 A    
C29   H15   1.111311 S    
N4    O13   1.302471 A    
O5    C3    1.286802 A    
C31   H20   1.108817 S    
C2    C5    1.467262 S    
N1    H13   1.027131 S    
C14   H6    1.078845 S    
C13   C14   1.411098 A    
C28   O9    1.386572 S    
C23   H8    1.086720 S    
N3    O10   1.301491 A    
C30   H17   1.111555 S    
C24   H9    1.084262 S    
O3    Zn1   1.943195 S    
C25   H10   1.086941 S    
C26   H11   1.083913 S    
C30   H18   1.108633 S    
C14   C15   1.386234 A    
Zn1   N1    2.017555 S    
O3    C2    1.296575 A    
C34   H27   1.110904 S    
C1    C26   1.416031 S    
C7    C11   1.412892 A    
O1    C1    1.286389 A    
C22   H2    1.079669 S    
C5    C9    1.410326 A    
C31   H19   1.110865 S    
C34   H28   1.111121 S    
C27   C28   1.518136 S    
Zn2   O8    1.943192 S    
C7    C8    1.393265 A    
C7    N3    1.438968 S    
C33   H24   1.112045 S    
C23   C24   1.334534 D    
C10   C12   1.422152 A    
C32   C33   1.528735 S    
C4    C6    1.455772 S    
C9    N4    1.438331 S    
C32   H23   1.115241 S    
C25   C26   1.334600 D    
Zn1   O5    1.978081 S    
C11   C15   1.400373 A    
C27   N1    1.292839 D    
C30   C31   1.524970 S    
C31   H21   1.110819 S    
O1    Zn1   1.974363 S    
O2    Zn2   1.978080 S    
O8    C4    1.297180 A    
O14   C32   1.411190 S    
O6    C3    1.284449 A    
Zn2   N2    2.016369 S    
O4    Zn2   1.895423 S    
C17   H4    1.084071 S    
C6    C22   1.390850 A    
C29   C30   1.531209 S    
C18   C20   1.405390 A    
O2    C1    1.284023 A    
O4    C2    1.297963 A    
C27   H12   1.081987 S    
C29   H16   1.117600 S    
C20   H7    1.083699 S    
C21   H3    1.081974 S    
N4    O12   1.301464 A    
C34   H26   1.111350 S    
C23   C25   1.440020 S    
C10   C11   1.425230 A    
Zn2   O6    1.974363 S    
C12   C16   1.421469 A    
C17   C18   1.394802 A    
C12   C13   1.410829 A    
C15   H1    1.081107 S    
