data_mof_unit_20693.cif
_audit_creation_date              2012-12-11T14:01:38-0500
_audit_creation_method            fapswitch 2.2
_symmetry_space_group_name_H-M    P1
_symmetry_Int_Tables_number       1
_space_group_crystal_system       triclinic
_cell_length_a                    19.158733
_cell_length_b                    10.988381
_cell_length_c                    18.888334
_cell_angle_alpha                 89.971333
_cell_angle_beta                  90.238384
_cell_angle_gamma                 89.954215
_cell_volume                      3976.40119262

loop_
_atom_site_label
_atom_site_type_symbol
_atom_type_description
_atom_site_fract_x
_atom_site_fract_y
_atom_site_fract_z
_atom_type_partial_charge
C1    C     C_R   0.271062 0.045033 0.851494 0.561610
C2    C     C_R   0.003050 0.666912 0.963192 -0.108025
C3    C     C_R   0.496952 0.166963 0.036424 -0.108401
C4    C     C_R   0.503050 0.166912 0.963192 -0.108025
C5    C     C_2   0.250604 0.585284 0.923104 0.101277
C6    C     C_2   0.749464 0.585376 0.076920 0.100348
C7    C     C_2   0.750604 0.085284 0.923104 0.101277
C8    C     C_2   0.249464 0.085376 0.076920 0.100348
C9    C     C_2   0.257695 0.596546 0.083742 -0.104058
C10   C     C_2   0.742289 0.596412 0.916265 -0.103157
C11   C     C_2   0.757695 0.096546 0.083742 -0.104060
C12   C     C_R   0.728941 0.045102 0.148512 0.561976
C13   C     C_2   0.242289 0.096412 0.916264 -0.103157
C14   C     C_2   0.295911 0.524113 0.041093 -0.142626
C15   C     C_2   0.704248 0.523898 0.959006 -0.142778
C16   C     C_2   0.795911 0.024113 0.041093 -0.142627
C17   C     C_2   0.204248 0.023898 0.959006 -0.142777
C18   C     C_2   0.304930 0.546548 0.964093 0.191732
C19   C     C_2   0.695197 0.546445 0.035982 0.191680
C20   C     C_2   0.804930 0.046548 0.964093 0.191732
C21   C     C_2   0.195197 0.046445 0.035982 0.191680
C22   C     C_2   0.504993 0.832967 0.581679 0.270699
C23   C     C_R   0.771062 0.545033 0.851494 0.561609
C24   C     C_2   0.494437 0.833421 0.417974 0.264501
C25   C     C_2   0.004994 0.332969 0.581679 0.270688
C26   C     C_2   0.994437 0.333419 0.417975 0.264486
C27   C     C_2   0.507800 0.741654 0.463155 -0.095499
C28   C     C_2   0.490235 0.742037 0.536387 -0.088235
C29   C     C_2   0.007804 0.241654 0.463156 -0.095481
C30   C     C_2   0.990242 0.242035 0.536388 -0.088239
C31   C     C_2   0.249406 0.603424 0.572939 0.286888
C32   C     C_2   0.749487 0.607190 0.428689 0.276425
C33   C     C_2   0.749405 0.103433 0.572936 0.286889
C34   C     C_R   0.228941 0.545102 0.148512 0.561979
C35   C     C_2   0.249486 0.107187 0.428689 0.276409
C36   C     C_2   0.257412 0.615188 0.410896 -0.022404
C37   C     C_2   0.740984 0.613149 0.588702 0.028658
C38   C     C_2   0.757419 0.115181 0.410896 -0.022433
C39   C     C_2   0.240987 0.113150 0.588702 0.028678
C40   C     C_R   0.470914 0.822323 0.853382 0.536198
C41   C     C_R   0.529107 0.822392 0.146597 0.536620
C42   C     C_R   0.970914 0.322323 0.853382 0.536197
C43   C     C_R   0.029107 0.322392 0.146597 0.536621
C44   C     C_2   0.214908 0.681258 0.453677 -0.078994
C45   C     C_R   0.493335 0.057591 0.073175 -0.006130
C46   C     C_2   0.780922 0.685949 0.547340 -0.015316
C47   C     C_2   0.714924 0.181285 0.453667 -0.078954
C48   C     C_2   0.280930 0.185943 0.547339 -0.015325
C49   C     C_2   0.233107 0.696074 0.528139 -0.066968
C50   C     C_2   0.763094 0.701327 0.472567 -0.016848
C51   C     C_2   0.733110 0.196087 0.528136 -0.066963
C52   C     C_2   0.263105 0.201321 0.472565 -0.016859
C53   C     C_R   0.261904 0.638582 0.852608 0.558708
C54   C     C_R   0.738108 0.638655 0.147396 0.557639
C55   C     C_R   0.761904 0.138582 0.852608 0.558708
C56   C     C_R   0.506766 0.057487 0.926558 -0.005990
C57   C     C_R   0.238108 0.138656 0.147396 0.557640
C58   C     C_R   0.271178 0.048722 0.649499 0.509060
C59   C     C_R   0.728679 0.049240 0.350222 0.498260
C60   C     C_R   0.771177 0.548722 0.649499 0.509059
C61   C     C_R   0.228677 0.549240 0.350223 0.498278
C62   C     C_R   0.471540 0.824022 0.649359 0.591345
C63   C     C_R   0.528417 0.824084 0.350592 0.587901
C64   C     C_R   0.971540 0.324022 0.649359 0.591341
C65   C     C_R   0.028417 0.324084 0.350592 0.587902
C66   C     C_R   0.260570 0.638856 0.645562 0.600585
C67   C     C_R   0.993335 0.557591 0.073175 -0.006130
C68   C     C_R   0.739467 0.638959 0.354653 0.522969
C69   C     C_R   0.760570 0.138858 0.645561 0.600588
C70   C     C_R   0.239466 0.138959 0.354653 0.522955
C71   C     C_R   0.502067 0.831775 0.074178 0.011299
C72   C     C_R   0.498021 0.831677 0.925766 0.011531
C73   C     C_R   0.002067 0.331775 0.074178 0.011299
C74   C     C_R   0.998021 0.331676 0.925766 0.011531
C75   C     C_R   0.498922 0.944661 0.037467 0.088048
C76   C     C_R   0.501197 0.944608 0.962373 0.088080
C77   C     C_R   0.998922 0.444661 0.037467 0.088049
C78   C     C_R   0.006766 0.557487 0.926558 -0.005990
C79   C     C_R   0.001197 0.444608 0.962373 0.088080
C80   C     C_R   0.500514 0.722625 0.963804 -0.128889
C81   C     C_R   0.499564 0.722676 0.036234 -0.128712
C82   C     C_R   0.000514 0.222625 0.963804 -0.128889
C83   C     C_R   0.999564 0.222676 0.036234 -0.128712
C84   C     C_2   0.147295 0.738205 0.431675 0.648546
C85   C     C_2   0.844559 0.751462 0.572353 0.662520
C86   C     C_2   0.647344 0.238318 0.431638 0.648559
C87   C     C_2   0.344569 0.251451 0.572353 0.662502
C88   C     C_2   0.332288 0.596756 0.429840 0.580288
C89   C     C_R   0.996952 0.666963 0.036424 -0.108401
C90   C     C_2   0.666770 0.588240 0.569150 0.597310
C91   C     C_2   0.832289 0.096699 0.429854 0.580304
C92   C     C_2   0.166773 0.088252 0.569150 0.597316
C93   C     C_2   0.180755 0.602054 0.953912 0.513878
C94   C     C_2   0.819278 0.602251 0.046072 0.513560
C95   C     C_2   0.680755 0.102054 0.953912 0.513878
C96   C     C_2   0.319278 0.102251 0.046072 0.513561
Cr1   Cr    Cr6+3 0.230530 0.836340 0.748870 1.086763
Cr2   Cr    Cr6+3 0.614360 0.677860 0.250770 1.094162
Cr3   Cr    Cr6+3 0.885640 0.177860 0.749230 1.104855
Cr4   Cr    Cr6+3 0.114360 0.177860 0.250770 1.094117
Cr5   Cr    Cr6+3 0.769470 0.836340 0.251130 1.088026
Cr6   Cr    Cr6+3 0.730530 0.336340 0.748870 1.086761
Cr7   Cr    Cr6+3 0.269470 0.336340 0.251130 1.088036
Cr8   Cr    Cr6+3 0.387420 0.989430 0.750820 1.088061
Cr9   Cr    Cr6+3 0.612580 0.989430 0.249180 1.085305
Cr10  Cr    Cr6+3 0.887420 0.489430 0.750820 1.088065
Cr11  Cr    Cr6+3 0.112580 0.489430 0.249180 1.085297
Cr12  Cr    Cr6+3 0.385640 0.677860 0.749230 1.104852
H1    H     H_    0.499488 0.634985 0.937605 0.160342
H2    H     H_    0.517696 0.063424 0.870650 0.139646
H3    H     H_    0.982421 0.563621 0.129079 0.139649
H4    H     H_    0.017696 0.563424 0.870650 0.139646
H5    H     H_    0.993407 0.752429 0.064699 0.126796
H6    H     H_    0.006545 0.752338 0.934829 0.127130
H7    H     H_    0.493407 0.252429 0.064699 0.126799
H8    H     H_    0.506545 0.252338 0.934829 0.127130
H9    H     H_    0.317044 0.439357 0.061136 0.196253
H10   H     H_    0.683299 0.439026 0.939066 0.196161
H11   H     H_    0.817044 0.939357 0.061136 0.196253
H12   H     H_    0.500564 0.635053 0.062507 0.160523
H13   H     H_    0.183299 0.939026 0.939066 0.196161
H14   H     H_    0.239145 0.684776 0.066144 0.132083
H15   H     H_    0.760693 0.684704 0.933778 0.132748
H16   H     H_    0.739146 0.184776 0.066144 0.132085
H17   H     H_    0.260693 0.184704 0.933778 0.132748
H18   H     H_    0.532972 0.658031 0.446092 0.175369
H19   H     H_    0.463933 0.659492 0.553418 0.177646
H20   H     H_    0.032979 0.158034 0.446093 0.175378
H21   H     H_    0.963949 0.159483 0.553421 0.177656
H22   H     H_    0.185093 0.806455 0.339804 0.287729
H23   H     H_    0.999488 0.134985 0.937606 0.160342
H24   H     H_    0.798847 0.813653 0.661671 0.309491
H25   H     H_    0.685190 0.306431 0.339752 0.287713
H26   H     H_    0.298856 0.313655 0.661667 0.309500
H27   H     H_    0.417815 0.489418 0.428709 0.356682
H28   H     H_    0.585075 0.472366 0.567758 0.358769
H29   H     H_    0.917790 0.989301 0.428747 0.356718
H30   H     H_    0.085073 0.972385 0.567755 0.358739
H31   H     H_    0.220625 0.469517 0.512315 0.314671
H32   H     H_    0.751252 0.435514 0.409327 0.320174
H33   H     H_    0.720608 0.969533 0.512315 0.314667
H34   H     H_    0.000564 0.135053 0.062507 0.160522
H35   H     H_    0.251204 0.935508 0.409331 0.320159
H36   H     H_    0.401252 0.492835 0.971024 0.308749
H37   H     H_    0.598953 0.492559 0.029113 0.308900
H38   H     H_    0.901252 0.992835 0.971024 0.308749
H39   H     H_    0.098953 0.992559 0.029113 0.308900
H40   H     H_    0.125382 0.731081 0.003923 0.332057
H41   H     H_    0.874531 0.731316 0.996008 0.332312
H42   H     H_    0.625382 0.231080 0.003923 0.332058
H43   H     H_    0.374531 0.231316 0.996008 0.332312
H44   H     H_    0.427490 0.921830 0.475903 0.367333
H45   H     H_    0.230384 0.789085 0.547755 0.183006
H46   H     H_    0.572720 0.919095 0.523593 0.353907
H47   H     H_    0.927487 0.421819 0.475904 0.367324
H48   H     H_    0.072717 0.419107 0.523593 0.353925
H49   H     H_    0.765882 0.793584 0.451889 0.137435
H50   H     H_    0.730388 0.289096 0.547755 0.183008
H51   H     H_    0.265906 0.293576 0.451887 0.137429
H52   H     H_    0.482421 0.063621 0.129079 0.139650
O1    O     O_R   0.215090 0.709860 0.828130 -0.494698
O2    O     O_R   0.543740 0.718170 0.330000 -0.542342
O3    O     O_R   0.956260 0.218170 0.670000 -0.543696
O4    O     O_R   0.043740 0.218170 0.330000 -0.542345
O5    O     O_R   0.320940 0.626760 0.674370 -0.477331
O6    O     O_R   0.679060 0.626760 0.325630 -0.493299
O7    O     O_R   0.820940 0.126760 0.674370 -0.477323
O8    O     O_R   0.179060 0.126760 0.325630 -0.493347
O9    O     O_3   0.334530 0.834540 0.749640 -0.291732
O10   O     O_3   0.665470 0.834540 0.250360 -0.286962
O11   O     O_3   0.834530 0.334540 0.749640 -0.291733
O12   O     O_R   0.784910 0.709860 0.171870 -0.493603
O13   O     O_3   0.165470 0.334540 0.250360 -0.286954
O14   O     O_R   0.236990 0.958390 0.823710 -0.501650
O15   O     O_R   0.763010 0.958390 0.176290 -0.499859
O16   O     O_R   0.736990 0.458390 0.823710 -0.501650
O17   O     O_R   0.263010 0.458390 0.176290 -0.499854
O18   O     O_R   0.332380 0.074750 0.830850 -0.495494
O19   O     O_R   0.667620 0.074750 0.169150 -0.496397
O20   O     O_R   0.832380 0.574750 0.830850 -0.495494
O21   O     O_R   0.167620 0.574750 0.169150 -0.496406
O22   O     O_R   0.445800 0.917770 0.825070 -0.518151
O23   O     O_R   0.715090 0.209860 0.828130 -0.494698
O24   O     O_R   0.554200 0.917770 0.174930 -0.517560
O25   O     O_R   0.945800 0.417770 0.825070 -0.518151
O26   O     O_R   0.054200 0.417770 0.174930 -0.517559
O27   O     O_R   0.456410 0.716580 0.829970 -0.492605
O28   O     O_R   0.543590 0.716580 0.170030 -0.491516
O29   O     O_R   0.956410 0.216580 0.829970 -0.492605
O30   O     O_R   0.043590 0.216580 0.170030 -0.491518
O31   O     O_R   0.321080 0.625290 0.822650 -0.443634
O32   O     O_R   0.678920 0.625290 0.177350 -0.443431
O33   O     O_R   0.821080 0.125290 0.822650 -0.443633
O34   O     O_R   0.284910 0.209860 0.171870 -0.493600
O35   O     O_R   0.178920 0.125290 0.177350 -0.443439
O36   O     O_R   0.214930 0.711450 0.668160 -0.513722
O37   O     O_R   0.785070 0.711450 0.331840 -0.500681
O38   O     O_R   0.714930 0.211450 0.668160 -0.513722
O39   O     O_R   0.285070 0.211450 0.331840 -0.500686
O40   O     O_R   0.236850 0.959870 0.675420 -0.463028
O41   O     O_R   0.763150 0.959870 0.324580 -0.459576
O42   O     O_R   0.736850 0.459870 0.675420 -0.463031
O43   O     O_R   0.263150 0.459870 0.324580 -0.459569
O44   O     O_R   0.332230 0.076350 0.670880 -0.498946
O45   O     O_R   0.445660 0.919250 0.676780 -0.459185
O46   O     O_R   0.667770 0.076350 0.329120 -0.499549
O47   O     O_R   0.832230 0.576350 0.670880 -0.498936
O48   O     O_R   0.167770 0.576350 0.329120 -0.499578
O49   O     O_2   0.097301 0.733150 0.471468 -0.387519
O50   O     O_R   0.140314 0.802510 0.368030 -0.631502
O51   O     O_2   0.896152 0.754936 0.534667 -0.391113
O52   O     O_R   0.845623 0.814137 0.636823 -0.613560
O53   O     O_2   0.597344 0.233389 0.471428 -0.387572
O54   O     O_R   0.640404 0.302569 0.367970 -0.631533
O55   O     O_2   0.396163 0.254916 0.534668 -0.391113
O56   O     O_R   0.554340 0.919250 0.323220 -0.459760
O57   O     O_R   0.345632 0.314132 0.636820 -0.613556
O58   O     O_2   0.363413 0.677806 0.460603 -0.561610
O59   O     O_R   0.367317 0.489214 0.412419 -0.637592
O60   O     O_2   0.632973 0.667574 0.539691 -0.574673
O61   O     O_R   0.635449 0.476326 0.584280 -0.636944
O62   O     O_2   0.863427 0.177732 0.460619 -0.561619
O63   O     O_R   0.867295 0.989129 0.412447 -0.637582
O64   O     O_2   0.132979 0.167591 0.539692 -0.574676
O65   O     O_R   0.135447 0.976340 0.584278 -0.636964
O66   O     O_3   0.249083 0.481378 0.555561 -0.702871
O67   O     O_R   0.945660 0.419250 0.676780 -0.459179
O68   O     O_3   0.752524 0.488199 0.451764 -0.703984
O69   O     O_3   0.749075 0.981388 0.555556 -0.702866
O70   O     O_3   0.252500 0.988195 0.451765 -0.703974
O71   O     O_3   0.368875 0.521953 0.933549 -0.683747
O72   O     O_3   0.631294 0.521760 0.066558 -0.684175
O73   O     O_3   0.868875 0.021953 0.933549 -0.683747
O74   O     O_3   0.131293 0.021761 0.066558 -0.684178
O75   O     O_2   0.150486 0.516113 0.980964 -0.536381
O76   O     O_R   0.154892 0.720180 0.960207 -0.723554
O77   O     O_2   0.849652 0.516350 0.019059 -0.536897
O78   O     O_R   0.054340 0.419250 0.323220 -0.459749
O79   O     O_R   0.844980 0.720410 0.039696 -0.723218
O80   O     O_2   0.650486 0.016113 0.980964 -0.536381
O81   O     O_R   0.654892 0.220180 0.960207 -0.723554
O82   O     O_2   0.349652 0.016350 0.019059 -0.536896
O83   O     O_R   0.344979 0.220410 0.039696 -0.723217
O84   O     O_3   0.457908 0.938235 0.434723 -0.629656
O85   O     O_3   0.542767 0.936376 0.565003 -0.632389
O86   O     O_3   0.957905 0.438229 0.434723 -0.629646
O87   O     O_3   0.042761 0.436385 0.565002 -0.632348
O88   O     O_R   0.456260 0.718170 0.670000 -0.543695

loop_
_geom_bond_atom_site_label_1
_geom_bond_atom_site_label_2
_ccdc_geom_bond_type
C44   C49   S    
C43   C73   S    
C63   O2    A    
Cr8   O22   S    
Cr12  O5    S    
C75   C76   A    
C70   O39   A    
C56   C76   A    
C31   C66   S    
C7    C20   D    
Cr10  O11   S    
C14   C18   S    
Cr12  O27   S    
C11   H16   S    
C67   C77   A    
C24   C27   D    
C7    C55   S    
C72   C76   A    
C69   O7    A    
C78   H4    S    
Cr9   O46   S    
C40   O27   A    
C36   C88   S    
C18   O71   S    
C15   C19   S    
C6    C19   D    
Cr11  O26   S    
C58   O40   A    
C54   O32   A    
C37   C90   S    
Cr11  O21   S    
H31   O66   S    
Cr6   O23   S    
Cr8   O44   S    
Cr1   O36   S    
C49   H45   S    
C31   C49   D    
H44   O84   S    
C10   C15   D    
Cr6   O38   S    
H35   O70   S    
C27   H18   S    
C84   O50   S    
H47   O86   S    
Cr3   O11   S    
Cr6   O16   S    
C67   C89   A    
Cr1   O9    S    
Cr5   O12   S    
C6    C54   S    
C11   C16   D    
C56   H2    S    
C73   C77   A    
Cr2   O28   S    
H36   O71   S    
H24   O52   S    
H42   O81   S    
Cr8   O18   S    
H28   O61   S    
C32   O68   S    
C43   O30   A    
C6    C94   S    
C22   O85   S    
C8    C96   S    
C80   H1    S    
Cr12  O31   S    
Cr7   O34   S    
C63   O56   A    
C19   O72   S    
C62   O45   A    
C90   O60   D    
C37   C46   D    
C28   H19   S    
C33   C69   S    
C32   C68   S    
C46   C85   S    
C13   H17   S    
C5    C93   S    
C52   H51   S    
H38   O73   S    
C58   O44   A    
C93   O76   S    
Cr9   O56   S    
C22   C28   D    
Cr12  O9    S    
C4    C56   A    
Cr1   O40   S    
C60   O47   A    
C45   H52   S    
Cr9   O19   S    
C64   O3    A    
C33   O69   S    
C85   O51   D    
Cr7   O13   S    
Cr10  O20   S    
Cr2   O2    S    
C46   C50   S    
C8    C21   D    
Cr3   O7    S    
C77   C79   A    
C50   H49   S    
Cr11  O78   S    
C89   H5    S    
C1    O14   A    
H32   O68   S    
C42   C74   S    
Cr9   O10   S    
C47   C86   S    
C54   O12   A    
C92   O64   D    
C35   C70   S    
C90   O61   S    
Cr2   O32   S    
C10   H15   S    
C16   H11   S    
Cr10  O47   S    
Cr3   O29   S    
C84   O49   D    
C25   C30   D    
H30   O65   S    
C47   C51   S    
C5    C18   D    
Cr11  O13   S    
C43   O26   A    
C39   C58   S    
C38   C91   S    
C3    C45   A    
C17   C21   S    
C3    C4    A    
C41   O28   A    
C68   O37   A    
H40   O76   S    
C25   C64   S    
C29   H20   S    
C2    C89   A    
C9    C14   D    
C86   O54   S    
C96   O83   S    
C29   C30   S    
C2    C78   A    
C70   O8    A    
C8    C57   S    
C22   C62   S    
Cr11  O48   S    
C1    O18   A    
C59   O41   A    
C94   O77   D    
C62   O88   A    
C21   O74   S    
C81   H12   S    
H46   O85   S    
C16   C20   S    
C14   H9    S    
H27   O59   S    
C27   C28   S    
C9    H14   S    
C23   O20   A    
C48   C87   S    
Cr5   O10   S    
C41   O24   A    
Cr7   O39   S    
Cr8   O45   S    
C91   O62   D    
C53   O31   A    
C32   C50   D    
C38   C47   D    
Cr2   O6    S    
C95   O81   S    
C12   O15   A    
Cr3   O3    S    
C25   O87   S    
C59   O46   A    
C60   O42   A    
C55   O33   A    
H37   O72   S    
C57   O35   A    
C92   O65   S    
C96   O82   D    
C24   C63   S    
Cr1   O1    S    
C74   C79   A    
C93   O75   D    
C9    C34   S    
C65   O78   A    
H22   O50   S    
C1    C13   S    
H25   O54   S    
C91   O63   S    
C36   C61   S    
C30   H21   S    
C85   O52   S    
C39   C92   S    
Cr4   O13   S    
C42   O25   A    
C74   C82   A    
Cr4   O35   S    
C67   H3    S    
Cr6   O11   S    
Cr3   O33   S    
C55   O23   A    
Cr1   O14   S    
C40   C72   S    
C66   O5    A    
C78   C79   A    
C26   C65   S    
C4    H8    S    
Cr4   O30   S    
Cr10  O25   S    
C80   C81   A    
C44   C84   S    
H48   O87   S    
Cr4   O4    S    
C83   H34   S    
C66   O36   A    
C11   C12   S    
C15   H10   S    
C40   O22   A    
C23   O16   A    
C13   C17   D    
C10   C23   S    
C33   C51   D    
H26   O57   S    
C7    C95   S    
Cr12  O88   S    
C51   H50   S    
C88   O59   S    
Cr4   O8    S    
C57   O34   A    
C45   C75   A    
C35   O70   S    
C5    C53   S    
C86   O53   D    
C82   H23   S    
C72   C80   A    
C3    H7    S    
C61   O43   A    
C71   C75   A    
C34   O21   A    
C2    H6    S    
C42   O29   A    
C53   O1    A    
C69   O38   A    
C41   C71   S    
C65   O4    A    
H41   O79   S    
C20   O73   S    
C88   O58   D    
C24   O84   S    
Cr5   O37   S    
C95   O80   D    
C87   O57   S    
Cr9   O24   S    
Cr6   O42   S    
Cr7   O43   S    
C37   C60   S    
C36   C44   D    
C61   O48   A    
H43   O83   S    
C38   C59   S    
Cr2   O10   S    
H39   O74   S    
C94   O79   S    
C48   C52   S    
C12   O19   A    
C17   H13   S    
C26   C29   D    
C82   C83   A    
C31   O66   S    
C35   C52   D    
Cr5   O15   S    
C87   O55   D    
Cr10  O67   S    
Cr8   O9    S    
C34   O17   A    
Cr5   O41   S    
Cr7   O17   S    
H29   O63   S    
H33   O69   S    
C73   C83   A    
C64   O67   A    
C26   O86   S    
C39   C48   D    
C71   C81   A    
C68   O6    A    
