data_mof_unit_51603.cif
_audit_creation_date              2013-03-05T16:30:56-0500
_audit_creation_method            fapswitch 2.2
_symmetry_space_group_name_H-M    P1
_symmetry_Int_Tables_number       1
_space_group_crystal_system       triclinic
_cell_length_a                    12.817176
_cell_length_b                    14.951828
_cell_length_c                    14.198928
_cell_angle_alpha                 88.981336
_cell_angle_beta                  97.683414
_cell_angle_gamma                 90.23221
_cell_volume                      2696.22545688

loop_
_atom_site_label
_atom_site_type_symbol
_atom_site_description
_atom_site_fract_x
_atom_site_fract_y
_atom_site_fract_z
_atom_type_partial_charge
O1    O     O_R   0.500010 0.369070 0.579480 -0.573978
O2    O     O_R   0.499990 0.630930 0.420520 -0.587621
O3    O     O_R   0.500010 0.369060 0.420520 -0.625572
O4    O     O_R   0.499990 0.630940 0.579480 -0.614412
C1    C     C_R   0.501989 0.327962 0.500976 0.817447
C2    C     C_R   0.495418 0.672008 0.498739 0.925328
O5    O     O_R   0.346360 0.499990 0.566340 -0.544789
O6    O     O_R   0.653640 0.500010 0.433660 -0.539989
O7    O     O_R   0.346360 0.499980 0.407390 -0.654173
O8    O     O_R   0.653640 0.500020 0.592610 -0.633709
C3    C     C_R   0.298308 0.499116 0.480923 0.990743
C4    C     C_R   0.701731 0.500432 0.519205 0.933995
Zn1   Zn    Zn3+2 0.500000 0.500010 0.606140 1.013290
Zn2   Zn    Zn3+2 0.500000 0.499990 0.393860 1.001802
C5    C     C_R   0.813893 0.497448 0.532686 -0.249249
C6    C     C_R   0.186148 0.500675 0.468027 -0.230831
C7    C     C_R   0.028343 0.578483 0.402916 0.597331
C8    C     C_R   0.971197 0.418449 0.597689 0.603457
C9    C     C_R   0.134547 0.560944 0.402483 -0.367936
C10   C     C_R   0.864634 0.435823 0.597188 -0.419189
C11   C     C_R   0.132568 0.448163 0.528140 0.518237
C12   C     C_R   0.868564 0.551018 0.474807 0.544733
C13   C     C_R   0.026297 0.465597 0.532264 -0.187269
C14   C     C_R   0.974023 0.532044 0.469249 -0.204259
H1    H     H_    0.820446 0.399775 0.645546 0.187375
H2    H     H_    0.178110 0.596787 0.353379 0.183145
C15   C     C_R   0.562841 0.088848 0.563317 -0.150710
C16   C     C_R   0.423694 0.906284 0.549873 -0.256589
H3    H     H_    0.616649 0.047490 0.610797 0.190372
H4    H     H_    0.373942 0.943366 0.591481 0.140860
C17   C     C_R   0.570860 0.181456 0.566153 -0.029768
C18   C     C_R   0.420021 0.813651 0.549903 0.005649
C19   C     C_R   0.500168 0.232070 0.501855 -0.154774
C20   C     C_R   0.487065 0.767887 0.495711 -0.095453
C21   C     C_R   0.424971 0.191041 0.435927 -0.181162
C22   C     C_R   0.550604 0.814501 0.438779 -0.225153
H5    H     H_    0.371735 0.231799 0.387269 0.183648
H6    H     H_    0.600267 0.777930 0.397053 0.197109
C23   C     C_R   0.417677 0.098502 0.432684 0.009943
C24   C     C_R   0.552425 0.907327 0.437193 0.014091
C25   C     C_R   0.488100 0.048279 0.497021 -0.059964
C26   C     C_R   0.488680 0.952252 0.494251 -0.004137
C27   C     C_R   0.428090 0.444487 0.098381 0.448325
C28   C     C_R   0.485150 0.582823 0.890948 0.442564
C29   C     C_R   0.433993 0.443702 0.198371 -0.200850
C30   C     C_R   0.490314 0.579360 0.791931 -0.191441
H7    H     H_    0.384514 0.398315 0.232913 0.181162
H8    H     H_    0.485788 0.641019 0.750873 0.187328
N1    N     N_R   0.500000 0.499980 0.252470 -0.153438
N2    N     N_R   0.500000 0.500020 0.747530 -0.150052
C31   C     C_R   0.563033 0.559047 0.211296 0.645292
C32   C     C_R   0.504978 0.421780 0.800164 0.626005
C33   C     C_R   0.561448 0.559284 0.110481 -0.409524
C34   C     C_R   0.505207 0.423025 0.899644 -0.363712
H9    H     H_    0.613715 0.601640 0.075720 0.197195
H10   H     H_    0.515178 0.360939 0.940254 0.213072
C35   C     C_R   0.493660 0.502660 0.052984 0.025619
C36   C     C_R   0.494265 0.503239 0.946586 0.003700
O9    O     O_3   0.817775 0.621422 0.423241 -0.527823
C37   C     C_3   0.815898 0.694904 0.484182 -0.270563
H11   H     H_    0.757279 0.683982 0.534319 0.140492
H12   H     H_    0.792099 0.755492 0.440671 0.197563
H13   H     H_    0.894895 0.709102 0.524241 0.143117
O10   O     O_3   0.186522 0.383686 0.586728 -0.562498
C38   C     C_3   0.196284 0.306275 0.533126 -0.271933
H14   H     H_    0.234474 0.253132 0.581135 0.180632
H15   H     H_    0.246897 0.318773 0.476514 0.130407
H16   H     H_    0.117961 0.280654 0.501425 0.162470
O11   O     O_3   0.628707 0.613716 0.272161 -0.554680
C39   C     C_3   0.670582 0.687335 0.226026 -0.190778
H17   H     H_    0.708238 0.733503 0.280480 0.224106
H18   H     H_    0.607941 0.725816 0.180921 0.153066
H19   H     H_    0.733500 0.665260 0.184925 0.173573
O12   O     O_3   0.516681 0.341277 0.756981 -0.592029
C40   C     C_3   0.423572 0.290559 0.757464 -0.240202
H20   H     H_    0.352492 0.329433 0.727460 0.199710
H21   H     H_    0.415293 0.265206 0.830149 0.166032
H22   H     H_    0.427987 0.231529 0.711950 0.185090
O13   O     O_3   0.975350 0.635343 0.334432 -0.559041
C41   C     C_3   0.019211 0.722181 0.341764 -0.254141
H23   H     H_    0.089666 0.726884 0.304141 0.156028
H24   H     H_    0.039020 0.743390 0.416924 0.150269
H25   H     H_    0.960132 0.770146 0.306314 0.198836
O14   O     O_3   0.023537 0.360489 0.665502 -0.554999
C42   C     C_3   0.976367 0.274827 0.660113 -0.257228
H26   H     H_    0.951053 0.254066 0.585498 0.134547
H27   H     H_    0.908984 0.272111 0.701740 0.194589
H28   H     H_    0.035278 0.225305 0.692599 0.194305
C43   C     C_2   0.656106 0.223406 0.632359 0.441096
H29   H     H_    0.673310 0.294103 0.626747 0.078095
O15   O     O_2   0.709083 0.179048 0.694026 -0.583613
C44   C     C_2   0.342129 0.769249 0.603852 0.350395
H30   H     H_    0.314149 0.803725 0.662273 0.056134
O16   O     O_2   0.304125 0.696575 0.581063 -0.581572
C45   C     C_2   0.337809 0.055299 0.362128 0.381805
H31   H     H_    0.331809 0.983018 0.358777 0.082582
O17   O     O_2   0.277346 0.100060 0.306621 -0.565087
C46   C     C_2   0.621083 0.956300 0.377059 0.374467
H32   H     H_    0.622765 0.028831 0.375004 0.091995
O18   O     O_2   0.676881 0.916131 0.328762 -0.599366
O19   O     O_3   0.361179 0.385578 0.046203 -0.605274
C47   C     C_3   0.261615 0.426268 0.025281 -0.271286
H33   H     H_    0.265839 0.488324 0.981491 0.152303
H34   H     H_    0.227159 0.440909 0.091275 0.159440
H35   H     H_    0.207739 0.379218 0.983135 0.209682
O20   O     O_3   0.476295 0.664271 0.933739 -0.608340
C48   C     C_3   0.371870 0.694874 0.911535 -0.295487
H36   H     H_    0.314593 0.645439 0.934279 0.153792
H37   H     H_    0.352565 0.711110 0.834433 0.161626
H38   H     H_    0.363406 0.757297 0.950871 0.198584

loop_
_geom_bond_atom_site_label_1
_geom_bond_atom_site_label_2
_geom_bond_distance
_ccdc_geom_bond_type
C6    C11   1.394693 A    
C15   H3    1.084817 S    
C25   C26   1.437104 S    
C45   H31   1.084596 S    
O7    Zn2   2.003979 S    
C23   C25   1.404908 A    
C42   H26   1.114908 S    
O5    C3    1.284990 A    
O19   C47   1.409038 S    
C37   H13   1.114602 S    
O1    C1    1.285671 A    
C21   H5    1.084723 S    
C32   O12   1.378246 S    
O11   C39   1.411524 S    
C24   C46   1.487646 S    
Zn2   N1    2.007591 S    
C38   H15   1.111317 S    
O20   C48   1.409667 S    
C7    O13   1.388657 S    
C47   H35   1.109239 S    
C37   H12   1.107862 S    
C29   H7    1.082181 S    
C16   C26   1.393511 A    
O4    Zn1   1.987285 S    
C9    H2    1.083273 S    
C22   C24   1.387843 A    
C19   C21   1.398544 A    
C5    C12   1.390671 A    
C28   C36   1.413047 A    
N1    C31   1.369898 A    
C1    C19   1.433720 S    
C8    O14   1.389425 S    
C48   H36   1.113592 S    
C17   C19   1.409604 A    
C39   H17   1.106230 S    
C43   O15   1.221326 D    
C8    C10   1.390418 A    
C24   C26   1.405657 A    
O9    C37   1.412806 S    
C48   H37   1.112328 S    
O2    C2    1.286895 A    
C41   H25   1.109373 S    
C32   C34   1.412572 A    
C30   H8    1.079545 S    
C33   H9    1.080426 S    
C5    C10   1.387935 A    
C34   H10   1.082958 S    
C7    C14   1.414960 A    
O12   C40   1.412075 S    
C42   H27   1.110079 S    
C15   C17   1.388952 A    
C8    C13   1.416610 A    
C16   C18   1.385642 A    
O14   C42   1.413037 S    
C41   H24   1.114825 S    
C12   O9    1.385166 S    
C33   C35   1.402543 A    
C28   C30   1.418181 A    
C17   C43   1.487169 S    
O13   C41   1.412781 S    
C37   H11   1.111685 S    
C31   C33   1.428830 A    
C11   O10   1.386609 S    
C18   C20   1.413867 A    
C21   C23   1.387570 A    
C40   H20   1.114014 S    
C27   O19   1.381075 S    
C40   H21   1.111361 S    
C3    C6    1.424928 S    
C15   C25   1.395061 A    
N2    C32   1.374001 A    
C4    C5    1.425466 S    
C29   N1    1.362825 A    
O6    C4    1.286613 A    
C38   H16   1.113239 S    
C39   H19   1.111166 S    
C44   O16   1.220144 D    
C47   H34   1.113441 S    
C27   C29   1.411470 A    
C23   C45   1.487364 S    
O3    Zn2   1.987285 S    
O8    C4    1.279782 A    
O4    C2    1.285345 A    
C38   H14   1.109201 S    
C46   O18   1.221364 D    
O7    C3    1.281025 A    
C48   H38   1.109236 S    
C12   C14   1.395064 A    
O1    Zn1   2.000654 S    
C34   C36   1.398973 A    
C42   H28   1.109242 S    
O6    Zn2   1.974753 S    
C41   H23   1.110377 S    
O3    C1    1.284807 A    
O8    Zn1   2.003980 S    
C45   O17   1.221381 D    
C28   O20   1.382376 S    
C30   N2    1.367061 A    
O10   C38   1.411580 S    
C11   C13   1.396938 A    
C16   H4    1.085505 S    
C35   C36   1.511664 S    
C18   C44   1.485018 S    
C6    C9    1.387799 A    
C22   H6    1.081837 S    
C44   H30   1.085676 S    
C7    C9    1.388150 A    
C20   C22   1.397812 A    
C47   H33   1.112891 S    
O2    Zn2   2.000651 S    
C40   H22   1.109181 S    
C27   C35   1.413278 A    
C13   C14   1.431788 A    
Zn1   N2    2.007588 S    
C2    C20   1.437436 S    
O5    Zn1   1.974756 S    
C46   H32   1.084549 S    
C10   H1    1.082155 S    
C39   H18   1.113091 S    
C31   O11   1.395920 S    
C43   H29   1.082658 S    
