data_mof_unit_37187.cif
_audit_creation_date              2012-12-10T19:46:26-0500
_audit_creation_method            fapswitch 2.2
_symmetry_space_group_name_H-M    P1
_symmetry_Int_Tables_number       1
_space_group_crystal_system       triclinic
_cell_length_a                    10.856736
_cell_length_b                    10.865174
_cell_length_c                    10.430631
_cell_angle_alpha                 90.525782
_cell_angle_beta                  90.27998
_cell_angle_gamma                 90.113447
_cell_volume                      1230.33161221

loop_
_atom_site_label
_atom_site_type_symbol
_atom_type_description
_atom_site_fract_x
_atom_site_fract_y
_atom_site_fract_z
_atom_type_partial_charge
C1    C     C_R   0.496048 0.261515 0.499097 0.801844
C2    C     C_R   0.503952 0.738485 0.500903 0.801843
C3    C     C_R   0.871996 0.494481 0.501594 -0.104322
C4    C     C_R   0.128004 0.505517 0.498406 -0.104322
C5    C     C_R   0.939696 0.453973 0.609236 0.014901
C6    C     C_R   0.060304 0.546025 0.390763 0.014902
C7    C     C_R   0.267893 0.215469 0.137277 -0.112467
C8    C     C_R   0.732102 0.784530 0.862727 -0.112467
C9    C     C_R   0.308914 0.166719 0.253434 -0.225271
C10   C     C_R   0.691081 0.833277 0.746568 -0.225267
C11   C     C_R   0.427120 0.115212 0.262775 0.008706
C12   C     C_R   0.572877 0.884789 0.737227 0.008708
C13   C     C_R   0.503599 0.112868 0.154326 0.608256
C14   C     C_R   0.496400 0.887140 0.845677 0.608253
C15   C     C_R   0.462204 0.162485 0.038586 -0.192224
C16   C     C_R   0.537794 0.837527 0.961419 -0.192228
C17   C     C_R   0.344494 0.213595 0.030030 -0.131745
C18   C     C_R   0.655502 0.786412 0.969976 -0.131743
C19   C     C_R   0.476170 0.932232 0.388505 -0.187311
C20   C     C_R   0.523831 0.067768 0.611495 -0.187305
C21   C     C_R   0.506012 0.872082 0.502486 -0.103049
C22   C     C_R   0.493988 0.127918 0.497515 -0.103048
C23   C     C_R   0.261559 0.503622 0.499455 0.804829
C24   C     C_R   0.738441 0.496377 0.500545 0.804829
C25   C     C_R   0.531742 0.940659 0.615337 0.069008
C26   C     C_R   0.468257 0.059341 0.384663 0.069010
C27   C     C_1   0.500019 0.500008 0.071954 0.118709
C28   C     C_1   0.499981 0.499992 0.928046 0.118707
C29   C     C_R   0.228361 0.764912 0.171276 -0.220851
C30   C     C_R   0.771641 0.235092 0.828733 -0.220849
C31   C     C_R   0.175480 0.714953 0.281284 -0.122548
C32   C     C_R   0.824523 0.285047 0.718723 -0.122555
C33   C     C_R   0.118305 0.598932 0.275433 0.047867
C34   C     C_R   0.881695 0.401070 0.724568 0.047868
C35   C     C_R   0.114709 0.533860 0.158579 -0.158728
C36   C     C_R   0.885287 0.466149 0.841418 -0.158721
C37   C     C_R   0.169784 0.583042 0.049464 0.613774
C38   C     C_R   0.830211 0.416972 0.950535 0.613767
C39   C     C_R   0.226125 0.698720 0.055706 -0.186563
C40   C     C_R   0.773874 0.301291 0.944300 -0.186565
C41   C     C_R   0.932849 0.538984 0.393485 -0.194365
C42   C     C_R   0.067151 0.461013 0.606514 -0.194359
Cu1   Cu    Cu3+1 0.500000 0.500000 0.625300 1.006989
Cu2   Cu    Cu3+1 0.500000 0.500000 0.374700 1.006989
H1    H     H_    0.267793 0.737151 0.970938 0.194120
H2    H     H_    0.732206 0.262864 0.029069 0.194121
H3    H     H_    0.520990 0.160719 0.955142 0.148328
H4    H     H_    0.479009 0.839299 0.044864 0.148328
H5    H     H_    0.455796 0.879947 0.301995 0.155493
H6    H     H_    0.544206 0.120053 0.698005 0.155495
H7    H     H_    0.270713 0.855086 0.175377 0.162168
H8    H     H_    0.729292 0.144917 0.824637 0.162171
H9    H     H_    0.178320 0.766691 0.370518 0.135814
H10   H     H_    0.821686 0.233304 0.629492 0.135816
H11   H     H_    0.069899 0.444934 0.152578 0.167231
H12   H     H_    0.930095 0.555075 0.847414 0.167231
H13   H     H_    0.880834 0.571994 0.311710 0.210634
H14   H     H_    0.119166 0.428004 0.688289 0.210631
H15   H     H_    0.312568 0.251501 0.940217 0.187254
H16   H     H_    0.687428 0.748509 0.059791 0.187259
H17   H     H_    0.176334 0.253748 0.130115 0.155646
H18   H     H_    0.823660 0.746248 0.869890 0.155649
H19   H     H_    0.248469 0.168170 0.335751 0.147812
H20   H     H_    0.751526 0.831819 0.664250 0.147810
N1    N     N_1   0.500010 0.499990 0.186410 -0.134693
N2    N     N_1   0.499990 0.500010 0.813590 -0.134694
O1    O     O_R   0.499990 0.319650 0.605810 -0.585775
O2    O     O_R   0.500010 0.680350 0.394190 -0.585774
O3    O     O_R   0.499990 0.319640 0.394190 -0.566799
O4    O     O_R   0.500010 0.680360 0.605810 -0.566798
O5    O     O_R   0.319640 0.500010 0.605810 -0.558190
O6    O     O_R   0.680360 0.499990 0.394190 -0.558190
O7    O     O_R   0.319650 0.500010 0.394190 -0.577323
O8    O     O_R   0.680350 0.499990 0.605810 -0.577324
F1    F     F_    0.617996 0.063104 0.160955 -0.689313
F2    F     F_    0.382005 0.936910 0.839047 -0.689312
F3    F     F_    0.168715 0.518485 0.937641 -0.707852
F4    F     F_    0.831278 0.481535 0.062354 -0.707854

loop_
_geom_bond_atom_site_label_1
_geom_bond_atom_site_label_2
_ccdc_geom_bond_type
C38   C40   A    
C5    C42   A    
C15   H3    S    
C42   H14   S    
C3    C24   S    
C40   H2    S    
C36   H12   S    
C19   C21   A    
C2    O2    A    
C20   C25   A    
C15   C17   A    
C19   C26   A    
C7    H17   S    
C20   H6    S    
C1    O1    A    
C13   F1    S    
C7    C17   A    
C6    C41   A    
C31   C33   A    
C39   H1    S    
Cu1   O8    S    
C1    C22   S    
C16   H4    S    
Cu2   N1    S    
C23   O7    A    
C32   H10   S    
C35   H11   S    
C23   O5    A    
C4    C6    A    
C4    C23   S    
C38   F4    S    
C11   C26   S    
C37   F3    S    
C1    O3    A    
C32   C34   A    
C28   N2    T    
Cu1   Cu2   S    
C27   N1    T    
C19   H5    S    
C29   C31   A    
C5    C34   S    
C29   C39   A    
C2    C21   S    
C30   C40   A    
Cu2   O3    S    
C31   H9    S    
C9    C11   A    
C10   C12   A    
C17   H15   S    
C16   C18   A    
C20   C22   A    
Cu1   O4    S    
C13   C15   A    
C14   C16   A    
Cu2   O2    S    
C24   O6    A    
C29   H7    S    
C18   H16   S    
C7    C9    A    
C21   C25   A    
C3    C41   A    
Cu1   O5    S    
C35   C37   A    
C9    H19   S    
C8    C10   A    
C10   H20   S    
C12   C14   A    
C3    C5    A    
C6    C33   S    
C12   C25   S    
C36   C38   A    
C41   H13   S    
C37   C39   A    
C30   C32   A    
C11   C13   A    
C24   O8    A    
C4    C42   A    
Cu1   N2    S    
C33   C35   A    
Cu2   O6    S    
C34   C36   A    
Cu2   O7    S    
C8    C18   A    
Cu1   O1    S    
C22   C26   A    
C8    H18   S    
C27   C28   S    
C2    O4    A    
C14   F2    S    
C30   H8    S    
