data_mof_unit_8016.cif
_audit_creation_date              2012-12-10T17:47:51-0500
_audit_creation_method            fapswitch 2.2
_symmetry_space_group_name_H-M    P1
_symmetry_Int_Tables_number       1
_space_group_crystal_system       triclinic
_cell_length_a                    14.716543
_cell_length_b                    14.616414
_cell_length_c                    14.347042
_cell_angle_alpha                 77.875013
_cell_angle_beta                  102.553814
_cell_angle_gamma                 114.731204
_cell_volume                      2711.21830527

loop_
_atom_site_label
_atom_site_type_symbol
_atom_type_description
_atom_site_fract_x
_atom_site_fract_y
_atom_site_fract_z
_atom_type_partial_charge
C1    C     C_R   0.879857 0.311790 0.514007 0.826710
C2    C     C_R   0.119714 0.687871 0.485515 0.842733
C3    C     C_R   0.640558 0.072458 0.531974 -0.047612
C4    C     C_R   0.361281 0.919599 0.508026 -0.047953
C5    C     C_R   0.680231 0.995931 0.550613 0.073117
C6    C     C_R   0.325350 0.991528 0.522843 0.069076
C7    C     C_R   0.535729 0.044518 0.532305 0.078721
C8    C     C_R   0.467476 0.943352 0.523281 0.070809
C9    C     C_R   0.507963 0.868488 0.537161 -0.185441
C10   C     C_R   0.498732 0.113053 0.549649 -0.170088
C11   C     C_R   0.611850 0.894034 0.552075 -0.183321
C12   C     C_R   0.396203 0.086327 0.547282 -0.182444
C13   C     C_R   0.721452 0.675467 0.352199 -0.314724
C14   C     C_R   0.279646 0.326234 0.650068 -0.277494
C15   C     C_R   0.800527 0.642716 0.374791 0.079624
C16   C     C_R   0.199660 0.357705 0.625753 0.091218
C17   C     C_R   0.713567 0.507631 0.488331 0.051984
C18   C     C_R   0.286942 0.492870 0.512474 0.027881
C19   C     C_R   0.629886 0.536574 0.468170 -0.025142
C20   C     C_R   0.371777 0.465584 0.534820 -0.025433
C21   C     C_R   0.636205 0.623155 0.398981 0.166834
C22   C     C_R   0.365731 0.379546 0.604631 0.185030
C23   C     C_R   0.000115 0.499998 0.668881 0.802600
C24   C     C_R   0.999916 0.500055 0.331116 0.803006
C25   C     C_R   0.541486 0.483852 0.514267 0.088586
C26   C     C_R   0.460929 0.519253 0.490006 0.079139
C27   C     C_R   0.472425 0.607338 0.422269 -0.234517
C28   C     C_R   0.530934 0.397109 0.583693 -0.215286
C29   C     C_R   0.558099 0.657690 0.377503 -0.195439
C30   C     C_R   0.445088 0.346729 0.628257 -0.193466
C31   C     C_1   0.000257 0.499982 0.771265 -0.188105
C32   C     C_1   0.999835 0.500180 0.228730 -0.195657
C33   C     C_1   0.000236 0.500028 0.856671 -0.003929
C34   C     C_1   0.999897 0.500210 0.143319 -0.008875
C35   C     C_1   0.000134 0.500111 0.957301 0.007863
C36   C     C_1   0.000024 0.500174 0.042685 0.006259
C37   C     C_R   0.811212 0.203069 0.524442 -0.152107
C38   C     C_R   0.187499 0.795406 0.486916 -0.144890
C39   C     C_R   0.786779 0.024364 0.564352 0.016977
C40   C     C_R   0.219638 0.964504 0.517115 0.025112
C41   C     C_R   0.850497 0.127614 0.552542 -0.360883
C42   C     C_R   0.153005 0.864769 0.504888 -0.370797
C43   C     C_R   0.705576 0.174635 0.508034 0.408680
C44   C     C_R   0.289461 0.826596 0.477768 0.436744
Cu1   Cu    Cu3+1 0.081740 0.475690 0.523180 0.953800
Cu2   Cu    Cu3+1 0.918260 0.524310 0.476820 0.947058
H1    H     H_    0.636804 0.832551 0.561346 0.203662
H2    H     H_    0.374156 0.140787 0.566569 0.195235
H3    H     H_    0.416631 0.640135 0.402336 0.160212
H4    H     H_    0.587911 0.365805 0.605762 0.133665
H5    H     H_    0.073333 0.841373 0.508254 0.175319
H6    H     H_    0.931738 0.149207 0.565200 0.176422
H7    H     H_    0.461057 0.788338 0.543677 0.205201
H8    H     H_    0.549197 0.185931 0.572057 0.184636
H9    H     H_    0.563350 0.724754 0.325623 0.142138
H10   H     H_    0.440528 0.280748 0.681447 0.132564
H11   H     H_    0.283118 0.554791 0.458280 0.158398
H12   H     H_    0.716858 0.444650 0.541305 0.143315
H13   H     H_    0.132744 0.316401 0.660353 0.125429
H14   H     H_    0.867057 0.683575 0.339565 0.131033
H15   H     H_    0.727245 0.741700 0.299063 0.140501
H16   H     H_    0.274006 0.260342 0.703625 0.135563
N1    N     N_R   0.795420 0.560790 0.441960 -0.177075
N2    N     N_R   0.204580 0.439210 0.558040 -0.178062
O1    O     O_R   0.977910 0.338120 0.530560 -0.590660
O2    O     O_R   0.022090 0.661880 0.469440 -0.595651
O3    O     O_R   0.839850 0.379180 0.491410 -0.529297
O4    O     O_R   0.160150 0.620820 0.508590 -0.538196
O5    O     O_R   0.069040 0.479460 0.643530 -0.566558
O6    O     O_R   0.930960 0.520540 0.356470 -0.567193
O7    O     O_R   0.930990 0.520530 0.604380 -0.562242
O8    O     O_R   0.069010 0.479470 0.395620 -0.554799
O9    O     O_3   0.316912 0.766778 0.435698 -0.605908
C45   C     C_3   0.314470 0.802024 0.336224 -0.356422
H17   H     H_    0.334617 0.753205 0.301817 0.182247
H18   H     H_    0.237347 0.796706 0.301367 0.162888
H19   H     H_    0.370760 0.881328 0.322750 0.174103
O10   O     O_3   0.665546 0.246223 0.463748 -0.589859
C46   C     C_3   0.644465 0.242427 0.363596 -0.268850
H20   H     H_    0.585727 0.167458 0.346228 0.154623
H21   H     H_    0.714173 0.259548 0.333152 0.149740
H22   H     H_    0.614476 0.301309 0.328150 0.191729
C47   C     C_2   0.836812 0.950999 0.594093 0.346447
H23   H     H_    0.909596 0.970274 0.572414 0.061180
O11   O     O_2   0.801512 0.872097 0.647595 -0.548366
C48   C     C_2   0.173993 0.035429 0.525311 0.335885
H24   H     H_    0.103946 0.005956 0.555431 0.060711
O12   O     O_2   0.209534 0.125390 0.493170 -0.549665

loop_
_geom_bond_atom_site_label_1
_geom_bond_atom_site_label_2
_ccdc_geom_bond_type
C7    C10   A    
C27   C29   A    
O9    C45   S    
C23   O5    A    
C11   H1    S    
C35   C36   T    
C4    C8    A    
C24   O6    A    
C7    C8    A    
C39   C41   A    
Cu1   Cu2   S    
C43   O10   S    
C3    C43   A    
C26   C27   A    
C45   H18   S    
C19   C21   A    
Cu2   O2    S    
C3    C7    A    
C6    C12   A    
C33   C35   S    
C48   O12   D    
C14   H16   S    
C15   H14   S    
C40   C48   S    
C1    O3    A    
C28   H4    S    
C8    C9    A    
C45   H19   S    
C1    O1    A    
C31   C33   T    
C41   H6    S    
C18   C20   A    
C1    C37   S    
C42   H5    S    
C40   C42   A    
Cu1   O8    S    
C19   C25   A    
C45   H17   S    
Cu1   O5    S    
C23   O7    A    
C4    C6    A    
C46   H21   S    
O10   C46   S    
C29   H9    S    
C2    O2    A    
C25   C26   A    
C30   H10   S    
C25   C28   A    
C16   H13   S    
C23   C31   S    
C37   C43   A    
C24   C32   S    
C38   C44   A    
C2    C38   S    
C18   H11   S    
C47   H23   S    
Cu1   O4    S    
C13   C21   A    
C9    C11   A    
Cu2   O7    S    
C10   C12   A    
C47   O11   D    
C20   C22   A    
C13   C15   A    
Cu1   O1    S    
C14   C16   A    
C9    H7    S    
C24   O8    A    
C5    C39   A    
C22   C30   A    
C48   H24   S    
C3    C5    A    
C46   H22   S    
C5    C11   A    
C4    C44   A    
C17   H12   S    
Cu1   N2    S    
C2    O4    A    
Cu2   N1    S    
C14   C22   A    
C28   C30   A    
C39   C47   S    
Cu2   O3    S    
C20   C26   A    
C17   N1    A    
C18   N2    A    
C21   C29   A    
C17   C19   A    
C12   H2    S    
C6    C40   A    
C37   C41   A    
C44   O9    S    
C10   H8    S    
Cu2   O6    S    
C46   H20   S    
C38   C42   A    
C13   H15   S    
C34   C36   S    
C15   N1    A    
C16   N2    A    
C27   H3    S    
C32   C34   T    
