data_mof_unit_47939.cif
_audit_creation_date              2012-12-11T17:14:03-0500
_audit_creation_method            fapswitch 2.2
_symmetry_space_group_name_H-M    P1
_symmetry_Int_Tables_number       1
_space_group_crystal_system       triclinic
_cell_length_a                    18.188345
_cell_length_b                    7.096675
_cell_length_c                    13.024391
_cell_angle_alpha                 89.999812
_cell_angle_beta                  71.977985
_cell_angle_gamma                 90.000025
_cell_volume                      1598.66547541

loop_
_atom_site_label
_atom_site_type_symbol
_atom_type_description
_atom_site_fract_x
_atom_site_fract_y
_atom_site_fract_z
_atom_type_partial_charge
O1    O     O_R   0.453880 0.506200 0.150010 -0.535601
O2    O     O_R   0.546120 0.006200 0.849990 -0.535601
O3    O     O_R   0.604080 0.177770 0.007280 -0.539783
O4    O     O_R   0.395920 0.677770 0.992720 -0.539783
C1    C     C_R   0.635891 0.344510 0.002053 0.732575
C2    C     C_R   0.364109 0.844510 0.997947 0.732575
O5    O     O_R   0.458010 0.176640 0.159130 -0.543226
O6    O     O_R   0.541990 0.676640 0.840870 -0.543225
O7    O     O_R   0.399010 0.004010 0.002930 -0.536334
O8    O     O_R   0.600990 0.504010 0.997070 -0.536334
C3    C     C_R   0.442598 0.344670 0.201673 0.707183
C4    C     C_R   0.557402 0.844670 0.798327 0.707183
O9    O     O_3   0.480810 0.338440 0.948570 -0.373895
O10   O     O_3   0.519190 0.838440 0.051430 -0.373895
V1    V     V_3+5 0.503560 0.064490 0.009540 1.423758
V2    V     V_3+5 0.496440 0.564490 0.990460 1.423758
C5    C     C_R   0.583085 0.800317 0.502072 0.200733
C6    C     C_R   0.416915 0.300315 0.497928 0.200733
H1    H     H_    0.486114 0.807587 0.648167 0.111513
H2    H     H_    0.513886 0.307585 0.351834 0.111513
H3    H     H_    0.666399 0.762203 0.293064 0.156206
H4    H     H_    0.333601 0.262203 0.706936 0.156206
C7    C     C_R   0.593351 0.848167 0.681424 -0.059858
C8    C     C_R   0.406649 0.348165 0.318576 -0.059858
C9    C     C_R   0.955086 0.906431 0.383946 0.382590
C10   C     C_R   0.044914 0.406432 0.616054 0.382590
C11   C     C_R   0.922580 0.911245 0.495930 -0.186278
C12   C     C_R   0.077420 0.411247 0.504069 -0.186280
C13   C     C_R   0.843705 0.882098 0.543934 -0.254022
C14   C     C_R   0.156295 0.382099 0.456066 -0.254021
C15   C     C_R   0.793737 0.850279 0.481098 0.094574
C16   C     C_R   0.206263 0.350280 0.518902 0.094574
C17   C     C_R   0.827456 0.835061 0.367180 0.017261
C18   C     C_R   0.172544 0.335062 0.632820 0.017261
C19   C     C_R   0.711408 0.838942 0.527111 0.046880
C20   C     C_R   0.288592 0.338942 0.472889 0.046880
C21   C     C_R   0.664708 0.809138 0.458416 0.118070
C22   C     C_R   0.335291 0.309137 0.541584 0.118070
C23   C     C_R   0.700137 0.787618 0.347148 -0.187690
C24   C     C_R   0.299863 0.287618 0.652853 -0.187691
C25   C     C_R   0.779686 0.800820 0.302428 -0.198295
C26   C     C_R   0.220314 0.300821 0.697572 -0.198295
C27   C     C_R   0.673696 0.858337 0.639091 -0.232774
C28   C     C_R   0.326304 0.358337 0.360909 -0.232773
C29   C     C_R   0.548373 0.818393 0.613668 -0.192701
C30   C     C_R   0.451627 0.318390 0.386332 -0.192701
C31   C     C_R   0.908069 0.863311 0.319457 -0.161189
C32   C     C_R   0.091931 0.363313 0.680543 -0.161189
H5    H     H_    0.704876 0.877142 0.696435 0.108314
H6    H     H_    0.295124 0.377142 0.303565 0.108314
H7    H     H_    0.823678 0.890787 0.630594 0.132544
H8    H     H_    0.176322 0.390788 0.369406 0.132544
H9    H     H_    0.958172 0.946221 0.546244 0.130819
H10   H     H_    0.041829 0.446222 0.453755 0.130819
H11   H     H_    0.803223 0.786652 0.215659 0.124730
H12   H     H_    0.196777 0.286654 0.784341 0.124731
C33   C     C_1   0.216487 0.858657 0.999389 -0.194309
C34   C     C_1   0.783513 0.358657 0.000611 -0.194309
C35   C     C_1   0.283796 0.852523 0.998324 -0.183061
C36   C     C_1   0.716204 0.352523 0.001676 -0.183061
O11   O     O_R   0.899030 0.205490 0.002790 -0.538100
O12   O     O_R   0.100970 0.705490 0.997210 -0.538100
O13   O     O_R   0.042000 0.536370 0.840840 -0.526472
O14   O     O_R   0.958000 0.036370 0.159160 -0.526472
C37   C     C_R   0.057229 0.368629 0.798243 0.737429
C38   C     C_R   0.942770 0.868628 0.201757 0.737431
O15   O     O_R   0.895930 0.535070 0.992690 -0.539293
O16   O     O_R   0.104070 0.035070 0.007310 -0.539293
O17   O     O_R   0.953870 0.707520 0.150040 -0.550364
O18   O     O_R   0.046130 0.207520 0.849960 -0.550363
C39   C     C_R   0.864078 0.366756 0.999071 0.735917
C40   C     C_R   0.135922 0.866756 0.000929 0.735917
O19   O     O_3   0.019200 0.374340 0.051340 -0.376620
O20   O     O_3   0.980800 0.874340 0.948660 -0.376620
V3    V     V_3+5 0.996440 0.648350 0.990470 1.444871
V4    V     V_3+5 0.003560 0.148350 0.009530 1.444870
N1    N     N_3   0.535772 0.771348 0.433009 -0.680682
H13   H     H_    0.536459 0.896627 0.390464 0.228267
H14   H     H_    0.478194 0.747715 0.478775 0.239349
N2    N     N_3   0.464228 0.271346 0.566991 -0.680682
H15   H     H_    0.463541 0.396625 0.609536 0.228267
H16   H     H_    0.521806 0.247712 0.521225 0.239349
O21   O     O_3   0.029249 0.974207 0.336529 -0.576725
C41   C     C_3   0.083985 0.839631 0.345482 0.050335
H17   H     H_    0.079516 0.710242 0.299285 0.116964
H18   H     H_    0.075698 0.802524 0.431413 0.135092
C42   C     C_3   0.164651 0.924907 0.298169 -0.281070
H19   H     H_    0.171820 0.977383 0.215376 0.199428
H20   H     H_    0.170692 0.046364 0.348384 0.202952
C43   C     C_3   0.228515 0.783455 0.294171 -0.827113
H21   H     H_    0.224392 0.736077 0.376987 0.244841
H22   H     H_    0.285750 0.851264 0.258090 0.230925
H23   H     H_    0.224331 0.660362 0.243635 0.221335
O22   O     O_3   0.970751 0.474208 0.663471 -0.576725
C44   C     C_3   0.916015 0.339631 0.654519 0.050334
H24   H     H_    0.920484 0.210243 0.700718 0.116965
H25   H     H_    0.924302 0.302520 0.568589 0.135092
C45   C     C_3   0.835350 0.424906 0.701831 -0.281072
H26   H     H_    0.828180 0.477385 0.784623 0.199428
H27   H     H_    0.829308 0.546361 0.651613 0.202953
C46   C     C_3   0.771485 0.283453 0.705830 -0.827115
H28   H     H_    0.775609 0.236072 0.623015 0.244841
H29   H     H_    0.714250 0.351262 0.741909 0.230926
H30   H     H_    0.775670 0.160361 0.756367 0.221336

loop_
_geom_bond_atom_site_label_1
_geom_bond_atom_site_label_2
_ccdc_geom_bond_type
C10   O22   S    
C14   C16   A    
C42   H19   S    
O13   C37   A    
C46   H28   S    
C7    C29   A    
C11   C13   A    
C44   H24   S    
O1    C3    A    
C41   C42   S    
O2    C4    A    
C2    O7    A    
C44   C45   S    
C23   C25   A    
C6    N2    S    
N1    H13   S    
O15   V3    S    
O5    C3    A    
C4    C7    S    
O20   V4    S    
C16   C20   A    
C19   C21   A    
C41   H18   S    
C34   C39   S    
C33   C35   T    
C38   O17   A    
C34   C36   T    
C37   O18   A    
C3    C8    S    
C7    C27   A    
C25   H11   S    
C26   H12   S    
C42   C43   S    
C18   C26   A    
C15   C17   A    
C32   C37   S    
C19   C27   A    
C9    C31   A    
C31   C38   S    
C10   C32   A    
O11   C39   A    
C24   C26   A    
O6    V2    S    
C11   H9    S    
C13   C15   A    
O19   V3    S    
C6    C30   A    
N1    H14   S    
O11   V4    S    
O20   V3    S    
C41   H17   S    
N2    H16   S    
C12   H10   S    
C27   H5    S    
H1    C29   S    
C16   C18   A    
O4    V2    S    
C43   H22   S    
O21   C41   S    
H3    C23   S    
O16   C40   A    
H4    C24   S    
C5    N1    S    
O14   V4    S    
O12   C40   A    
O1    V2    S    
C5    C21   A    
O2    V1    S    
O4    C2    A    
C46   H30   S    
C45   H27   S    
C42   H20   S    
O18   V4    S    
C17   C31   A    
O19   V4    S    
C15   C19   A    
O12   V3    S    
C20   C28   A    
C9    C11   A    
C20   C22   A    
O3    V1    S    
C43   H23   S    
C13   H7    S    
C28   H6    S    
C14   H8    S    
C1    C36   S    
C2    C35   S    
C5    C29   A    
N2    H15   S    
O3    C1    A    
C44   H25   S    
O16   V4    S    
C45   C46   S    
C10   C12   A    
C8    C30   A    
C12   C14   A    
C6    C22   A    
C17   C25   A    
C1    O8    A    
C21   C23   A    
O8    V2    S    
C22   C24   A    
C43   H21   S    
O13   V3    S    
C8    C28   A    
O5    V1    S    
O17   V3    S    
O15   C39   A    
C33   C40   S    
O7    V1    S    
O22   C44   S    
C18   C32   A    
C46   H29   S    
C45   H26   S    
O9    V2    S    
C9    O21   S    
O10   V1    S    
H2    C30   S    
O6    C4    A    
O14   C38   A    
