data_mof_unit_59000.cif
_audit_creation_date              2012-12-10T19:11:29-0500
_audit_creation_method            fapswitch 2.2
_symmetry_space_group_name_H-M    P1
_symmetry_Int_Tables_number       1
_space_group_crystal_system       triclinic
_cell_length_a                    10.620205
_cell_length_b                    9.731646
_cell_length_c                    10.486292
_cell_angle_alpha                 89.888089
_cell_angle_beta                  90.601369
_cell_angle_gamma                 89.959607
_cell_volume                      1083.71799429

loop_
_atom_site_label
_atom_site_type_symbol
_atom_type_description
_atom_site_fract_x
_atom_site_fract_y
_atom_site_fract_z
_atom_type_partial_charge
C1    C     C_R   0.257724 0.500048 0.504597 0.853947
C2    C     C_3   0.924159 0.504886 0.374200 -0.623380
C3    C     C_3   0.392522 0.081999 0.419976 0.504750
C4    C     C_3   0.393232 0.918062 0.418842 0.502013
C5    C     C_3   0.618047 0.080930 0.444154 -0.263711
C6    C     C_3   0.618521 0.919027 0.445174 -0.261699
C7    C     C_3   0.487663 0.080770 0.628027 -0.400526
C8    C     C_3   0.486754 0.918765 0.627927 -0.395662
C9    C     C_R   0.500474 0.500336 0.257197 0.850646
C10   C     C_R   0.741997 0.499926 0.508889 0.920050
C11   C     C_R   0.499678 0.499738 0.742657 0.898643
C12   C     C_3   0.500451 0.501443 0.122217 0.036624
C13   C     C_3   0.520985 0.629441 0.040199 -0.162117
C14   C     C_3   0.387604 0.456326 0.041373 -0.182799
C15   C     C_3   0.408127 0.583998 0.956643 -0.193945
C16   C     C_3   0.499406 0.499059 0.877549 0.027438
C17   C     C_3   0.612217 0.544412 0.958288 -0.186452
C18   C     C_3   0.478855 0.371141 0.959559 -0.124393
C19   C     C_3   0.591804 0.416637 0.043021 -0.148272
C20   C     C_3   0.282071 0.175880 0.245281 -0.270797
C21   C     C_3   0.288816 0.819766 0.241697 -0.271358
C22   C     C_3   0.877009 0.771715 0.755862 -0.381609
C23   C     C_3   0.074032 0.622672 0.591157 -0.464586
C24   C     C_3   0.879562 0.221164 0.748380 -0.356902
C25   C     C_3   0.073564 0.365070 0.572059 -0.461082
C26   C     C_3   0.929232 0.629378 0.586147 0.459553
C27   C     C_3   0.929099 0.365379 0.578369 0.439580
C28   C     C_3   0.067810 0.513023 0.372516 -0.447963
C29   C     C_3   0.121109 0.500144 0.509859 0.079288
C30   C     C_3   0.878412 0.499835 0.513796 0.016270
H1    H     H_    0.333431 0.651873 0.916590 0.125348
H2    H     H_    0.399915 0.119662 0.672446 0.157174
H3    H     H_    0.398059 0.880909 0.671234 0.157129
H4    H     H_    0.700172 0.118482 0.500305 0.139339
H5    H     H_    0.700057 0.882400 0.503069 0.140555
H6    H     H_    0.538385 0.734672 0.077087 0.174594
H7    H     H_    0.295351 0.422911 0.079064 0.110231
H8    H     H_    0.703534 0.579401 0.919464 0.183205
H9    H     H_    0.461557 0.265873 0.922662 0.132962
H10   H     H_    0.666533 0.348797 0.083053 0.129451
H11   H     H_    0.111664 0.721873 0.554755 0.134261
H12   H     H_    0.883826 0.595669 0.323300 0.191748
H13   H     H_    0.103840 0.274547 0.515179 0.136178
H14   H     H_    0.108370 0.610758 0.691305 0.191446
H15   H     H_    0.115620 0.353557 0.669255 0.187303
H16   H     H_    0.901275 0.721885 0.528835 0.049569
H17   H     H_    0.893956 0.275757 0.521552 0.048886
H18   H     H_    0.095808 0.613002 0.330358 0.172695
H19   H     H_    0.104798 0.430341 0.310586 0.166291
H20   H     H_    0.264553 0.282801 0.275518 0.169164
H21   H     H_    0.202728 0.109507 0.275616 0.101687
H22   H     H_    0.284459 0.173916 0.139611 0.171661
H23   H     H_    0.892332 0.411580 0.321615 0.190393
H24   H     H_    0.204872 0.877114 0.274957 0.100322
H25   H     H_    0.279165 0.709680 0.265908 0.179109
H26   H     H_    0.290625 0.827981 0.136229 0.170687
H27   H     H_    0.805102 0.832780 0.702981 0.152944
H28   H     H_    0.970890 0.821745 0.749184 0.146175
H29   H     H_    0.850323 0.770988 0.857808 0.186285
H30   H     H_    0.968601 0.163441 0.733124 0.137285
H31   H     H_    0.799756 0.168680 0.699762 0.151510
H32   H     H_    0.860344 0.220591 0.852149 0.191540
H33   H     H_    0.303630 0.115833 0.466944 -0.026454
H34   H     H_    0.303919 0.882510 0.463778 -0.023490
H35   H     H_    0.632072 0.119275 0.345374 0.189751
H36   H     H_    0.634258 0.879672 0.347157 0.187674
H37   H     H_    0.566668 0.117886 0.689259 0.192546
H38   H     H_    0.564727 0.880276 0.690018 0.196983
N1    N     N_3   0.499750 0.138610 0.497240 -0.077331
N2    N     N_3   0.499750 0.861390 0.497240 -0.078857
O1    O     O_R   0.314910 0.616040 0.499970 -0.637853
O2    O     O_3   0.403989 0.870478 0.291095 -0.567394
O3    O     O_3   0.879541 0.634917 0.711291 -0.554085
O4    O     O_3   0.888968 0.358855 0.707084 -0.546741
O5    O     O_R   0.314910 0.383960 0.499970 -0.636277
O6    O     O_R   0.500080 0.616020 0.313900 -0.588473
O7    O     O_R   0.500080 0.383980 0.313900 -0.576252
O8    O     O_R   0.685320 0.616040 0.499930 -0.636398
O9    O     O_R   0.685320 0.383960 0.499930 -0.639783
O10   O     O_R   0.500150 0.616060 0.686000 -0.628398
O11   O     O_R   0.500150 0.383940 0.686000 -0.634435
O12   O     O_3   0.400327 0.132227 0.292856 -0.555824
Zn1   Zn    Zn3+2 0.500150 0.654960 0.499940 0.935056
Zn2   Zn    Zn3+2 0.500150 0.345040 0.499940 0.937360

loop_
_geom_bond_atom_site_label_1
_geom_bond_atom_site_label_2
_ccdc_geom_bond_type
C24   H31   S    
C20   O12   S    
C14   C18   S    
C25   H13   S    
C22   H27   S    
C4    N2    S    
C10   O8    A    
C7    C8    S    
C11   O11   A    
C1    O1    A    
C23   C29   S    
C28   C29   S    
C3    N1    S    
C20   H21   S    
O9    Zn2   S    
O5    Zn2   S    
C15   C16   S    
C26   O3    S    
C6    H5    S    
C18   C19   S    
C28   H19   S    
C23   C26   S    
C5    N1    S    
O8    Zn1   S    
C16   C17   S    
C20   H20   S    
C9    O6    A    
C27   O4    S    
C17   H8    S    
C27   C30   S    
O10   Zn1   S    
O6    Zn1   S    
O1    Zn1   S    
C25   C29   S    
C21   O2    S    
C1    O5    A    
C13   H6    S    
C5    H35   S    
C19   H10   S    
C22   H29   S    
C21   H25   S    
O7    Zn2   S    
C23   H14   S    
C18   H9    S    
C7    N1    S    
C11   C16   S    
C10   C30   S    
C24   H30   S    
C5    H4    S    
C3    O12   S    
C1    C29   S    
C9    O7    A    
N2    Zn1   S    
C12   C14   S    
C8    H38   S    
C13   C15   S    
C3    C4    S    
C25   H15   S    
C4    O2    S    
O11   Zn2   S    
C27   H17   S    
C6    N2    S    
C28   H18   S    
C24   H32   S    
C7    H2    S    
C2    H23   S    
C22   H28   S    
C21   H26   S    
C10   O9    A    
C15   H1    S    
C3    H33   S    
C25   C27   S    
C4    H34   S    
C8    N2    S    
C23   H11   S    
C13   C17   S    
C21   H24   S    
C2    C30   S    
C20   H22   S    
N1    Zn2   S    
C14   H7    S    
C24   O4    S    
C5    C6    S    
C2    H12   S    
C12   C19   S    
C17   C19   S    
C8    H3    S    
C9    C12   S    
C11   O10   A    
C26   H16   S    
C7    H37   S    
C6    H36   S    
C12   C13   S    
C16   C18   S    
C14   C15   S    
C2    C28   S    
C22   O3    S    
C26   C30   S    
