data_mof_unit_67860.cif
_audit_creation_date              2012-12-10T16:55:46-0500
_audit_creation_method            fapswitch 2.2
_symmetry_space_group_name_H-M    P1
_symmetry_Int_Tables_number       1
_space_group_crystal_system       triclinic
_cell_length_a                    7.853137
_cell_length_b                    8.572889
_cell_length_c                    10.47702
_cell_angle_alpha                 92.294632
_cell_angle_beta                  85.59529
_cell_angle_gamma                 93.176277
_cell_volume                      701.738212454

loop_
_atom_site_label
_atom_site_type_symbol
_atom_type_description
_atom_site_fract_x
_atom_site_fract_y
_atom_site_fract_z
_atom_type_partial_charge
Br1   Br    Br    0.040015 0.321319 0.336768 -0.343111
Br2   Br    Br    0.959977 0.680029 0.661637 -0.364818
Br3   Br    Br    0.744126 0.027639 0.625283 -0.441852
Br4   Br    Br    0.264862 0.971762 0.365775 -0.425920
C1    C     C_R   0.544355 0.794100 0.497379 0.912281
C2    C     C_3   0.502896 0.499930 0.877250 -0.025841
C3    C     C_3   0.338077 0.521405 0.050148 -0.195783
C4    C     C_3   0.661947 0.482925 0.951232 -0.156681
C5    C     C_2   0.563355 0.956449 0.516451 0.008027
C6    C     C_2   0.438634 0.043419 0.480140 0.009098
C7    C     C_3   0.713984 0.755445 0.093718 -0.424677
C8    C     C_3   0.806830 0.851004 0.987641 -0.762448
C9    C     C_3   0.272584 0.251235 0.920154 -0.404903
C10   C     C_3   0.365664 0.118678 0.849303 -0.800928
C11   C     C_R   0.455913 0.205816 0.500981 0.905576
C12   C     C_R   0.501373 0.499978 0.742186 0.872701
C13   C     C_R   0.498682 0.501640 0.258120 0.869686
C14   C     C_3   0.444909 0.638642 0.963807 -0.205902
C15   C     C_3   0.554434 0.365496 0.037531 -0.194723
C16   C     C_3   0.602384 0.620222 0.039732 0.180974
C17   C     C_3   0.396901 0.384004 0.961776 0.181521
C18   C     C_3   0.496575 0.503887 0.123592 -0.053241
H1    H     H_    0.401530 0.749596 0.929393 0.161203
H2    H     H_    0.443321 0.163842 0.764785 0.257971
H3    H     H_    0.450446 0.064921 0.913307 0.253814
H4    H     H_    0.271200 0.027382 0.816528 0.270693
H5    H     H_    0.198971 0.204740 0.006468 0.234798
H6    H     H_    0.180998 0.297771 0.857456 0.233191
H7    H     H_    0.597771 0.254727 0.072366 0.165633
H8    H     H_    0.206441 0.536604 0.093940 0.186336
H9    H     H_    0.793691 0.467909 0.907646 0.178775
H10   H     H_    0.900694 0.778754 0.931414 0.281213
H11   H     H_    0.714529 0.893126 0.923346 0.271630
H12   H     H_    0.876969 0.953726 0.030458 0.258379
H13   H     H_    0.631617 0.832561 0.156526 0.216453
H14   H     H_    0.809929 0.708195 0.152381 0.238405
N1    N     N_2   0.950320 0.457950 0.465730 0.095855
N2    N     N_2   0.049680 0.542050 0.534270 0.094972
O1    O     O_R   0.389250 0.738570 0.508410 -0.581625
O2    O     O_R   0.610750 0.261430 0.491590 -0.578807
O3    O     O_R   0.678390 0.711620 0.486450 -0.567537
O4    O     O_R   0.321610 0.288380 0.513550 -0.563712
O5    O     O_R   0.355460 0.513510 0.697030 -0.621899
O6    O     O_R   0.644540 0.486490 0.302970 -0.626338
O7    O     O_R   0.644600 0.486560 0.675070 -0.590228
O8    O     O_R   0.355400 0.513440 0.324930 -0.587144
Zn1   Zn    Zn3+2 0.306940 0.517990 0.514670 1.090080
Zn2   Zn    Zn3+2 0.693060 0.482010 0.485330 1.088854

loop_
_geom_bond_atom_site_label_1
_geom_bond_atom_site_label_2
_ccdc_geom_bond_type
C12   O7    A    
C7    C8    S    
C9    H6    S    
C1    C5    S    
N1    N2    D    
Br3   C5    S    
C3    C18   S    
C5    C6    D    
Br2   N2    S    
C13   C18   S    
Br1   N1    S    
C6    C11   S    
C3    C14   S    
C7    H13   S    
C13   O6    A    
C9    C17   S    
C3    H8    S    
C9    C10   S    
C10   H4    S    
N1    Zn2   S    
C2    C17   S    
C12   O5    A    
N2    Zn1   S    
C4    C16   S    
O5    Zn1   S    
C7    H14   S    
C15   C17   S    
O3    Zn2   S    
C16   C18   S    
C14   C16   S    
O4    Zn1   S    
C1    O1    A    
C10   H3    S    
C2    C14   S    
C11   O2    A    
C4    C15   S    
Br4   C6    S    
C14   H1    S    
C15   H7    S    
C15   C18   S    
C13   O8    A    
O1    Zn1   S    
O7    Zn2   S    
C10   H2    S    
O2    Zn2   S    
C1    O3    A    
O8    Zn1   S    
C9    H5    S    
C2    C4    S    
C8    H11   S    
C3    C17   S    
C4    H9    S    
C8    H12   S    
C7    C16   S    
C2    C12   S    
C8    H10   S    
O6    Zn2   S    
C11   O4    A    
