data_mof_unit_35408.cif
_audit_creation_date              2012-12-10T17:32:17-0500
_audit_creation_method            fapswitch 2.2
_symmetry_space_group_name_H-M    P1
_symmetry_Int_Tables_number       1
_space_group_crystal_system       triclinic
_cell_length_a                    12.312912
_cell_length_b                    13.194069
_cell_length_c                    15.073538
_cell_angle_alpha                 77.446432
_cell_angle_beta                  101.434989
_cell_angle_gamma                 116.626138
_cell_volume                      2122.45859944

loop_
_atom_site_label
_atom_site_type_symbol
_atom_type_description
_atom_site_fract_x
_atom_site_fract_y
_atom_site_fract_z
_atom_type_partial_charge
C1    C     C_R   0.854856 0.286589 0.507945 0.778553
C2    C     C_R   0.902950 0.513863 0.074685 0.022211
C3    C     C_R   0.193467 0.485233 0.081357 -0.251341
C4    C     C_R   0.195400 0.484984 0.988901 0.135430
C5    C     C_R   0.098395 0.493269 0.924408 0.097150
C6    C     C_R   0.001129 0.503081 0.953123 0.022608
C7    C     C_R   0.904242 0.511502 0.888949 0.068690
C8    C     C_R   0.808678 0.521943 0.917031 -0.191498
C9    C     C_R   0.806858 0.524686 0.009125 -0.004080
C10   C     C_R   0.096095 0.491585 0.831607 -0.224166
C11   C     C_R   0.999841 0.500404 0.767966 -0.086249
C12   C     C_R   0.999665 0.499817 0.671185 0.810270
C13   C     C_R   0.904310 0.510279 0.796840 -0.234180
C14   C     C_R   0.275112 0.021223 0.376935 -0.186420
C15   C     C_R   0.227927 0.834483 0.467158 -0.050170
C16   C     C_R   0.815766 0.085224 0.567487 -0.184550
C17   C     C_R   0.737127 0.970194 0.585056 -0.136741
C18   C     C_R   0.613668 0.932443 0.552627 -0.172784
C19   C     C_R   0.566697 0.009349 0.498367 0.080976
C20   C     C_R   0.650098 0.123891 0.471474 0.082818
C21   C     C_R   0.439911 0.976065 0.469062 0.075215
C22   C     C_R   0.400021 0.053271 0.406433 0.165279
C23   C     C_R   0.145113 0.713417 0.486400 0.802672
C24   C     C_R   0.485319 0.160516 0.372269 -0.235506
C25   C     C_R   0.608598 0.194796 0.403200 -0.192856
C26   C     C_R   0.351140 0.868498 0.500894 -0.248952
C27   C     C_R   0.189358 0.911857 0.406666 -0.191889
C28   C     C_R   0.773125 0.163631 0.512881 -0.102200
C29   C     C_R   0.348142 0.329879 0.646926 -0.286413
C30   C     C_R   0.758863 0.644479 0.375239 0.019894
C31   C     C_R   0.661302 0.675872 0.347296 0.114361
C32   C     C_R   0.558413 0.621091 0.394863 -0.204599
C33   C     C_R   0.551238 0.534345 0.470058 -0.054040
C34   C     C_R   0.000245 0.500161 0.328792 0.802683
C35   C     C_R   0.653198 0.505416 0.495404 0.277711
C36   C     C_R   0.447149 0.475295 0.521015 -0.022175
C37   C     C_R   0.447732 0.389071 0.595716 0.176876
C38   C     C_R   0.547673 0.362235 0.619144 -0.281878
C39   C     C_R   0.647853 0.419020 0.570260 -0.177004
C40   C     C_R   0.341662 0.497508 0.501628 0.015321
C41   C     C_R   0.247727 0.355945 0.624375 0.074988
C42   C     C_R   0.904003 0.510325 0.168472 -0.256330
C43   C     C_R   0.000465 0.501148 0.231734 -0.058674
C44   C     C_R   0.096805 0.493578 0.202272 -0.226562
C45   C     C_R   0.097207 0.494278 0.109963 0.089138
C46   C     C_R   0.000405 0.503974 0.045870 0.058986
Cu1   Cu    Cu3+1 0.098270 0.475420 0.521130 0.938472
Cu2   Cu    Cu3+1 0.901730 0.524580 0.478870 0.922443
H1    H     H_    0.829285 0.512477 0.193900 0.141814
H2    H     H_    0.456666 0.218392 0.321390 0.146246
H3    H     H_    0.244201 0.079681 0.328923 0.137315
H4    H     H_    0.375221 0.808349 0.551598 0.148811
H5    H     H_    0.909807 0.113218 0.598580 0.153063
H6    H     H_    0.558278 0.842043 0.569508 0.131665
H7    H     H_    0.771347 0.910285 0.626541 0.145592
H8    H     H_    0.670727 0.276472 0.370746 0.175034
H9    H     H_    0.170539 0.310591 0.663610 0.125251
H10   H     H_    0.548710 0.296391 0.676253 0.156323
H11   H     H_    0.348044 0.263860 0.704111 0.144503
H12   H     H_    0.171640 0.486861 0.251231 0.150086
H13   H     H_    0.333112 0.561416 0.446166 0.122981
H14   H     H_    0.839107 0.686512 0.339153 0.124619
H15   H     H_    0.485639 0.648196 0.371365 0.146421
H16   H     H_    0.719290 0.391938 0.594091 0.206261
H17   H     H_    0.267539 0.478533 0.131215 0.140025
H18   H     H_    0.169439 0.483790 0.808403 0.185086
H19   H     H_    0.829572 0.516784 0.747662 0.158850
H20   H     H_    0.735986 0.529986 0.866227 0.183865
H21   H     H_    0.094019 0.886405 0.379627 0.150439
N1    N     N_R   0.246280 0.438190 0.553160 -0.182378
N2    N     N_R   0.754320 0.561190 0.447410 -0.219095
O1    O     O_R   0.972510 0.318130 0.526570 -0.578704
O2    O     O_R   0.806530 0.359650 0.490890 -0.604853
O3    O     O_R   0.082980 0.479210 0.647590 -0.586477
O4    O     O_R   0.917000 0.520730 0.611900 -0.599950
O5    O     O_R   0.193470 0.640350 0.509110 -0.586461
O6    O     O_R   0.027490 0.681870 0.473430 -0.583309
O7    O     O_R   0.083000 0.479270 0.388100 -0.587187
O8    O     O_R   0.917020 0.520790 0.352410 -0.599671
N3    N     N_3   0.665496 0.763910 0.271151 -0.583008
H22   H     H_    0.749060 0.798396 0.244384 0.204907
H23   H     H_    0.597744 0.725185 0.219647 0.217746
N4    N     N_3   0.295160 0.475924 0.960454 -0.573719
H24   H     H_    0.347814 0.555905 0.925410 0.232151
H25   H     H_    0.352325 0.459394 0.017259 0.247334
C47   C     C_2   0.705292 0.541958 0.033342 0.342450
H26   H     H_    0.713137 0.572945 0.096192 0.054078
O9    O     O_2   0.610738 0.523549 0.981565 -0.559586

loop_
_geom_bond_atom_site_label_1
_geom_bond_atom_site_label_2
_ccdc_geom_bond_type
C16   C28   A    
C21   C26   A    
C12   O3    A    
C19   C20   A    
C25   H8    S    
C23   O5    A    
C30   N2    A    
C7    C8    A    
C45   C46   A    
C2    C46   A    
C39   H16   S    
C40   N1    A    
Cu2   O8    S    
C36   C37   A    
C19   C21   A    
C44   H12   S    
Cu1   O5    S    
C5    C6    A    
C34   O8    A    
C47   O9    D    
C20   C25   A    
C33   C36   A    
C18   C19   A    
C16   H5    S    
C38   H10   S    
N4    H24   S    
C8    C9    A    
C1    C28   S    
C14   C27   A    
C17   H7    S    
C27   H21   S    
C15   C23   S    
C35   N2    A    
C21   C22   A    
Cu2   O4    S    
C3    H17   S    
C10   H18   S    
C24   H2    S    
C38   C39   A    
C1    O1    A    
Cu1   Cu2   S    
C29   H11   S    
C36   C40   A    
C24   C25   A    
Cu1   O3    S    
N3    H23   S    
C47   H26   S    
C16   C17   A    
C15   C26   A    
C20   C28   A    
C3    C45   A    
C40   H13   S    
Cu2   O6    S    
C35   C39   A    
C43   C44   A    
Cu1   N1    S    
C37   C38   A    
C26   H4    S    
C9    C47   S    
C15   C27   A    
C14   H3    S    
C7    C13   A    
C17   C18   A    
C23   O6    A    
N4    H25   S    
C8    H20   S    
C30   H14   S    
C22   C24   A    
C42   C43   A    
Cu2   N2    S    
C3    C4    A    
C44   C45   A    
C13   H19   S    
C6    C46   A    
C29   C41   A    
Cu2   O2    S    
C31   C32   A    
C34   C43   S    
C32   H15   S    
N3    H22   S    
C11   C12   S    
C6    C7    A    
C31   N3    S    
C1    O2    A    
C32   C33   A    
C14   C22   A    
C41   H9    S    
C5    C10   A    
C34   O7    A    
C11   C13   A    
C30   C31   A    
C4    N4    S    
C2    C42   A    
C33   C35   A    
Cu1   O1    S    
C10   C11   A    
C18   H6    S    
C42   H1    S    
C4    C5    A    
C12   O4    A    
C29   C37   A    
Cu1   O7    S    
C2    C9    A    
C41   N1    A    
