data_mof_unit_54185.cif
_audit_creation_date              2013-03-05T15:49:03-0500
_audit_creation_method            fapswitch 2.2
_symmetry_space_group_name_H-M    P1
_symmetry_Int_Tables_number       1
_space_group_crystal_system       triclinic
_cell_length_a                    18.156362
_cell_length_b                    18.11138
_cell_length_c                    12.052953
_cell_angle_alpha                 89.999701
_cell_angle_beta                  84.271879
_cell_angle_gamma                 89.996589
_cell_volume                      3943.66344434

loop_
_atom_site_label
_atom_site_type_symbol
_atom_site_description
_atom_site_fract_x
_atom_site_fract_y
_atom_site_fract_z
_atom_type_partial_charge
O1    O     O_R   0.418020 0.076820 0.422210 -0.626231
O2    O     O_R   0.581980 0.923180 0.577790 -0.618863
O3    O     O_R   0.581980 0.076820 0.577790 -0.626132
O4    O     O_R   0.418020 0.923180 0.422210 -0.618882
O5    O     O_R   0.918020 0.576820 0.422210 -0.626221
O6    O     O_R   0.081980 0.423180 0.577790 -0.618875
O7    O     O_R   0.081980 0.576820 0.577790 -0.626107
O8    O     O_R   0.918020 0.423180 0.422210 -0.618890
O9    O     O_R   0.430370 0.076830 0.608590 -0.555906
O10   O     O_R   0.569630 0.923170 0.391410 -0.564280
O11   O     O_R   0.569630 0.076830 0.391410 -0.556049
O12   O     O_R   0.430370 0.923170 0.608590 -0.564312
O13   O     O_R   0.930370 0.576830 0.608590 -0.555933
O14   O     O_R   0.069630 0.423170 0.391410 -0.564297
O15   O     O_R   0.069630 0.576830 0.391410 -0.556073
O16   O     O_R   0.930370 0.423170 0.608590 -0.564321
C1    C     C_R   0.401991 0.102149 0.522039 0.948681
C2    C     C_R   0.597926 0.897771 0.477979 0.947205
C3    C     C_R   0.598027 0.102135 0.477954 0.948683
C4    C     C_R   0.402072 0.897771 0.522021 0.947397
C5    C     C_R   0.901994 0.602152 0.522038 0.948679
C6    C     C_R   0.097927 0.397772 0.477979 0.947213
C7    C     C_R   0.098030 0.602132 0.477953 0.948707
C8    C     C_R   0.902070 0.397773 0.522021 0.947385
C9    C     C_R   0.587844 0.006391 0.823775 -0.079297
C10   C     C_R   0.412162 0.006441 0.176220 -0.079342
C11   C     C_R   0.087843 0.506385 0.823776 -0.079288
C12   C     C_R   0.912159 0.506406 0.176223 -0.079309
Zn1   Zn    Zn3+2 0.491750 0.000000 0.375560 1.083308
Zn2   Zn    Zn3+2 0.508250 0.000000 0.624440 1.083318
Zn3   Zn    Zn3+2 0.991750 0.500000 0.375560 1.083300
Zn4   Zn    Zn3+2 0.008250 0.500000 0.624440 1.083296
C13   C     C_R   0.598359 0.007382 0.937058 0.273785
C14   C     C_R   0.401656 0.007483 0.062935 0.273823
C15   C     C_R   0.098356 0.507384 0.937058 0.273784
C16   C     C_R   0.901650 0.507431 0.062940 0.273802
H1    H     H_    0.365173 0.011638 0.238453 0.165392
H2    H     H_    0.634837 0.011547 0.761542 0.165247
H3    H     H_    0.865167 0.511576 0.238455 0.165340
H4    H     H_    0.134837 0.511537 0.761544 0.165232
C17   C     C_R   0.457593 0.996029 0.865467 0.442826
C18   C     C_R   0.542413 0.996031 0.134548 0.442892
C19   C     C_R   0.957590 0.496037 0.865461 0.442754
C20   C     C_R   0.042413 0.496045 0.134548 0.442890
C21   C     C_R   0.649988 0.161767 0.464903 -0.135289
C22   C     C_R   0.350413 0.837854 0.534915 -0.137658
C23   C     C_R   0.350067 0.161812 0.535081 -0.135321
C24   C     C_R   0.649584 0.837855 0.465079 -0.137537
C25   C     C_R   0.149998 0.661757 0.464894 -0.135259
C26   C     C_R   0.850406 0.337862 0.534918 -0.137635
C27   C     C_R   0.850077 0.661822 0.535077 -0.135299
C28   C     C_R   0.149584 0.337855 0.465080 -0.137534
C29   C     C_R   0.307484 0.721064 0.612084 -0.193785
C30   C     C_R   0.693261 0.278266 0.387140 -0.191305
C31   C     C_R   0.692302 0.720885 0.388332 -0.193806
C32   C     C_R   0.307026 0.278508 0.612404 -0.191210
C33   C     C_R   0.807478 0.221072 0.612088 -0.193804
C34   C     C_R   0.193283 0.778246 0.387108 -0.191319
C35   C     C_R   0.192317 0.220897 0.388299 -0.193802
C36   C     C_R   0.807058 0.778537 0.612348 -0.191205
C37   C     C_R   0.357767 0.779093 0.610166 0.328782
C38   C     C_R   0.643203 0.220085 0.388785 0.323074
C39   C     C_R   0.642063 0.778954 0.390147 0.328793
C40   C     C_R   0.357073 0.220310 0.610815 0.322865
C41   C     C_R   0.857769 0.279095 0.610154 0.328839
C42   C     C_R   0.143220 0.720070 0.388763 0.323100
C43   C     C_R   0.142077 0.278965 0.390121 0.328815
C44   C     C_R   0.857105 0.720337 0.610767 0.322893
C45   C     C_R   0.294751 0.837957 0.463167 -0.226456
C46   C     C_R   0.705484 0.161747 0.536919 -0.227257
C47   C     C_R   0.705404 0.838097 0.536543 -0.226666
C48   C     C_R   0.294405 0.161653 0.463359 -0.227425
C49   C     C_R   0.794733 0.337974 0.463190 -0.226505
C50   C     C_R   0.205495 0.661734 0.536907 -0.227268
C51   C     C_R   0.205391 0.338084 0.536571 -0.226660
C52   C     C_R   0.794400 0.661651 0.463382 -0.227465
C53   C     C_R   0.247090 0.779095 0.462250 0.116073
C54   C     C_R   0.753355 0.220468 0.537484 0.116612
C55   C     C_R   0.753055 0.779222 0.537528 0.116088
C56   C     C_R   0.246570 0.220405 0.462691 0.116717
C57   C     C_R   0.747070 0.279113 0.462277 0.116079
C58   C     C_R   0.253369 0.720453 0.537467 0.116618
C59   C     C_R   0.253041 0.279208 0.537553 0.116099
C60   C     C_R   0.746569 0.720404 0.462702 0.116735
N1    N     N_R   0.480750 0.000000 0.209750 -0.169848
N2    N     N_R   0.519250 0.000000 0.790250 -0.169825
N3    N     N_R   0.980750 0.500000 0.209750 -0.169844
N4    N     N_R   0.019250 0.500000 0.790250 -0.169830
H5    H     H_    0.710653 0.116174 0.594224 0.168424
H6    H     H_    0.289365 0.883665 0.406179 0.172513
H7    H     H_    0.289097 0.115954 0.406334 0.168312
H8    H     H_    0.710913 0.883925 0.593263 0.172322
H9    H     H_    0.210660 0.616163 0.594220 0.168419
H10   H     H_    0.789346 0.383686 0.406210 0.172495
H11   H     H_    0.789079 0.615940 0.406385 0.168294
H12   H     H_    0.210891 0.383903 0.593314 0.172330
H13   H     H_    0.812426 0.175135 0.668593 0.194201
H14   H     H_    0.188530 0.823947 0.330103 0.195563
H15   H     H_    0.187245 0.174855 0.332036 0.194180
H16   H     H_    0.811983 0.824393 0.669001 0.195656
H17   H     H_    0.312425 0.675131 0.668598 0.194205
H18   H     H_    0.688505 0.323969 0.330143 0.195574
H19   H     H_    0.687219 0.674833 0.332094 0.194162
H20   H     H_    0.311938 0.324351 0.669090 0.195634
C61   C     C_R   0.464063 0.002352 0.981780 -0.188824
C62   C     C_R   0.535954 0.002326 0.018226 -0.188857
C63   C     C_R   0.964057 0.502337 0.981779 -0.188865
C64   C     C_R   0.035951 0.502326 0.018225 -0.188841
N5    N     N_R   0.611571 0.975777 0.173351 0.227333
O17   O     O_R   0.650899 0.024240 0.220720 -0.312640
O18   O     O_R   0.639478 0.910910 0.149219 -0.306903
N6    N     N_R   0.388446 0.975675 0.826716 0.227339
O19   O     O_R   0.349145 0.024019 0.779031 -0.312778
O20   O     O_R   0.360490 0.910883 0.851286 -0.306750
N7    N     N_R   0.111577 0.475819 0.173358 0.227321
O21   O     O_R   0.150903 0.524310 0.220672 -0.312628
O22   O     O_R   0.139493 0.410949 0.149274 -0.306904
N8    N     N_R   0.888435 0.475748 0.826683 0.227344
O23   O     O_R   0.849125 0.524159 0.779169 -0.312770
O24   O     O_R   0.860491 0.410928 0.851032 -0.306756
N9    N     N_R   0.584017 0.223436 0.318275 0.228345
O25   O     O_R   0.596971 0.247150 0.216238 -0.289784
O26   O     O_R   0.515747 0.215734 0.360989 -0.358039
N10   N     N_R   0.417833 0.774933 0.679053 0.234310
O27   O     O_R   0.406588 0.747538 0.779118 -0.282240
O28   O     O_R   0.485571 0.784998 0.635502 -0.358379
N11   N     N_R   0.416480 0.223838 0.680909 0.228324
O29   O     O_R   0.403915 0.248268 0.782599 -0.290096
O30   O     O_R   0.484628 0.215650 0.637927 -0.358634
N12   N     N_R   0.581883 0.774710 0.321483 0.234261
O31   O     O_R   0.592956 0.747087 0.221542 -0.282423
O32   O     O_R   0.514204 0.784960 0.365173 -0.358745
N13   N     N_R   0.084035 0.723423 0.318251 0.228341
O33   O     O_R   0.096999 0.747096 0.216186 -0.289759
O34   O     O_R   0.015760 0.715751 0.360975 -0.358013
N14   N     N_R   0.917864 0.274913 0.678983 0.234308
O35   O     O_R   0.906653 0.247517 0.779056 -0.282257
O36   O     O_R   0.985591 0.284966 0.635370 -0.358423
N15   N     N_R   0.916532 0.723884 0.680821 0.228357
O37   O     O_R   0.904014 0.748428 0.782433 -0.290201
O38   O     O_R   0.984662 0.715619 0.637835 -0.358652
N16   N     N_R   0.081907 0.274731 0.321437 0.234272
O39   O     O_R   0.092995 0.247131 0.221484 -0.282419
O40   O     O_R   0.014222 0.284964 0.365115 -0.358671
N17   N     N_R   0.671546 0.021278 0.966525 0.241014
O41   O     O_R   0.726431 0.981283 0.922591 -0.310666
O42   O     O_R   0.685647 0.083971 0.012647 -0.272533
N18   N     N_R   0.328500 0.021559 0.033448 0.241127
O43   O     O_R   0.273455 0.981903 0.077752 -0.311009
O44   O     O_R   0.314639 0.084162 0.986829 -0.272789
N19   N     N_R   0.171542 0.521285 0.966523 0.241007
O45   O     O_R   0.226422 0.481266 0.922632 -0.310650
O46   O     O_R   0.185650 0.583997 0.012579 -0.272509
N20   N     N_R   0.828478 0.521423 0.033465 0.241118
O47   O     O_R   0.773516 0.481602 0.077583 -0.310862
O48   O     O_R   0.814493 0.584072 0.987112 -0.272835

loop_
_geom_bond_atom_site_label_1
_geom_bond_atom_site_label_2
_geom_bond_distance
_ccdc_geom_bond_type
O6    Zn4   1.973191 S    
C36   C55   1.396872 A    
C46   C54   1.373991 A    
C35   H15   1.084527 S    
O13   Zn4   2.006461 S    
C45   C53   1.373863 A    
C34   H14   1.084647 S    
O14   Zn3   2.006463 S    
C28   C51   1.394075 A    
C52   C60   1.374008 A    
C47   C55   1.373906 A    
N17   O41   1.301062 A    
C16   N20   1.431649 S    
C17   N2    1.370290 A    
O11   C3    1.292808 A    
C17   C61   1.423088 A    
C37   N10   1.437065 S    
C19   N4    1.370273 A    
N10   O28   1.300980 A    
C18   N5    1.430779 S    
N18   O44   1.301068 A    
N5    O18   1.300795 A    
C52   H11   1.086246 S    
C55   C60   1.408278 A    
C7    C25   1.432376 S    
O2    C2    1.293565 A    
N7    O21   1.299123 A    
Zn4   N4    2.028194 S    
C31   H19   1.084506 S    
C21   C38   1.412453 A    
C39   N12   1.437090 S    
N8    O23   1.299107 A    
C22   C45   1.394151 A    
C15   C64   1.424087 A    
C34   C53   1.396966 A    
C35   C43   1.390863 A    
C29   C37   1.390869 A    
C34   C42   1.390420 A    
C47   H8    1.086263 S    
C20   N7    1.430777 S    
C29   H17   1.084564 S    
N7    O22   1.300796 A    
C17   N6    1.430851 S    
C31   C39   1.390864 A    
C14   N18   1.431689 S    
N19   O45   1.301056 A    
C32   C40   1.390505 A    
O3    C3    1.293479 A    
Zn2   N2    2.028194 S    
C20   N3    1.370247 A    
Zn1   N1    2.028194 S    
O4    Zn1   1.973300 S    
O15   C7    1.292798 A    
O16   C8    1.292807 A    
C16   C63   1.424099 A    
C14   C61   1.424089 A    
C50   H9    1.086320 S    
C15   N19   1.431579 S    
C49   H10   1.086302 S    
C50   C58   1.373993 A    
C56   C59   1.408320 A    
C49   C57   1.373870 A    
N6    O19   1.299197 A    
N17   O42   1.300874 A    
C10   C14   1.397538 A    
C51   H12   1.086281 S    
C20   C64   1.423111 A    
C8    C26   1.432640 S    
Zn3   N3    2.028194 S    
C25   C42   1.412470 A    
C22   C37   1.413236 A    
C38   N9    1.436305 S    
C12   C16   1.397515 A    
N18   O43   1.301309 A    
C32   H20   1.084580 S    
N14   O36   1.300988 A    
C26   C49   1.394138 A    
C23   C40   1.412471 A    
C48   H7    1.086276 S    
C24   C39   1.413154 A    
C30   C38   1.390436 A    
C12   H3    1.082408 S    
C11   C15   1.397519 A    
C29   C58   1.396683 A    
O3    Zn2   1.973298 S    
N12   O32   1.300980 A    
N11   O30   1.301292 A    
C9    H2    1.082405 S    
C42   N13   1.436316 S    
C11   H4    1.082407 S    
C63   C64   1.418208 A    
C40   N11   1.436390 S    
C33   H13   1.084566 S    
O12   C4    1.292805 A    
C12   N3    1.352084 A    
O1    Zn1   1.973190 S    
N20   O47   1.301106 A    
O13   C5    1.292782 A    
C18   N1    1.370263 A    
C19   C63   1.423101 A    
C27   C52   1.393909 A    
C18   C62   1.423108 A    
O11   Zn1   2.006579 S    
N9    O25   1.301758 A    
C28   C43   1.413172 A    
C13   N17   1.431591 S    
O9    Zn2   2.006461 S    
N6    O20   1.300932 A    
O9    C1    1.292780 A    
N13   O33   1.301840 A    
N16   O40   1.300980 A    
C46   H5    1.086307 S    
C24   C47   1.394050 A    
N11   O29   1.301628 A    
C5    C27   1.432300 S    
C32   C59   1.396903 A    
C6    C28   1.432558 S    
O7    Zn4   1.973298 S    
O12   Zn2   2.006581 S    
C21   C46   1.394026 A    
C25   C50   1.394029 A    
O8    Zn3   1.973300 S    
N20   O48   1.300900 A    
C33   C54   1.396688 A    
C30   H18   1.084628 S    
C13   C62   1.424087 A    
C1    C23   1.432293 S    
C33   C41   1.390855 A    
N14   O35   1.301338 A    
C36   H16   1.084542 S    
C2    C24   1.432557 S    
C35   C56   1.396663 A    
N15   O37   1.301391 A    
C3    C21   1.432384 S    
C10   H1    1.082406 S    
O15   Zn3   2.006579 S    
O16   Zn4   2.006581 S    
C61   C62   1.418167 A    
O1    C1    1.293452 A    
O2    Zn2   1.973191 S    
O14   C6    1.292767 A    
N12   O31   1.301293 A    
C48   C56   1.374009 A    
N5    O17   1.299122 A    
N15   O38   1.301171 A    
C54   C57   1.408359 A    
C51   C59   1.373899 A    
C53   C58   1.408367 A    
O10   C2    1.292765 A    
C10   N1    1.352094 A    
O7    C7    1.293485 A    
C9    N2    1.352109 A    
O8    C8    1.293570 A    
C27   C44   1.412444 A    
N19   O46   1.300870 A    
C11   N4    1.352094 A    
C26   C41   1.413219 A    
N8    O24   1.300809 A    
C23   C48   1.393932 A    
N9    O26   1.301386 A    
C41   N14   1.437060 S    
C19   N8    1.430815 S    
O4    C4    1.293580 A    
O10   Zn1   2.006463 S    
O5    C5    1.293452 A    
C36   C44   1.390519 A    
N13   O34   1.301437 A    
N16   O39   1.301287 A    
C44   N15   1.436367 S    
C31   C60   1.396654 A    
C43   N16   1.437089 S    
C30   C57   1.396954 A    
C4    C22   1.432655 S    
C45   H6    1.086309 S    
C9    C13   1.397541 A    
N10   O27   1.301288 A    
O5    Zn3   1.973190 S    
O6    C6    1.293565 A    
