data_mof_unit_53851.cif
_audit_creation_date              2012-12-11T14:52:33-0500
_audit_creation_method            fapswitch 2.2
_symmetry_space_group_name_H-M    P1
_symmetry_Int_Tables_number       1
_space_group_crystal_system       triclinic
_cell_length_a                    8.318483
_cell_length_b                    15.232785
_cell_length_c                    27.155795
_cell_angle_alpha                 97.582855
_cell_angle_beta                  92.045996
_cell_angle_gamma                 80.282142
_cell_volume                      3361.65776919

loop_
_atom_site_label
_atom_site_type_symbol
_atom_type_description
_atom_site_fract_x
_atom_site_fract_y
_atom_site_fract_z
_atom_type_partial_charge
Ba1   Ba    Ba6+2 0.860900 0.457020 0.523210 1.687318
Ba2   Ba    Ba6+2 0.328940 0.542910 0.476780 1.682588
C1    C     C_3   0.740765 0.144810 0.667612 -0.037977
C2    C     C_3   0.661732 0.233483 0.648456 0.668425
C3    C     C_3   0.462860 0.686920 0.629467 0.687225
C4    C     C_3   0.397758 0.731514 0.679974 -0.245962
C5    C     C_3   0.037979 0.737615 0.340894 0.263906
C6    C     C_3   0.083874 0.756782 0.289319 0.288206
C7    C     C_3   0.515361 0.768949 0.364316 0.327113
C8    C     C_3   0.500921 0.859142 0.344828 -0.386236
C9    C     C_R   0.984324 0.408606 0.171523 0.638525
C10   C     C_R   0.876539 0.565510 0.177801 0.662576
C11   C     C_2   0.730634 0.508741 0.269469 0.392261
C12   C     C_3   0.111119 0.261426 0.651793 0.351005
C13   C     C_3   0.697437 0.513679 0.324873 -0.155306
C14   C     C_1   0.990248 0.480268 0.340295 0.064936
C15   C     C_2   0.024980 0.470359 0.291226 -0.090634
C16   C     C_2   0.886928 0.489762 0.253332 0.196133
C17   C     C_R   0.003086 0.489375 0.100270 -0.143552
C18   C     C_R   0.036877 0.408737 0.122092 -0.054927
C19   C     C_R   0.123183 0.330841 0.094185 0.435698
C20   C     C_R   0.916195 0.566924 0.127750 -0.016343
C21   C     C_2   0.848749 0.526566 0.355758 -0.347645
C22   C     C_2   0.334304 0.474855 0.644448 -0.291617
C23   C     C_3   0.114023 0.237156 0.705126 -0.242332
C24   C     C_R   0.165780 0.414882 0.970815 0.041575
C25   C     C_R   0.083608 0.580027 0.981841 0.018302
C26   C     C_R   0.144650 0.498446 0.951215 0.033719
C27   C     C_R   0.221005 0.335580 0.938355 -0.097587
C28   C     C_R   0.258769 0.338229 0.889093 -0.067203
C29   C     C_R   0.242841 0.419942 0.869616 -0.021616
C30   C     C_R   0.186731 0.500276 0.900676 -0.083701
C31   C     C_R   0.175999 0.582389 0.881405 -0.052767
C32   C     C_R   0.216854 0.583063 0.831107 0.589163
C33   C     C_R   0.281863 0.422686 0.819586 0.578510
C34   C     C_3   0.223252 0.253332 0.400238 0.978215
C35   C     C_2   0.446623 0.475004 0.730293 -0.092675
C36   C     C_3   0.483036 0.481174 0.676982 0.038815
C37   C     C_1   0.195690 0.523417 0.660893 0.040705
C38   C     C_2   0.160191 0.534768 0.709956 -0.033662
C39   C     C_2   0.293277 0.504123 0.747244 0.223738
C40   C     C_R   0.130159 0.413041 0.021816 -0.017053
C41   C     C_R   0.052027 0.492338 0.050497 0.049850
C42   C     C_R   0.019148 0.574512 0.029503 0.036843
C43   C     C_R   0.168827 0.334024 0.045063 -0.153752
C44   C     C_R   0.867017 0.643961 0.104218 -0.041018
C45   C     C_3   0.225357 0.152931 0.379387 -0.017596
C46   C     C_R   0.093413 0.662967 0.963313 0.045869
C47   C     C_R   0.131764 0.662556 0.913300 -0.057911
C48   C     C_R   0.913053 0.646497 0.055701 -0.107825
C49   C     C_R   0.742024 0.767764 0.477498 0.104809
C50   C     C_R   0.826741 0.825049 0.457046 0.014942
C51   C     C_R   0.754537 0.915660 0.456186 -0.063895
C52   C     C_R   0.623396 0.955068 0.489422 0.040522
C53   C     C_R   0.563259 0.896488 0.519426 -0.065823
C54   C     C_R   0.611243 0.802211 0.508800 0.022048
C55   C     C_R   0.390629 0.087563 0.507584 -0.163092
C56   C     C_3   0.968335 0.730682 0.582661 0.300697
C57   C     C_R   0.340904 0.178492 0.524952 0.104075
C58   C     C_R   0.586661 0.212323 0.493716 0.099617
C59   C     C_R   0.653078 0.120661 0.487872 -0.157538
C60   C     C_R   0.555434 0.055198 0.494605 0.011050
C61   C     C_R   0.440381 0.240598 0.518158 -0.189099
C62   C     C_3   0.947527 0.832061 0.595097 -0.388762
C63   C     C_3   0.711048 0.334415 0.372987 0.286923
C64   C     C_3   0.718417 0.304383 0.316981 -0.404810
H1    H     H_    0.705528 0.230545 0.609931 0.024570
H2    H     H_    0.305116 0.111257 0.404244 0.080414
H3    H     H_    0.847927 0.711663 0.572977 0.005186
H4    H     H_    0.052978 0.710248 0.550967 0.062232
H5    H     H_    0.859290 0.853790 0.625815 0.122337
H6    H     H_    0.900901 0.865112 0.562208 0.052848
H7    H     H_    0.066660 0.852624 0.606865 0.117898
H8    H     H_    0.827025 0.355530 0.386381 0.044447
H9    H     H_    0.609717 0.391849 0.380759 0.048002
H10   H     H_    0.873926 0.136689 0.661883 0.086095
H11   H     H_    0.750252 0.230204 0.308585 0.147626
H12   H     H_    0.812726 0.333744 0.299991 0.098470
H13   H     H_    0.598081 0.325709 0.299322 0.083929
H14   H     H_    0.359704 0.660277 0.608417 -0.054316
H15   H     H_    0.297570 0.788363 0.675218 0.065204
H16   H     H_    0.349530 0.682138 0.699534 0.063975
H17   H     H_    0.496805 0.757620 0.703129 0.115274
H18   H     H_    0.170464 0.287601 0.729827 0.144787
H19   H     H_    0.103769 0.670588 0.347311 0.105292
H20   H     H_    0.904865 0.736337 0.342283 -0.059039
H21   H     H_    0.191382 0.791117 0.293516 0.137975
H22   H     H_    0.635614 0.755246 0.383060 -0.002101
H23   H     H_    0.415474 0.773704 0.391176 0.087891
H24   H     H_    0.499812 0.913506 0.376464 0.078824
H25   H     H_    0.385839 0.873326 0.323329 0.126065
H26   H     H_    0.986831 0.294637 0.643082 0.075487
H27   H     H_    0.605424 0.859176 0.320523 0.117929
H28   H     H_    0.545416 0.454449 0.755710 0.100025
H29   H     H_    0.300042 0.275211 0.866053 0.115689
H30   H     H_    0.232324 0.269508 0.949475 0.070721
H31   H     H_    0.239049 0.273565 0.026166 0.058524
H32   H     H_    0.790320 0.702681 0.123095 0.119276
H33   H     H_    0.194474 0.310788 0.650359 0.032294
H34   H     H_    0.132443 0.726378 0.899689 0.122760
H35   H     H_    0.858980 0.704797 0.038642 0.080164
H36   H     H_    0.838793 0.564923 0.392243 0.147664
H37   H     H_    0.335964 0.422297 0.613248 0.073963
H38   H     H_    0.304413 0.041882 0.508149 0.090689
H39   H     H_    0.778824 0.102171 0.477278 0.102187
H40   H     H_    0.398256 0.311648 0.528346 0.040861
H41   H     H_    0.987926 0.243211 0.718533 0.112645
N1    N     N_R   0.918943 0.487976 0.200239 -0.421797
N2    N     N_R   0.259986 0.503398 0.799867 -0.421066
O1    O     O_2   0.905540 0.548000 0.618290 -0.419797
O2    O     O_3   0.686110 0.261803 0.396390 -0.608653
O3    O     O_3   0.155796 0.185380 0.616728 -0.607670
O4    O     O_2   0.284150 0.451970 0.381680 -0.481987
O5    O     O_3   0.052160 0.451990 0.441880 -0.472787
O6    O     O_3   0.501140 0.616030 0.412450 -0.445005
O7    O     O_3   0.129319 0.308925 0.369215 -0.677598
O8    O     O_3   0.615020 0.608480 0.525380 -0.451865
O9    O     O_3   0.085020 0.662210 0.437090 -0.461416
O10   O     O_2   0.160292 0.821901 0.471144 -0.485865
O11   O     O_3   0.083775 0.803497 0.377227 -0.637410
O12   O     O_3   0.137550 0.547930 0.558110 -0.504096
O13   O     O_3   0.574690 0.391440 0.474610 -0.480355
O14   O     O_2   0.341330 0.720570 0.525000 -0.470510
O15   O     O_3   0.521600 0.751353 0.606051 -0.657831
O16   O     O_2   0.356103 0.567058 0.328876 -0.488297
O17   O     O_3   0.503824 0.701284 0.324600 -0.563257
O18   O     O_2   0.994571 0.337794 0.188788 -0.532948
O19   O     O_2   0.337298 0.353042 0.793749 -0.628946
O20   O     O_2   0.803640 0.633578 0.201415 -0.576964
O21   O     O_2   0.216498 0.654664 0.815426 -0.605893
O22   O     O_3   0.688580 0.383890 0.587540 -0.500938
O23   O     O_2   0.818564 0.448008 0.672029 -0.480036
O24   O     O_3   0.029425 0.691918 0.624727 -0.633904
O25   O     O_3   0.711538 0.305403 0.679751 -0.651577
O26   O     O_2   0.848360 0.279400 0.474970 -0.422700
O27   O     O_3   0.104690 0.337720 0.562900 -0.499764
O28   O     O_2   0.004192 0.180366 0.531193 -0.487979
P1    P     P_3+3 0.070480 0.574800 0.610950 0.987555
P2    P     P_3+3 0.668430 0.292880 0.460530 1.054555
P3    P     P_3+3 0.148544 0.219954 0.557547 0.992087
P4    P     P_3+3 0.119230 0.425130 0.389040 1.003197
P5    P     P_3+3 0.037605 0.778695 0.435624 0.959728
P6    P     P_3+3 0.669973 0.404726 0.652570 0.955823
P7    P     P_3+3 0.524336 0.721584 0.541471 0.975682
P8    P     P_3+3 0.516832 0.598113 0.347855 1.007146
C65   C     C_3   0.296981 0.128800 0.326933 -0.439771
H42   H     H_    0.228988 0.172360 0.300750 0.152796
H43   H     H_    0.427681 0.135979 0.327561 0.126089
H44   H     H_    0.290453 0.057610 0.312746 0.131130
C66   C     C_3   0.055704 0.126181 0.379437 -0.358436
H45   H     H_    0.005691 0.138306 0.417531 0.158743
H46   H     H_    0.970873 0.164458 0.354627 0.145261
H47   H     H_    0.063814 0.053525 0.366218 0.099334
O29   O     O_3   0.491208 0.242214 0.647301 -0.789369
H48   H     H_    0.453995 0.260971 0.682072 0.306192
C67   C     C_3   0.682812 0.064113 0.637519 -0.420509
H49   H     H_    0.702750 0.063796 0.597278 0.120473
H50   H     H_    0.751949 0.001442 0.649230 0.117807
H51   H     H_    0.551783 0.065987 0.644393 0.153236
O30   O     O_3   0.592415 0.618211 0.636755 -0.733417
H52   H     H_    0.588512 0.570124 0.608371 0.296317
C68   C     C_3   0.712897 0.144282 0.723338 -0.356955
H53   H     H_    0.582038 0.147061 0.731070 0.130197
H54   H     H_    0.782641 0.081968 0.735716 0.107697
H55   H     H_    0.755233 0.202187 0.746147 0.146613
O31   O     O_3   0.128470 0.677205 0.257065 -0.688751
H56   H     H_    0.044103 0.639471 0.259400 0.310282
C69   C     C_3   0.946123 0.818430 0.266121 -0.376769
H57   H     H_    0.917949 0.883665 0.290266 0.078086
H58   H     H_    0.983526 0.831094 0.229222 0.149990
H59   H     H_    0.834646 0.787130 0.261225 0.161326
C70   C     C_3   0.185589 0.417533 0.271330 -0.272976
H60   H     H_    0.290417 0.422533 0.296526 0.127774
H61   H     H_    0.176046 0.345251 0.263725 0.142810
H62   H     H_    0.218135 0.442179 0.236986 0.118079
O32   O     O_3   0.165536 0.252254 0.115684 -0.671666
H63   H     H_    0.228085 0.204901 0.091785 0.297185
O33   O     O_3   0.605727 0.513422 0.234470 -0.680602
H64   H     H_    0.503638 0.509367 0.250883 0.315510
C71   C     C_3   0.087600 0.752558 0.995887 -0.409463
H65   H     H_    0.175745 0.792085 0.982913 0.119768
H66   H     H_    0.963207 0.793343 0.993917 0.116697
H67   H     H_    0.124978 0.743591 0.034817 0.133767
C72   C     C_3   0.007218 0.595428 0.730014 -0.279719
H68   H     H_    0.968201 0.573015 0.764257 0.102748
H69   H     H_    0.031046 0.665405 0.738208 0.138508
H70   H     H_    0.901997 0.596019 0.704248 0.170298
C73   C     C_3   0.806661 0.962156 0.415142 -0.386551
H71   H     H_    0.821074 0.915207 0.380247 0.122311
H72   H     H_    0.713261 0.018583 0.405743 0.112710
H73   H     H_    0.925050 0.984325 0.425008 0.127382
C74   C     C_3   0.461177 0.930150 0.565347 -0.379417
H74   H     H_    0.442755 0.002831 0.576332 0.113751
H75   H     H_    0.340198 0.908400 0.560602 0.135994
H76   H     H_    0.526235 0.904026 0.597953 0.131089
O34   O     O_3   0.785170 0.676855 0.465294 -0.730607
H77   H     H_    0.856595 0.655216 0.492556 0.294832
C75   C     C_3   0.205875 0.143305 0.711398 -0.340942
H78   H     H_    0.330166 0.133456 0.696090 0.152865
H79   H     H_    0.215820 0.135207 0.751520 0.115079
H80   H     H_    0.140011 0.090693 0.691952 0.136545
O35   O     O_3   0.382168 0.270207 0.402140 -0.781330
H81   H     H_    0.408880 0.279455 0.368038 0.286783
O36   O     O_3   0.156950 0.268300 0.447853 -0.729110
H82   H     H_    0.200787 0.319188 0.466863 0.304692

loop_
_geom_bond_atom_site_label_1
_geom_bond_atom_site_label_2
_ccdc_geom_bond_type
C25   C46   A    
C2    O29   S    
C53   C54   A    
C38   C39   S    
C5    C6    S    
C4    H16   S    
C36   P6    S    
O3    P3    S    
C9    O18   D    
C17   C18   A    
O27   P3    S    
O33   H64   S    
Ba2   O9    S    
C15   C70   S    
O2    P2    S    
C55   C60   A    
C5    H19   S    
Ba2   O14   S    
C70   H60   S    
O26   P2    D    
C64   H13   S    
C3    O15   S    
C24   C40   A    
C28   H29   S    
C9    N1    Am   
C11   C16   D    
C73   H73   S    
C53   C74   S    
C67   H49   S    
C51   C73   S    
O13   P2    S    
Ba1   Ba2   S    
C49   O34   S    
C7    H22   S    
C28   C29   A    
Ba2   O4    S    
C55   C57   A    
C5    H20   S    
C31   C47   A    
C11   O33   S    
C65   H44   S    
C10   C20   A    
C22   C37   D    
C72   H68   S    
C34   C45   S    
C73   H72   S    
C49   C54   A    
C62   H5    S    
C64   H11   S    
Ba1   O13   S    
C63   O2    S    
C32   O21   D    
C23   C75   S    
C6    C69   S    
C1    C68   S    
O25   P6    S    
C25   C42   A    
O17   P8    S    
C69   H59   S    
C17   C41   A    
C14   C15   D    
C66   H47   S    
O14   P7    D    
C23   H18   S    
C22   C36   S    
C62   H7    S    
C75   H78   S    
Ba1   O27   S    
C59   H39   S    
C7    C8    S    
C19   C43   A    
C33   N2    Am   
C71   H67   S    
C19   O32   S    
O23   P6    D    
C13   C21   S    
C44   H32   S    
C45   C65   S    
C10   N1    Am   
O24   P1    S    
C4    H15   S    
C39   N2    S    
C33   O19   D    
C34   O35   S    
Ba2   O8    S    
C70   H61   S    
C31   C32   A    
C65   H43   S    
Ba2   O13   S    
C56   O24   S    
C56   C62   S    
C64   H12   S    
O28   P3    D    
C9    C18   A    
C10   O20   D    
C49   C50   A    
O5    P4    S    
O1    P1    D    
O8    P7    S    
O11   P5    S    
O35   H81   S    
C7    H23   S    
C37   C38   D    
C13   P8    S    
C56   H4    S    
C54   P7    S    
C52   C60   S    
C8    H27   S    
Ba1   O22   S    
C51   C52   A    
C50   P5    S    
C63   H8    S    
C58   C59   A    
C61   H40   S    
C40   C43   A    
C74   H75   S    
O12   P1    S    
C12   O3    S    
C41   C42   A    
C74   H76   S    
C35   C36   S    
Ba1   O1    S    
C2    H1    S    
C68   H55   S    
Ba2   O6    S    
C72   H69   S    
C29   C30   A    
C45   C66   S    
C26   C30   A    
C3    O30   S    
C17   C20   A    
C75   H80   S    
C15   C16   S    
Ba1   O8    S    
O36   H82   S    
C3    H14   S    
C1    H10   S    
C12   H26   S    
O29   H48   S    
C6    O31   S    
C24   C27   A    
C69   H57   S    
C20   C44   A    
C8    H25   S    
C14   C21   D    
C11   C13   S    
O31   H56   S    
C66   H46   S    
C40   C41   A    
C1    C2    S    
C34   O7    S    
C45   H2    S    
C46   C71   S    
O22   P6    S    
C50   C51   A    
C23   H41   S    
C2    O25   S    
C65   H42   S    
Ba2   O12   S    
C42   C48   A    
C32   N2    Am   
C55   H38   S    
C44   C48   A    
C52   C53   A    
O32   H63   S    
C4    H17   S    
C71   H66   S    
C57   C61   A    
C5    O11   S    
C67   H51   S    
O15   P7    S    
O34   H77   S    
O9    P5    S    
Ba1   P2    S    
C27   H30   S    
C70   H62   S    
C56   H3    S    
C68   H53   S    
O6    P8    S    
C24   C26   A    
C7    O17   S    
C63   H9    S    
C72   H70   S    
C22   H37   S    
C30   C31   A    
C6    H21   S    
C67   H50   S    
C14   P4    S    
C68   H54   S    
C43   H31   S    
C74   H74   S    
C47   H34   S    
Ba2   O5    S    
C12   H33   S    
C3    C4    S    
C57   P3    S    
C46   C47   A    
Ba2   P4    S    
C69   H58   S    
C1    C67   S    
O4    P4    D    
C35   H28   S    
C29   C33   A    
C62   H6    S    
C12   C23   S    
C35   C39   D    
C59   C60   A    
O30   H52   S    
Ba1   O12   S    
C37   P1    S    
C58   C61   A    
Ba1   P1    S    
C58   P2    S    
C27   C28   A    
O7    P4    S    
C21   H36   S    
C18   C19   A    
C8    H24   S    
C48   H35   S    
C63   C64   S    
Ba1   O5    S    
C25   C26   A    
O10   P5    D    
C66   H45   S    
C73   H71   S    
C75   H79   S    
C34   O36   S    
Ba1   O26   S    
O16   P8    D    
C71   H65   S    
C16   N1    S    
C38   C72   S    
