data_mof_unit_14041.cif
_audit_creation_date              2013-03-05T15:41:32-0500
_audit_creation_method            fapswitch 2.2
_symmetry_space_group_name_H-M    P1
_symmetry_Int_Tables_number       1
_space_group_crystal_system       triclinic
_cell_length_a                    15.859965
_cell_length_b                    8.685214
_cell_length_c                    7.53944
_cell_angle_alpha                 103.209149
_cell_angle_beta                  95.238517
_cell_angle_gamma                 93.409369
_cell_volume                      1003.3740918

loop_
_atom_site_label
_atom_site_type_symbol
_atom_site_description
_atom_site_fract_x
_atom_site_fract_y
_atom_site_fract_z
_atom_type_partial_charge
O1    O     O_R   0.506070 0.286130 0.619780 -0.565012
O2    O     O_R   0.493930 0.713870 0.380220 -0.565017
O3    O     O_R   0.490300 0.256770 0.308360 -0.567508
O4    O     O_R   0.509700 0.743230 0.691640 -0.567511
C1    C     C_R   0.497286 0.199873 0.453115 0.867847
C2    C     C_R   0.502714 0.800127 0.546885 0.867848
O5    O     O_R   0.386960 0.514660 0.655680 -0.553514
O6    O     O_R   0.613040 0.485340 0.344320 -0.553492
O7    O     O_R   0.371190 0.485310 0.344260 -0.549478
O8    O     O_R   0.628810 0.514690 0.655740 -0.549477
C3    C     C_R   0.340238 0.499673 0.500452 0.804339
C4    C     C_R   0.659762 0.500326 0.499548 0.804318
Cu1   Cu    Cu3+1 0.509330 0.517380 0.684380 1.107875
Cu2   Cu    Cu3+1 0.490670 0.482620 0.315620 1.107877
C5    C     C_2   0.495602 0.031483 0.427400 -0.299201
C6    C     C_2   0.504398 0.968516 0.572600 -0.299201
C7    C     C_3   0.971671 0.373073 0.553234 0.277071
C8    C     C_3   0.028327 0.626923 0.446750 0.277055
C9    C     C_3   0.019034 0.365538 0.381109 -0.287471
C10   C     C_3   0.980966 0.634460 0.618875 -0.287464
H1    H     H_    0.034131 0.256341 0.284237 0.249216
H2    H     H_    0.965868 0.743657 0.715746 0.249188
C11   C     C_1   0.250847 0.500223 0.500907 -0.046367
C12   C     C_1   0.749152 0.499776 0.499091 -0.046297
C13   C     C_3   0.036334 0.504908 0.666096 0.276393
C14   C     C_3   0.963666 0.495089 0.333892 0.276391
C15   C     C_3   0.083862 0.500598 0.496872 -0.145683
C16   C     C_3   0.916137 0.499398 0.503115 -0.145690
N1    N     N_2   0.476600 0.456420 0.038510 0.052988
N2    N     N_2   0.523400 0.543580 0.961490 0.052996
H3    H     H_    0.486958 0.959055 0.287880 0.203409
H4    H     H_    0.513042 0.040945 0.712120 0.203411
C17   C     C_1   0.175395 0.500567 0.499129 0.184853
C18   C     C_1   0.824604 0.499430 0.500865 0.184994
N3    N     N_R   0.942082 0.233525 0.613952 0.199830
O9    O     O_R   0.996337 0.138185 0.657329 -0.237243
O10   O     O_R   0.861467 0.200724 0.619864 -0.298404
N4    N     N_R   0.057907 0.766455 0.385995 0.199782
O11   O     O_R   0.003635 0.861692 0.342429 -0.237301
O12   O     O_R   0.138523 0.799316 0.380173 -0.298339
N5    N     N_R   0.922076 0.491374 0.152475 0.175131
O13   O     O_R   0.925863 0.368835 0.018089 -0.266042
O14   O     O_R   0.875937 0.605012 0.127336 -0.277588
N6    N     N_R   0.077928 0.508646 0.847517 0.175125
O15   O     O_R   0.074408 0.631430 0.981731 -0.266107
O16   O     O_R   0.123719 0.394645 0.872878 -0.277332
Br1   Br    Br    0.391428 0.304496 0.902102 -0.305645
Br2   Br    Br    0.608572 0.695504 0.097897 -0.305555

loop_
_geom_bond_atom_site_label_1
_geom_bond_atom_site_label_2
_geom_bond_distance
_ccdc_geom_bond_type
N4    O12   1.300275 A    
O7    Cu2   1.927608 S    
C5    H3    1.087203 S    
N1    N2    1.293813 D    
C13   C15   1.534457 S    
O7    C3    1.299610 A    
N5    O13   1.299526 A    
C4    C12   1.418338 S    
C14   C16   1.534457 S    
N3    O9    1.300065 A    
C8    C14   1.530521 S    
O6    C4    1.302408 A    
C7    C13   1.530554 S    
C8    N4    1.457337 S    
C16   C18   1.450274 S    
Cu1   Cu2   2.713673 S    
C15   C17   1.450270 S    
O5    C3    1.302409 A    
N5    O14   1.300606 A    
O2    C2    1.298075 A    
O3    Cu2   1.949418 S    
O8    C4    1.299611 A    
N1    Br1   1.880859 S    
O1    C1    1.298075 A    
C13   N6    1.455864 S    
C3    C11   1.418340 S    
C7    C9    1.548451 S    
N6    O16   1.300395 A    
C8    C10   1.548427 S    
N4    O11   1.300069 A    
O2    Cu2   1.951866 S    
C1    C5    1.428999 S    
O1    Cu1   1.951866 S    
C10   C13   1.551584 S    
Cu2   N1    2.039145 S    
C2    C6    1.428999 S    
C5    C6    1.331075 D    
C10   C16   1.555541 S    
Cu1   N2    2.039146 S    
O5    Cu1   1.931205 S    
C9    C15   1.555528 S    
N6    O15   1.299429 A    
C11   C17   1.195711 T    
O4    C2    1.295555 A    
N2    Br2   1.880860 S    
O4    Cu1   1.949419 S    
C9    C14   1.551568 S    
C6    H4    1.087203 S    
O6    Cu2   1.931205 S    
C7    N3    1.457349 S    
N3    O10   1.300273 A    
C9    H1    1.110229 S    
C7    C16   1.538153 S    
C12   C18   1.195711 T    
C8    C15   1.538173 S    
C14   N5    1.455853 S    
C10   H2    1.110229 S    
O3    C1    1.295555 A    
O8    Cu1   1.927608 S    
