data_mof_unit_36115.cif
_audit_creation_date              2012-12-10T19:01:19-0500
_audit_creation_method            fapswitch 2.2
_symmetry_space_group_name_H-M    P1
_symmetry_Int_Tables_number       1
_space_group_crystal_system       triclinic
_cell_length_a                    9.538718
_cell_length_b                    10.899536
_cell_length_c                    15.542447
_cell_angle_alpha                 89.535784
_cell_angle_beta                  74.272764
_cell_angle_gamma                 89.263197
_cell_volume                      1555.26957073

loop_
_atom_site_label
_atom_site_type_symbol
_atom_type_description
_atom_site_fract_x
_atom_site_fract_y
_atom_site_fract_z
_atom_type_partial_charge
C1    C     C_R   0.000470 0.262934 0.500254 0.823255
C2    C     C_R   0.673451 0.494682 0.907613 0.091642
C3    C     C_R   0.774203 0.526558 0.955929 0.166678
C4    C     C_R   0.524125 0.476073 0.953875 0.067973
C5    C     C_R   0.475896 0.499984 0.047282 0.066437
C6    C     C_R   0.580502 0.531631 0.092604 -0.226907
C7    C     C_R   0.726596 0.543370 0.047829 -0.239595
C8    C     C_R   0.422214 0.431813 0.910373 -0.222235
C9    C     C_R   0.277512 0.413882 0.956342 -0.243264
C10   C     C_R   0.227975 0.440479 0.046946 0.165733
C11   C     C_R   0.325500 0.486738 0.092955 0.096290
C12   C     C_R   0.918044 0.500439 0.672005 0.797359
C13   C     C_R   0.081781 0.419273 0.092537 -0.217947
C14   C     C_R   0.031616 0.441279 0.183939 -0.198427
C15   C     C_R   0.268910 0.516554 0.183670 -0.256273
C16   C     C_R   0.117758 0.060037 0.504935 0.076326
C17   C     C_R   0.998323 0.130877 0.501162 -0.140479
C18   C     C_R   0.870493 0.069470 0.499101 -0.216586
C19   C     C_R   0.864806 0.940651 0.499643 0.160566
C20   C     C_R   0.992017 0.870814 0.502562 -0.140640
C21   C     C_R   0.114332 0.936345 0.506749 0.082228
C22   C     C_3   0.269275 0.924784 0.510415 -0.030396
C23   C     C_R   0.998023 0.737583 0.500815 0.819307
C24   C     C_3   0.272067 0.066451 0.508159 -0.459958
C25   C     C_R   0.594893 0.584075 0.450082 0.261250
C26   C     C_R   0.551130 0.424519 0.555205 -0.080783
C27   C     C_R   0.402192 0.424527 0.555215 -0.090089
C28   C     C_R   0.447277 0.583885 0.450002 0.271795
C29   C     C_3   0.486578 0.595390 0.350896 -0.529208
C30   C     C_3   0.644882 0.597282 0.351037 -0.510970
C31   C     C_R   0.081680 0.499105 0.327951 0.798033
C32   C     C_R   0.872301 0.503973 0.770006 -0.048898
C33   C     C_R   0.125984 0.488446 0.230158 -0.047377
C34   C     C_R   0.921995 0.542544 0.911643 -0.214548
C35   C     C_R   0.971082 0.530276 0.819250 -0.200439
C36   C     C_R   0.725401 0.485783 0.814208 -0.251754
Cu1   Cu    Cu3+1 0.140670 0.499980 0.500000 0.934935
Cu2   Cu    Cu3+1 0.859330 0.500020 0.500000 0.934224
H1    H     H_    0.802720 0.567132 0.085541 0.151591
H2    H     H_    0.007314 0.382170 0.057967 0.142599
H3    H     H_    0.774297 0.121806 0.496584 0.169310
H4    H     H_    0.341677 0.881372 0.449679 0.161005
H5    H     H_    0.282165 0.110276 0.570553 0.197499
H6    H     H_    0.344202 0.104546 0.445356 0.179274
H7    H     H_    0.588766 0.361593 0.598536 0.135148
H8    H     H_    0.327977 0.361693 0.598537 0.134346
H9    H     H_    0.459887 0.510984 0.319418 0.216760
H10   H     H_    0.333220 0.562697 0.219983 0.137690
H11   H     H_    0.447341 0.683255 0.328412 0.187833
H12   H     H_    0.706830 0.515859 0.317735 0.214670
H13   H     H_    0.697521 0.686783 0.329374 0.189377
H14   H     H_    0.920471 0.418511 0.218616 0.146447
H15   H     H_    0.203905 0.378008 0.920620 0.147031
H16   H     H_    0.999274 0.566615 0.948383 0.145384
H17   H     H_    0.085165 0.544902 0.786240 0.155669
H18   H     H_    0.652784 0.468590 0.773620 0.148236
H19   H     H_    0.554272 0.544704 0.163565 0.151072
H20   H     H_    0.451180 0.405559 0.841130 0.137300
N1    N     N_R   0.648210 0.500930 0.499430 -0.184934
N2    N     N_R   0.352300 0.500890 0.499430 -0.187569
O1    O     O_R   0.118810 0.319640 0.500000 -0.577402
O2    O     O_R   0.881230 0.319680 0.499990 -0.592679
O3    O     O_R   0.055580 0.499970 0.629840 -0.590334
O4    O     O_R   0.818000 0.500010 0.629830 -0.588383
O5    O     O_R   0.118770 0.680320 0.500010 -0.585726
O6    O     O_R   0.881190 0.680360 0.500000 -0.576005
O7    O     O_R   0.182000 0.499990 0.370170 -0.582498
O8    O     O_R   0.944420 0.500030 0.370160 -0.586252
C37   C     C_3   0.722476 0.884242 0.496345 -0.825754
H21   H     H_    0.678260 0.826763 0.556673 0.243089
H22   H     H_    0.638003 0.954648 0.494632 0.210071
H23   H     H_    0.739309 0.829149 0.434742 0.235249
C38   C     C_3   0.284538 0.869842 0.598481 -0.822746
H24   H     H_    0.269915 0.769043 0.599097 0.250801
H25   H     H_    0.395106 0.888356 0.605305 0.226977
H26   H     H_    0.202715 0.910071 0.656740 0.238596

loop_
_geom_bond_atom_site_label_1
_geom_bond_atom_site_label_2
_ccdc_geom_bond_type
C8    C9    A    
C30   H13   S    
C16   C21   A    
C38   H24   S    
C19   C20   A    
C4    C8    A    
C1    O2    A    
C14   C33   A    
C29   H11   S    
C25   C28   A    
C31   O7    A    
C26   C27   A    
Cu1   Cu2   S    
C29   H9    S    
C32   C36   A    
C23   O6    A    
C28   C29   S    
C5    C11   A    
C3    C7    A    
C27   N2    A    
C5    C6    A    
C12   O4    A    
C34   C35   A    
C37   H22   S    
C13   H2    S    
C26   H7    S    
C8    H20   S    
C11   C15   A    
C14   H14   S    
Cu2   O6    S    
C16   C17   A    
Cu1   O5    S    
C31   C33   S    
C26   N1    A    
C30   H12   S    
C16   C24   S    
C21   C22   S    
C12   C32   S    
C38   H25   S    
C6    H19   S    
C15   H10   S    
Cu1   O3    S    
Cu2   O4    S    
C28   N2    A    
C31   O8    A    
C35   H17   S    
C32   C35   A    
C18   H3    S    
C12   O3    A    
C18   C19   A    
C3    C34   A    
C37   H23   S    
C2    C4    A    
C29   C30   S    
C36   H18   S    
C20   C23   S    
C17   C18   A    
C27   H8    S    
Cu2   O8    S    
C34   H16   S    
C24   H6    S    
C38   H26   S    
C22   C24   S    
C19   C37   S    
C9    H15   S    
C9    C10   A    
C2    C36   A    
C25   C30   S    
C4    C5    A    
C10   C13   A    
C1    O1    A    
Cu1   O1    S    
C6    C7    A    
C1    C17   S    
C23   O5    A    
C2    C3    A    
C22   H4    S    
Cu1   O7    S    
C37   H21   S    
Cu1   N2    S    
C10   C11   A    
Cu2   N1    S    
C20   C21   A    
C24   H5    S    
C7    H1    S    
C25   N1    A    
C22   C38   S    
C13   C14   A    
C15   C33   A    
Cu2   O2    S    
