data_mof_unit_30137.cif
_audit_creation_date              2012-12-10T18:21:13-0500
_audit_creation_method            fapswitch 2.2
_symmetry_space_group_name_H-M    P1
_symmetry_Int_Tables_number       1
_space_group_crystal_system       triclinic
_cell_length_a                    9.464554
_cell_length_b                    10.618037
_cell_length_c                    17.212813
_cell_angle_alpha                 90.222239
_cell_angle_beta                  86.371797
_cell_angle_gamma                 89.031282
_cell_volume                      1726.06637208

loop_
_atom_site_label
_atom_site_type_symbol
_atom_type_description
_atom_site_fract_x
_atom_site_fract_y
_atom_site_fract_z
_atom_type_partial_charge
C1    C     C_R   0.499296 0.740459 0.500055 0.814339
C2    C     C_R   0.500704 0.259541 0.499944 0.814320
C3    C     C_3   0.433419 0.959209 0.438187 -0.159110
C4    C     C_3   0.566582 0.040791 0.561811 -0.160486
C5    C     C_3   0.568235 0.039795 0.433980 -0.124444
C6    C     C_3   0.431766 0.960205 0.566018 -0.125746
C7    C     C_3   0.501116 0.122474 0.499911 -0.025773
C8    C     C_3   0.498884 0.877526 0.500087 -0.026129
C9    C     C_3   0.366061 0.044158 0.504110 -0.073793
C10   C     C_3   0.633939 0.955842 0.495887 -0.073969
C11   C     C_3   0.958229 0.402763 0.464854 0.582612
C12   C     C_3   0.041772 0.597237 0.535144 0.581676
C13   C     C_3   0.049332 0.401436 0.534951 -0.173388
C14   C     C_3   0.950669 0.598563 0.465048 -0.173620
C15   C     C_3   0.059263 0.500440 0.429520 -0.169933
C16   C     C_3   0.940739 0.499559 0.570479 -0.169591
C17   C     C_R   0.481933 0.503760 0.649897 0.794761
C18   C     C_R   0.518070 0.496171 0.350113 0.793994
C19   C     C_R   0.474321 0.517678 0.734587 -0.038688
C20   C     C_R   0.525724 0.481837 0.265462 -0.034986
C21   C     C_R   0.348426 0.493859 0.779241 -0.135096
C22   C     C_R   0.406542 0.439667 0.228890 -0.154873
C23   C     C_R   0.344393 0.505873 0.860002 -0.044799
C24   C     C_R   0.411434 0.425834 0.148610 -0.037549
C25   C     C_R   0.465852 0.542102 0.896096 0.103839
C26   C     C_R   0.534434 0.456130 0.104032 0.108915
C27   C     C_R   0.589267 0.571484 0.851610 -0.090820
C28   C     C_R   0.655329 0.494181 0.139999 -0.120544
C29   C     C_R   0.594028 0.558290 0.771300 -0.143893
C30   C     C_R   0.651221 0.506713 0.220725 -0.120661
C31   C     C_2   0.466045 0.544946 0.980826 0.173818
C32   C     C_2   0.534141 0.453038 0.019316 0.200196
Cu1   Cu    Cu3+1 0.356850 0.500010 0.499980 1.024604
Cu2   Cu    Cu3+1 0.643150 0.499990 0.500020 1.024231
H1    H     H_    0.254486 0.463890 0.751978 0.166771
H2    H     H_    0.309471 0.417078 0.262255 0.169144
H3    H     H_    0.112047 0.499580 0.370083 0.172775
H4    H     H_    0.887962 0.500410 0.629916 0.172936
H5    H     H_    0.744739 0.537942 0.247896 0.166681
H6    H     H_    0.691438 0.580130 0.738033 0.170791
H7    H     H_    0.682581 0.601845 0.879362 0.165742
H8    H     H_    0.751129 0.516777 0.105451 0.163202
H9    H     H_    0.318477 0.394387 0.120949 0.161710
H10   H     H_    0.248215 0.484151 0.894465 0.165736
H11   H     H_    0.624068 0.075124 0.379959 0.195722
H12   H     H_    0.375932 0.924878 0.620039 0.195643
H13   H     H_    0.378547 0.922779 0.387809 0.171569
H14   H     H_    0.621453 0.077222 0.612188 0.170581
H15   H     H_    0.256118 0.082949 0.507432 0.195037
H16   H     H_    0.743882 0.917052 0.492565 0.194985
H17   H     H_    0.094552 0.317859 0.563694 0.166796
H18   H     H_    0.905448 0.682140 0.436305 0.166804
N1    N     N_3   0.141720 0.500030 0.499940 -0.231126
N2    N     N_3   0.858280 0.499970 0.500060 -0.231095
O1    O     O_R   0.379130 0.683150 0.499960 -0.509971
O2    O     O_R   0.620870 0.316850 0.500040 -0.509743
O3    O     O_R   0.620910 0.683140 0.500000 -0.595355
O4    O     O_R   0.379090 0.316860 0.500000 -0.595374
O5    O     O_R   0.365090 0.500030 0.613580 -0.551884
O6    O     O_R   0.634910 0.499970 0.386420 -0.552391
O7    O     O_R   0.606870 0.500020 0.613610 -0.594029
O8    O     O_R   0.393130 0.499980 0.386390 -0.593383
S1    S     S_3+6 0.914397 0.262166 0.415496 -0.002212
O9    O     O_2   0.863018 0.166457 0.474269 -0.324418
O10   O     O_2   0.803129 0.288162 0.358968 -0.301347
O11   O     O_3   0.061581 0.205611 0.366680 -0.554544
H19   H     H_    0.035047 0.122164 0.346806 0.380691
S2    S     S_3+6 0.085605 0.737839 0.584495 -0.000041
O12   O     O_2   0.196877 0.711847 0.641020 -0.297100
O13   O     O_2   0.136977 0.833548 0.525720 -0.324840
O14   O     O_3   0.938421 0.794396 0.633311 -0.553838
H20   H     H_    0.965102 0.877652 0.653411 0.381190
S3    S     S_3+6 0.621708 0.322250 0.971643 0.022443
O15   O     O_2   0.529757 0.267343 0.912496 -0.235787
O16   O     O_2   0.758165 0.363818 0.931017 -0.297644
O17   O     O_3   0.657043 0.210410 0.036970 -0.463653
H21   H     H_    0.739231 0.241720 0.063764 0.358119
S4    S     S_3+6 0.377440 0.675179 0.028532 0.025315
O18   O     O_2   0.240525 0.632162 0.067833 -0.255996
O19   O     O_2   0.467233 0.730293 0.088676 -0.265914
O20   O     O_3   0.341286 0.786709 0.963207 -0.458798
H22   H     H_    0.434970 0.817036 0.943093 0.360689

loop_
_geom_bond_atom_site_label_1
_geom_bond_atom_site_label_2
_ccdc_geom_bond_type
Cu1   O1    S    
S1    O10   D    
C25   C31   S    
Cu1   O4    S    
C27   C29   A    
C1    C8    S    
S3    O15   D    
C2    C7    S    
C6    C9    S    
O20   H22   S    
C20   C30   A    
Cu2   O2    S    
C12   S2    S    
C15   N1    S    
C19   C21   A    
C24   C26   A    
Cu1   O8    S    
C11   S1    S    
S4    O19   D    
C3    H13   S    
C15   H3    S    
C17   O7    A    
C13   H17   S    
C11   C15   S    
C14   H18   S    
C12   C16   S    
S2    O12   D    
Cu2   O3    S    
C12   N1    S    
O11   H19   S    
S1    O11   S    
Cu1   O5    S    
Cu2   O6    S    
S3    O16   D    
C4    C7    S    
C13   N1    S    
Cu1   N1    S    
C9    H15   S    
O17   H21   S    
C4    C6    S    
C3    C8    S    
C32   S3    S    
C5    C7    S    
S4    O18   D    
C18   O8    A    
C6    C8    S    
C5    H11   S    
Cu2   O7    S    
C23   H10   S    
C3    C9    S    
C1    O3    A    
C27   H7    S    
C31   C32   D    
Cu1   Cu2   S    
C11   N2    S    
C17   O5    A    
C18   O6    A    
C14   N2    S    
C12   C14   S    
Cu2   N2    S    
C21   C23   A    
S3    O17   S    
C22   C24   A    
C4    C10   S    
C19   C29   A    
C31   S4    S    
C4    H14   S    
C7    C9    S    
C6    H12   S    
C20   C22   A    
C3    C5    S    
C2    O4    A    
C21   H1    S    
C25   C27   A    
C22   H2    S    
C26   C28   A    
C28   C30   A    
C1    O1    A    
C5    C10   S    
C2    O2    A    
C11   C13   S    
S4    O20   S    
S2    O14   S    
C29   H6    S    
C28   H8    S    
C17   C19   S    
C30   H5    S    
C18   C20   S    
C23   C25   A    
C24   H9    S    
C16   N2    S    
S1    O9    D    
O14   H20   S    
C8    C10   S    
C13   C16   S    
S2    O13   D    
C14   C15   S    
C26   C32   S    
C16   H4    S    
C10   H16   S    
