data_mof_unit_17990.cif
_audit_creation_date              2012-12-10T17:21:18-0500
_audit_creation_method            fapswitch 2.2
_symmetry_space_group_name_H-M    P1
_symmetry_Int_Tables_number       1
_space_group_crystal_system       triclinic
_cell_length_a                    9.636934
_cell_length_b                    10.866958
_cell_length_c                    13.877806
_cell_angle_alpha                 93.264247
_cell_angle_beta                  85.715529
_cell_angle_gamma                 91.161885
_cell_volume                      1446.74124818

loop_
_atom_site_label
_atom_site_type_symbol
_atom_type_description
_atom_site_fract_x
_atom_site_fract_y
_atom_site_fract_z
_atom_type_partial_charge
C1    C     C_R   0.501786 0.736912 0.499233 0.837724
C2    C     C_1   0.466098 0.503234 0.785730 -0.145120
C3    C     C_R   0.344894 0.856274 0.363038 -0.141007
C4    C     C_R   0.239339 0.908634 0.316679 -0.120550
C5    C     C_R   0.200967 0.029067 0.342271 -0.104556
C6    C     C_R   0.276221 0.100018 0.407759 -0.162615
C7    C     C_R   0.394102 0.053323 0.447324 0.087777
C8    C     C_R   0.416134 0.925620 0.434333 0.081119
C9    C     C_R   0.505865 0.870130 0.494486 -0.184897
C10   C     C_R   0.592076 0.943385 0.553783 -0.027693
C11   C     C_R   0.589167 0.070854 0.550300 -0.177357
C12   C     C_R   0.478215 0.500829 0.682660 0.853391
C13   C     C_R   0.490383 0.127167 0.499565 -0.140362
C14   C     C_R   0.874805 0.377328 0.341947 -0.015424
C15   C     C_R   0.955199 0.371071 0.253085 -0.158954
C16   C     C_R   0.098747 0.360166 0.256236 -0.100738
C17   C     C_R   0.156583 0.380614 0.344698 -0.213952
C18   C     C_R   0.081518 0.440724 0.424002 0.186980
C19   C     C_R   0.932943 0.439797 0.423543 0.134415
C20   C     C_R   0.919815 0.558008 0.572072 -0.026121
C21   C     C_R   0.067383 0.557927 0.572065 -0.026295
C22   C     C_R   0.497410 0.262057 0.499106 0.814000
C23   C     C_R   0.521756 0.499795 0.317377 0.814248
C24   C     C_1   0.533625 0.498944 0.214419 -0.128620
C25   C     C_2   0.556156 0.496366 0.024154 -0.133106
C26   C     C_2   0.443074 0.508589 0.976125 -0.141559
C27   C     C_1   0.454979 0.505721 0.872538 0.023164
C28   C     C_1   0.544356 0.497918 0.127682 0.044831
Cu1   Cu    Cu3+1 0.359340 0.500010 0.500010 0.954774
Cu2   Cu    Cu3+1 0.640660 0.499990 0.499990 0.990839
H1    H     H_    0.341163 0.520437 0.014236 0.164960
H2    H     H_    0.258045 0.345458 0.349526 0.195427
H3    H     H_    0.116720 0.606098 0.631051 0.146138
H4    H     H_    0.658020 0.484584 0.985977 0.170516
H5    H     H_    0.369939 0.761403 0.342423 0.141394
H6    H     H_    0.183564 0.854110 0.263952 0.142718
H7    H     H_    0.112219 0.067580 0.311886 0.160390
H8    H     H_    0.232671 0.186411 0.432245 0.170802
H9    H     H_    0.658811 0.127401 0.592829 0.194331
H10   H     H_    0.859943 0.606079 0.631051 0.144074
N1    N     N_R   0.852210 0.498790 0.499090 -0.200048
N2    N     N_R   0.148080 0.498710 0.499060 -0.193047
O1    O     O_R   0.381190 0.680360 0.500010 -0.575245
O2    O     O_R   0.618760 0.680340 0.500000 -0.562166
O3    O     O_R   0.364420 0.499990 0.637850 -0.577015
O4    O     O_R   0.601990 0.499960 0.637840 -0.571259
O5    O     O_R   0.381240 0.319660 0.500000 -0.609418
O6    O     O_R   0.618810 0.319640 0.499990 -0.558562
O7    O     O_R   0.398010 0.500040 0.362160 -0.608224
O8    O     O_R   0.635580 0.500010 0.362150 -0.577465
C29   C     C_2   0.793935 0.261928 0.355187 0.888624
O9    O     O_2   0.829403 0.189036 0.412413 -0.598503
O10   O     O_R   0.683961 0.231770 0.297356 -0.772972
H11   H     H_    0.641456 0.147561 0.309805 0.325170
C30   C     C_1   0.890180 0.344230 0.163230 0.325955
N3    N     N_1   0.838541 0.322595 0.091409 -0.266511
C31   C     C_1   0.186254 0.316937 0.172498 0.254869
N4    N     N_1   0.256354 0.282050 0.105582 -0.264889
C32   C     C_2   0.681313 0.891183 0.623660 0.861841
O11   O     O_2   0.797317 0.935289 0.634329 -0.578925
O12   O     O_R   0.630781 0.795265 0.680254 -0.771196
H12   H     H_    0.700461 0.769201 0.726083 0.323900

loop_
_geom_bond_atom_site_label_1
_geom_bond_atom_site_label_2
_ccdc_geom_bond_type
C7    C13   A    
C22   O6    A    
C23   C24   S    
C4    H6    S    
Cu2   N1    S    
Cu1   Cu2   S    
C5    H7    S    
Cu1   N2    S    
C24   C28   T    
C9    C10   A    
C1    O2    A    
C14   C29   S    
C3    H5    S    
C25   H4    S    
C30   N3    T    
C2    C12   S    
C6    H8    S    
C10   C32   S    
C31   N4    T    
C32   O11   D    
Cu1   O7    S    
O10   H11   S    
Cu1   O1    S    
C25   C28   S    
C11   H9    S    
C4    C5    A    
C11   C13   A    
Cu2   O2    S    
C26   C27   S    
C2    C27   T    
Cu1   O5    S    
C20   N1    A    
C5    C6    A    
Cu2   O6    S    
Cu2   O4    S    
C13   C22   S    
C17   C18   A    
C6    C7    A    
C16   C31   S    
C18   N2    A    
C3    C8    A    
Cu2   O8    S    
O12   H12   S    
C20   H10   S    
C22   O5    A    
C23   O7    A    
C21   H3    S    
C10   C11   A    
C29   O9    D    
C19   N1    A    
C7    C8    A    
C1    C9    S    
C20   C21   A    
C12   O4    A    
C18   C19   A    
C32   O12   S    
C17   H2    S    
C14   C15   A    
C8    C9    A    
C23   O8    A    
C21   N2    A    
C25   C26   D    
C26   H1    S    
C14   C19   A    
C1    O1    A    
C3    C4    A    
C15   C16   A    
C16   C17   A    
Cu1   O3    S    
C12   O3    A    
C29   O10   S    
C15   C30   S    
