data_mof_unit_55995.cif
_audit_creation_date              2012-12-11T17:00:16-0500
_audit_creation_method            fapswitch 2.2
_symmetry_space_group_name_H-M    P1
_symmetry_Int_Tables_number       1
_space_group_crystal_system       triclinic
_cell_length_a                    6.958098
_cell_length_b                    13.515871
_cell_length_c                    20.264628
_cell_angle_alpha                 103.081397
_cell_angle_beta                  90.336187
_cell_angle_gamma                 90.316866
_cell_volume                      1856.24801928

loop_
_atom_site_label
_atom_site_type_symbol
_atom_type_description
_atom_site_fract_x
_atom_site_fract_y
_atom_site_fract_z
_atom_type_partial_charge
O1    O     O_R   0.506770 0.599700 0.449550 -0.540219
O2    O     O_R   0.179980 0.595740 0.587960 -0.547365
O3    O     O_R   0.004580 0.400300 0.550450 -0.532756
C1    C     C_R   0.348560 0.617631 0.615103 0.689953
O4    O     O_R   0.177380 0.611700 0.452380 -0.542342
O5    O     O_R   0.001970 0.416370 0.413900 -0.538438
C2    C     C_R   0.345904 0.638812 0.435971 0.690865
O6    O     O_R   0.509390 0.583630 0.586100 -0.540351
O7    O     O_3   0.337530 0.435890 0.487530 -0.366743
V1    V     V_3+5 0.064660 0.511890 0.502310 1.425434
O8    O     O_R   0.671950 0.404260 0.412040 -0.542382
C3    C     C_R   0.840201 0.382218 0.384973 0.715956
O9    O     O_R   0.674540 0.388300 0.547620 -0.544195
C4    C     C_R   0.843565 0.361465 0.564180 0.771069
V2    V     V_3+5 0.564030 0.488110 0.497690 1.422722
O10   O     O_3   0.841030 0.564110 0.512470 -0.377844
C5    C     C_R   0.907559 0.109220 0.610480 -0.272452
H1    H     H_    0.937339 0.985114 0.694311 0.115873
H2    H     H_    0.940528 0.031197 0.586552 0.109564
C6    C     C_R   0.854138 0.282892 0.603187 -0.112048
C7    C     C_R   0.828833 0.317110 0.930111 -0.290926
C8    C     C_R   0.813734 0.394778 0.894380 0.479267
C9    C     C_R   0.819776 0.368988 0.823637 -0.209064
C10   C     C_R   0.848745 0.267784 0.786927 0.020853
C11   C     C_R   0.870072 0.190876 0.824170 0.063179
C12   C     C_R   0.857908 0.240468 0.714490 0.107214
C13   C     C_R   0.891708 0.137657 0.681360 0.100224
C14   C     C_R   0.912123 0.063793 0.719161 -0.184696
C15   C     C_R   0.900441 0.089698 0.789290 -0.176631
C16   C     C_R   0.837453 0.311793 0.673643 -0.298146
C17   C     C_R   0.887436 0.181460 0.570675 0.406024
C18   C     C_R   0.858780 0.216465 0.895747 -0.120839
H3    H     H_    0.811574 0.391117 0.694745 0.112495
H4    H     H_    0.814981 0.333921 0.984690 0.094244
H5    H     H_    0.802323 0.431156 0.799064 0.132000
H6    H     H_    0.916358 0.029418 0.816054 0.103061
C19   C     C_R   0.713271 0.252888 0.203060 0.096116
C20   C     C_R   0.867666 0.187091 0.183115 -0.105882
C21   C     C_R   0.021111 0.192002 0.229460 -0.175238
H7    H     H_    0.142758 0.142292 0.216455 0.128846
C22   C     C_R   0.012724 0.255823 0.294860 -0.175780
H8    H     H_    0.128906 0.254103 0.330230 0.136221
C23   C     C_R   0.850074 0.316080 0.315944 -0.110742
C24   C     C_R   0.704578 0.315661 0.267858 0.097044
C25   C     C_3   0.494584 0.297160 0.272977 -0.413389
C26   C     C_3   0.503963 0.229198 0.202292 -0.396891
H9    H     H_    0.409112 0.367117 0.275343 0.167549
H10   H     H_    0.461973 0.254936 0.312750 0.169836
H11   H     H_    0.424372 0.259952 0.163700 0.170923
H12   H     H_    0.476220 0.147765 0.201048 0.166887
C27   C     C_R   0.499363 0.677841 0.730567 0.104974
C28   C     C_R   0.352142 0.683500 0.684311 -0.110454
C29   C     C_R   0.196470 0.748164 0.707962 -0.176197
H13   H     H_    0.077993 0.754167 0.674382 0.126542
C30   C     C_R   0.197475 0.810668 0.773777 -0.173099
H14   H     H_    0.080856 0.863194 0.788749 0.123200
C31   C     C_R   0.354526 0.810746 0.817788 -0.112555
C32   C     C_R   0.501058 0.740372 0.795494 0.117812
C33   C     C_3   0.712887 0.756667 0.793954 -0.394081
C34   C     C_3   0.710857 0.688385 0.723203 -0.410376
H15   H     H_    0.790489 0.723227 0.831723 0.185644
H16   H     H_    0.750226 0.836968 0.794717 0.163658
H17   H     H_    0.787005 0.615384 0.720078 0.169521
H18   H     H_    0.747061 0.728925 0.682883 0.167257
C35   C     C_R   0.333956 0.892145 0.389529 -0.174921
H19   H     H_    0.329140 0.842332 0.482782 0.101072
H20   H     H_    0.326392 0.017713 0.306280 0.122428
H21   H     H_    0.323249 0.971499 0.415213 0.125595
C36   C     C_R   0.352614 0.716407 0.396232 -0.027903
C37   C     C_R   0.369574 0.681802 0.069422 -0.188037
C38   C     C_R   0.371983 0.605300 0.105000 -0.125320
C39   C     C_R   0.366710 0.629125 0.175556 -0.165198
C40   C     C_R   0.357917 0.731420 0.212656 0.076827
C41   C     C_R   0.352687 0.809461 0.175678 0.074319
C42   C     C_R   0.354119 0.758887 0.285045 0.073434
C43   C     C_R   0.341537 0.863242 0.318532 0.143629
C44   C     C_R   0.335670 0.938062 0.281078 -0.219824
C45   C     C_R   0.341861 0.911787 0.210863 -0.196218
C46   C     C_R   0.361436 0.686475 0.325618 -0.214804
C47   C     C_R   0.338087 0.819017 0.428103 -0.185336
C48   C     C_R   0.359839 0.783512 0.103971 -0.083039
H22   H     H_    0.371215 0.606097 0.304203 0.090849
H23   H     H_    0.375420 0.661633 0.014579 0.119897
H24   H     H_    0.369395 0.565485 0.199283 0.105442
H25   H     H_    0.378970 0.526692 0.077663 0.119019
H26   H     H_    0.337166 0.972705 0.184272 0.109436
O11   O     O_R   0.203450 0.916320 0.913910 -0.541938
O12   O     O_R   0.535520 0.888300 0.047620 -0.540353
O13   O     O_R   0.710860 0.083650 0.086100 -0.538073
C49   C     C_R   0.367001 0.861433 0.064204 0.688931
O14   O     O_R   0.532860 0.904250 0.912040 -0.541762
O15   O     O_R   0.708190 0.099710 0.949550 -0.536432
C50   C     C_R   0.364039 0.882347 0.884906 0.700159
O16   O     O_R   0.206120 0.900260 0.050460 -0.538512
O17   O     O_3   0.375280 0.064080 0.012470 -0.370118
V3    V     V_3+5 0.648180 0.988110 0.997690 1.411250
O18   O     O_R   0.038220 0.111740 0.952370 -0.541016
C51   C     C_R   0.869198 0.138521 0.935684 0.716100
O19   O     O_R   0.040880 0.095790 0.087940 -0.545695
C52   C     C_R   0.872998 0.116807 0.115392 0.695657
V4    V     V_3+5 0.148800 0.011950 0.002300 1.403455
O20   O     O_3   0.871820 0.935920 0.987530 -0.370554
O21   O     O_3   0.918056 0.157993 0.501113 -0.563534
C53   C     C_3   0.810942 0.071428 0.468360 0.073235
H27   H     H_    0.663190 0.071142 0.489434 0.117166
H28   H     H_    0.887253 0.001077 0.472614 0.131469
C54   C     C_3   0.792322 0.071198 0.393432 -0.695312
H29   H     H_    0.937094 0.071018 0.370560 0.224984
H30   H     H_    0.712352 0.002358 0.366621 0.188318
H31   H     H_    0.713329 0.139643 0.387001 0.212359
O22   O     O_3   0.777659 0.496046 0.925001 -0.558675
C55   C     C_3   0.868613 0.527821 0.988927 0.070034
H32   H     H_    0.016092 0.496012 0.989371 0.117041
H33   H     H_    0.779441 0.505342 0.028556 0.126920
C56   C     C_3   0.886614 0.643143 0.006094 -0.651714
H34   H     H_    0.743655 0.678098 0.003459 0.223316
H35   H     H_    0.945683 0.669795 0.058152 0.186147
H36   H     H_    0.984348 0.667992 0.969718 0.205895

loop_
_geom_bond_atom_site_label_1
_geom_bond_atom_site_label_2
_ccdc_geom_bond_type
C30   H14   S    
O12   V3    S    
C42   C43   A    
V4    O20   S    
V3    O20   S    
C54   H30   S    
C22   H8    S    
O17   V3    S    
H20   C44   S    
C1    O6    A    
C53   H28   S    
O18   C51   A    
O15   C51   A    
C21   C22   A    
C6    C16   A    
C25   C26   S    
C28   C29   A    
C15   H6    S    
C12   C13   A    
C35   C43   A    
C1    C28   S    
C34   H17   S    
C14   C15   A    
C10   C12   A    
C3    C23   S    
O5    C3    A    
C20   C21   A    
V2    O10   S    
O15   V3    S    
C40   C41   A    
C37   C48   A    
C55   H32   S    
O14   V3    S    
O11   V4    S    
O8    V2    S    
O22   C55   S    
O16   V4    S    
C56   H35   S    
C54   H29   S    
C37   C38   A    
O1    V2    S    
O7    V1    S    
C44   C45   A    
C56   H36   S    
C45   H26   S    
C11   C18   A    
C25   H9    S    
C33   C34   S    
C35   C47   A    
C31   C50   S    
O9    C4    A    
C22   C23   A    
C55   H33   S    
C53   H27   S    
C49   O16   A    
C29   C30   A    
C11   C15   A    
C7    C18   A    
C33   H15   S    
O13   C52   A    
C27   C28   A    
C5    C13   A    
C4    C6    S    
H1    C14   S    
C10   C11   A    
C20   C52   S    
C21   H7    S    
O4    C2    A    
C7    H4    S    
C32   C33   S    
C29   H13   S    
C17   O21   S    
O2    C1    A    
C23   C24   A    
O5    V1    S    
C19   C20   A    
O14   C50   A    
O19   C52   A    
C26   H11   S    
C9    C10   A    
C35   H21   S    
C27   C32   A    
C43   C44   A    
C37   H23   S    
C39   H24   S    
O3    C4    A    
C48   C49   S    
O19   V4    S    
O12   C49   A    
C12   C16   A    
O6    V2    S    
C9    H5    S    
O9    V2    S    
C5    C17   A    
C54   H31   S    
C36   C46   A    
C40   C42   A    
C41   C48   A    
O2    V1    S    
C13   C14   A    
C24   C25   S    
C25   H10   S    
C33   H16   S    
C16   H3    S    
O1    C2    A    
C39   C40   A    
C2    C36   S    
C46   H22   S    
O8    C3    A    
H19   C47   S    
C26   H12   S    
C34   H18   S    
C19   C24   A    
C30   C31   A    
O7    V2    S    
O4    V1    S    
O3    V1    S    
V1    O10   S    
C31   C32   A    
O13   V3    S    
C38   H25   S    
O11   C50   A    
C5    H2    S    
C18   C51   S    
C53   C54   S    
C38   C39   A    
C8    O22   S    
C41   C45   A    
O21   C53   S    
C8    C9    A    
C36   C47   A    
C27   C34   S    
C56   H34   S    
C19   C26   S    
C7    C8    A    
C42   C46   A    
C55   C56   S    
O18   V4    S    
O17   V4    S    
C6    C17   A    
