data_mof_unit_29242.cif
_audit_creation_date              2012-10-26T19:42:19-0400
_audit_creation_method            fapswitch 2.2
_symmetry_space_group_name_H-M    P1
_symmetry_Int_Tables_number       1
_space_group_crystal_system       triclinic
_cell_length_a                    9.606745
_cell_length_b                    10.832851
_cell_length_c                    17.255762
_cell_angle_alpha                 94.122853
_cell_angle_beta                  86.640053
_cell_angle_gamma                 91.53024
_cell_volume                      1787.59794835

loop_
_atom_site_label
_atom_site_type_symbol
_atom_type_description
_atom_site_fract_x
_atom_site_fract_y
_atom_site_fract_z
_atom_type_partial_charge
C1    C     C_R   0.502271 0.737663 0.497578 0.559627
C2    C     C_R   0.523363 0.509430 0.265567 0.029687
C3    C     C_R   0.292078 0.871326 0.421035 -0.140260
C4    C     C_R   0.482466 0.496492 0.649708 0.548154
C5    C     C_R   0.165047 0.924918 0.410758 -0.111198
C6    C     C_R   0.129619 0.035143 0.452884 0.292949
C7    C     C_R   0.228492 0.099534 0.498235 0.272543
C8    C     C_R   0.367606 0.056764 0.495302 -0.018230
C9    C     C_R   0.389467 0.932358 0.469699 -0.045230
C10   C     C_R   0.505854 0.872616 0.495550 0.013384
C11   C     C_R   0.614244 0.944542 0.529766 0.241982
C12   C     C_R   0.351039 0.500362 0.778375 -0.115250
C13   C     C_R   0.607044 0.072310 0.534892 -0.049731
C14   C     C_R   0.486534 0.130045 0.516116 -0.021356
C15   C     C_R   0.876821 0.365677 0.370412 0.279167
C16   C     C_R   0.496147 0.263447 0.506884 0.594433
C17   C     C_R   0.965930 0.332004 0.305830 -0.108234
C18   C     C_R   0.105802 0.321587 0.314611 -0.192498
C19   C     C_R   0.158828 0.358904 0.385006 -0.064096
C20   C     C_R   0.080707 0.430843 0.442226 0.151400
C21   C     C_R   0.931120 0.431754 0.439461 0.179826
C22   C     C_R   0.922162 0.564380 0.555954 0.031012
C23   C     C_R   0.402345 0.525015 0.147665 -0.056131
C24   C     C_R   0.069883 0.565354 0.555449 0.038112
C25   C     C_R   0.517322 0.502970 0.350155 0.562734
C26   C     C_R   0.474942 0.479022 0.733092 0.013632
C27   C     C_R   0.591220 0.434219 0.766955 -0.099733
C28   C     C_R   0.585822 0.413154 0.845948 -0.004213
C29   C     C_R   0.462046 0.439672 0.891563 0.078280
C30   C     C_R   0.344915 0.481069 0.857305 -0.095394
C31   C     C_3   0.710589 0.360190 0.879916 -0.374691
C32   C     C_R   0.399246 0.521763 0.227901 -0.132738
C33   C     C_R   0.651243 0.504745 0.221773 -0.098448
C34   C     C_R   0.654010 0.507593 0.141088 -0.101176
C35   C     C_R   0.529173 0.514242 0.103889 0.071617
C36   C     C_2   0.454905 0.431922 0.975863 0.218841
C37   C     C_2   0.532220 0.512252 0.019151 -0.118337
Cl1   Cl    Cl    0.761413 0.882158 0.568130 -0.544646
Cl2   Cl    Cl    0.958802 0.087624 0.450275 -0.498164
Cl3   Cl    Cl    0.164993 0.203001 0.575673 -0.510620
Cl4   Cl    Cl    0.727810 0.268792 0.360568 -0.541935
Cl5   Cl    Cl    0.345226 0.316160 0.015613 -0.596247
Cu1   Cu    Cu3+1 0.359340 0.500010 0.500010 0.987896
Cu2   Cu    Cu3+1 0.640660 0.499990 0.499990 1.055397
H1    H     H_    0.685939 0.414025 0.731583 0.141912
H2    H     H_    0.262101 0.330349 0.391870 0.197259
H3    H     H_    0.121675 0.619526 0.600858 0.129371
H4    H     H_    0.748542 0.497892 0.249568 0.134326
H5    H     H_    0.603128 0.577350 0.990960 0.093674
H6    H     H_    0.249632 0.501026 0.892197 0.141443
H7    H     H_    0.305705 0.535185 0.119631 0.150518
H8    H     H_    0.259703 0.533412 0.753049 0.138694
H9    H     H_    0.793138 0.334566 0.834246 0.147346
H10   H     H_    0.756747 0.428915 0.922357 0.126100
H11   H     H_    0.678478 0.275437 0.909523 0.181140
H12   H     H_    0.752864 0.501884 0.107550 0.114300
H13   H     H_    0.313544 0.782486 0.390498 0.148618
H14   H     H_    0.090361 0.876156 0.374387 0.157612
H15   H     H_    0.695419 0.126994 0.555372 0.213281
H16   H     H_    0.863926 0.617398 0.601832 0.157352
H17   H     H_    0.925306 0.291423 0.252163 0.172095
H18   H     H_    0.299390 0.528892 0.260244 0.127587
H19   H     H_    0.171636 0.276346 0.268561 0.157639
N1    N     N_R   0.852190 0.498790 0.499250 -0.244895
N2    N     N_R   0.148060 0.498710 0.499220 -0.236769
O1    O     O_R   0.381190 0.680360 0.500010 -0.520511
O2    O     O_R   0.618760 0.680340 0.500000 -0.448129
O3    O     O_R   0.367440 0.500030 0.613600 -0.488253
O4    O     O_R   0.605010 0.500010 0.613590 -0.520970
O5    O     O_R   0.381240 0.319660 0.500000 -0.483664
O6    O     O_R   0.618810 0.319640 0.499990 -0.438777
O7    O     O_R   0.394990 0.499990 0.386410 -0.553817
O8    O     O_R   0.632560 0.499970 0.386400 -0.476603

loop_
_geom_bond_atom_site_label_1
_geom_bond_atom_site_label_2
_ccdc_geom_bond_type
C8    C9    A    
C11   Cl1   S    
C4    C26   S    
C7    Cl3   S    
C34   H12   S    
C29   C30   A    
C3    C9    A    
C4    O4    A    
Cu1   O5    S    
C37   H5    S    
C9    C10   A    
C6    C7    A    
C36   Cl5   S    
C19   C20   A    
C15   C21   A    
Cu1   N2    S    
C12   H8    S    
C23   C32   A    
C27   H1    S    
C22   C24   A    
C33   C34   A    
C30   H6    S    
C19   H2    S    
C32   H18   S    
Cu2   O4    S    
C31   H10   S    
C25   O7    A    
C13   C14   A    
Cu2   N1    S    
C11   C13   A    
C29   C36   S    
C26   C27   A    
Cu1   O7    S    
C16   O6    A    
C5    H14   S    
Cu1   O1    S    
C13   H15   S    
C3    H13   S    
C2    C33   A    
C28   C29   A    
C1    O2    A    
C17   C18   A    
C2    C25   S    
C25   O8    A    
Cu1   Cu2   S    
C22   H16   S    
C5    C6    A    
C34   C35   A    
C23   C35   A    
C14   C16   S    
C18   H19   S    
C31   H11   S    
C10   C11   A    
Cu2   O2    S    
C17   H17   S    
C22   N1    A    
C3    C5    A    
C20   N2    A    
C7    C8    A    
C16   O5    A    
C20   C21   A    
C15   Cl4   S    
Cu2   O6    S    
C2    C32   A    
C18   C19   A    
C35   C37   S    
Cu2   O8    S    
C4    O3    A    
C33   H4    S    
C24   N2    A    
C6    Cl2   S    
C36   C37   D    
C21   N1    A    
C8    C14   A    
C12   C30   A    
C15   C17   A    
C24   H3    S    
C23   H7    S    
C28   C31   S    
C31   H9    S    
C1    C10   S    
C12   C26   A    
Cu1   O3    S    
C27   C28   A    
C1    O1    A    
