data_mof_unit_17400.cif
_audit_creation_date              2012-12-11T14:17:57-0500
_audit_creation_method            fapswitch 2.2
_symmetry_space_group_name_H-M    P1
_symmetry_Int_Tables_number       1
_space_group_crystal_system       triclinic
_cell_length_a                    11.039039
_cell_length_b                    11.040775
_cell_length_c                    18.895631
_cell_angle_alpha                 90.022758
_cell_angle_beta                  90.021185
_cell_angle_gamma                 119.963692
_cell_volume                      1995.17735405

loop_
_atom_site_label
_atom_site_type_symbol
_atom_type_description
_atom_site_fract_x
_atom_site_fract_y
_atom_site_fract_z
_atom_type_partial_charge
C1    C     C_R   0.520979 0.454059 0.145661 0.526041
C2    C     C_R   0.942738 0.399774 0.542992 -0.169166
C3    C     C_R   0.453747 0.053253 0.542627 -0.168860
C4    C     C_R   0.600943 0.541407 0.543565 -0.161065
C5    C     C_R   0.681211 0.889837 0.545809 -0.125994
C6    C     C_R   0.102643 0.789213 0.546350 -0.109221
C7    C     C_R   0.211042 0.316621 0.545537 -0.052810
C8    C     C_R   0.137844 0.748146 0.405317 -0.135680
C9    C     C_R   0.608348 0.859891 0.404333 -0.142623
C10   C     C_R   0.254682 0.395176 0.404898 -0.118717
C11   C     C_R   0.750705 0.849601 0.497199 0.308079
C12   C     C_R   0.545904 0.066919 0.145643 0.526411
C13   C     C_R   0.142449 0.898906 0.497775 0.350532
C14   C     C_R   0.102277 0.248592 0.497031 0.343640
C15   C     C_R   0.159814 0.878318 0.426863 0.346299
C16   C     C_R   0.714551 0.834967 0.426069 0.317625
C17   C     C_R   0.123792 0.287451 0.425536 0.291093
C18   C     C_R   0.520632 0.456352 0.353859 0.527411
C19   C     C_R   0.543175 0.063128 0.353523 0.527366
C20   C     C_R   0.936678 0.480017 0.353592 0.530867
C21   C     C_R   0.450636 0.518202 0.644373 0.542690
C22   C     C_R   0.067860 0.549553 0.644271 0.545733
C23   C     C_R   0.933028 0.478926 0.145642 0.526099
C24   C     C_R   0.480955 0.930733 0.643958 0.548223
C25   C     C_R   0.497240 0.004113 0.922890 -0.003671
C26   C     C_R   0.996012 0.493297 0.922885 -0.003470
C27   C     C_R   0.506767 0.502807 0.922933 -0.003690
C28   C     C_R   0.972492 0.492577 0.070871 0.005066
C29   C     C_R   0.520113 0.027461 0.070866 0.004997
C30   C     C_R   0.507177 0.479891 0.070912 0.005049
C31   C     C_R   0.379518 0.981916 0.964355 0.028595
C32   C     C_R   0.018103 0.397654 0.964332 0.028504
C33   C     C_R   0.602178 0.620471 0.964485 0.028574
C34   C     C_R   0.459505 0.520083 0.852585 0.548349
C35   C     C_R   0.020633 0.408726 0.039127 0.017666
C36   C     C_R   0.388123 0.979295 0.039133 0.017684
C37   C     C_R   0.590931 0.611854 0.039262 0.017820
C38   C     C_R   0.638830 0.071253 0.027918 -0.134412
C39   C     C_R   0.928838 0.567686 0.027917 -0.134359
C40   C     C_R   0.432279 0.361230 0.027884 -0.134367
C41   C     C_R   0.943700 0.570828 0.955382 -0.146655
C42   C     C_R   0.627083 0.056481 0.955377 -0.146730
C43   C     C_R   0.429304 0.372997 0.955347 -0.146614
C44   C     C_R   0.253216 0.961229 0.934239 -0.087238
C45   C     C_R   0.060567 0.540538 0.852573 0.548954
C46   C     C_R   0.038749 0.292045 0.934185 -0.087423
C47   C     C_R   0.707741 0.746708 0.934463 -0.087416
C48   C     C_R   0.068978 0.333813 0.079801 -0.097513
C49   C     C_R   0.264937 0.930865 0.079812 -0.097520
C50   C     C_R   0.665624 0.735002 0.080028 -0.097402
C51   C     C_R   0.134736 0.919129 0.975611 -0.137110
C52   C     C_R   0.080773 0.215530 0.975547 -0.137356
C53   C     C_R   0.784121 0.865119 0.975930 -0.137243
C54   C     C_R   0.097638 0.237352 0.048041 -0.128347
C55   C     C_R   0.139792 0.902205 0.048083 -0.128336
C56   C     C_R   0.479957 0.939494 0.852569 0.549522
C57   C     C_R   0.762112 0.860078 0.048395 -0.128352
C58   C     C_R   0.507828 0.973671 0.569914 0.014113
C59   C     C_R   0.023063 0.533149 0.570413 0.010756
C60   C     C_R   0.467439 0.489856 0.570590 0.004933
C61   C     C_R   0.990142 0.496849 0.424740 0.015955
C62   C     C_R   0.505212 0.007995 0.424320 0.004404
C63   C     C_R   0.504772 0.493672 0.425025 0.008691
C64   C     C_R   0.579819 0.925920 0.523766 -0.018076
C65   C     C_R   0.069821 0.652762 0.524366 -0.006405
C66   C     C_R   0.348226 0.418966 0.524160 -0.023667
C67   C     C_R   0.460861 0.077728 0.470628 -0.119457
C68   C     C_R   0.072955 0.632190 0.451406 -0.027300
C69   C     C_R   0.557415 0.924634 0.450706 -0.037680
C70   C     C_R   0.369771 0.443429 0.451355 -0.027556
C71   C     C_R   0.918341 0.383083 0.470895 -0.133825
C72   C     C_R   0.618296 0.534555 0.471425 -0.108186
Cr1   Cr    Cr6+3 0.768550 0.541320 0.250660 1.020793
Cr2   Cr    Cr6+3 0.458680 0.227230 0.250660 1.020812
Cr3   Cr    Cr6+3 0.772770 0.231450 0.250660 1.017668
Cr4   Cr    Cr6+3 0.541320 0.768550 0.749340 0.996119
Cr5   Cr    Cr6+3 0.227230 0.458680 0.749340 1.001904
Cr6   Cr    Cr6+3 0.231450 0.772770 0.749340 0.992209
H1    H     H_    0.742841 0.117811 0.050375 0.152504
H2    H     H_    0.086516 0.349702 0.136156 0.127015
H3    H     H_    0.263379 0.913290 0.136149 0.126756
H4    H     H_    0.649568 0.736576 0.136362 0.126625
H5    H     H_    0.038490 0.898919 0.950823 0.101398
H6    H     H_    0.100969 0.139519 0.950727 0.101589
H7    H     H_    0.860149 0.961311 0.951220 0.101822
H8    H     H_    0.131313 0.178148 0.079916 0.121233
H9    H     H_    0.046973 0.868498 0.079967 0.121096
H10   H     H_    0.821187 0.952860 0.080348 0.121221
H11   H     H_    0.431245 0.151578 0.451069 0.203026
H12   H     H_    0.882308 0.625189 0.050364 0.152474
H13   H     H_    0.842794 0.280676 0.450998 0.168867
H14   H     H_    0.721266 0.562590 0.451768 0.201860
H15   H     H_    0.895701 0.309537 0.577586 0.155243
H16   H     H_    0.410078 0.099765 0.577326 0.136632
H17   H     H_    0.690771 0.583354 0.578458 0.136416
H18   H     H_    0.724725 0.908763 0.598001 0.165497
H19   H     H_    0.081856 0.812488 0.598492 0.138309
H20   H     H_    0.184714 0.272114 0.597611 0.176603
H21   H     H_    0.155952 0.734074 0.350347 0.098907
H22   H     H_    0.577464 0.843697 0.349157 0.105600
H23   H     H_    0.374862 0.257242 0.050273 0.152410
H24   H     H_    0.270175 0.428385 0.350082 0.101541
H25   H     H_    0.870922 0.840272 0.569734 0.298830
H26   H     H_    0.151332 0.028172 0.570354 0.298248
H27   H     H_    0.905605 0.116738 0.484273 0.364843
H28   H     H_    0.192869 0.951353 0.330901 0.309872
H29   H     H_    0.757382 0.805885 0.329932 0.311171
H30   H     H_    0.054948 0.249224 0.328539 0.322925
H31   H     H_    0.918713 0.638373 0.924728 0.131013
H32   H     H_    0.719585 0.081522 0.924712 0.131346
H33   H     H_    0.361910 0.280520 0.924622 0.131093
H34   H     H_    0.244718 0.982581 0.879314 0.132577
H35   H     H_    0.017414 0.262294 0.879237 0.133579
H36   H     H_    0.737583 0.755197 0.879545 0.132707
O1    O     O_R   0.910960 0.572410 0.171010 -0.530117
O2    O     O_R   0.528530 0.639750 0.824400 -0.512692
O3    O     O_R   0.111220 0.471470 0.824400 -0.511850
O4    O     O_R   0.360250 0.888780 0.824400 -0.512379
O5    O     O_R   0.909330 0.572400 0.331540 -0.497773
O6    O     O_R   0.427600 0.336930 0.331540 -0.496680
O7    O     O_R   0.663070 0.090670 0.331540 -0.503756
O8    O     O_R   0.572400 0.909330 0.668460 -0.542982
O9    O     O_R   0.336930 0.427600 0.668460 -0.549424
O10   O     O_R   0.090670 0.663070 0.668460 -0.547426
O11   O     O_R   0.638240 0.528520 0.324410 -0.492859
O12   O     O_R   0.427590 0.338550 0.171010 -0.529830
O13   O     O_R   0.471480 0.109720 0.324410 -0.494286
O14   O     O_R   0.890280 0.361760 0.324410 -0.491030
O15   O     O_R   0.528520 0.638240 0.675590 -0.508229
O16   O     O_R   0.109720 0.471480 0.675590 -0.501392
O17   O     O_R   0.361760 0.890280 0.675590 -0.509846
O18   O     O_3   0.666667 0.333333 0.250630 -0.254658
O19   O     O_3   0.333333 0.666667 0.749370 -0.240406
O20   O     O_3   0.857429 0.827123 0.517849 -0.648069
O21   O     O_3   0.164716 0.027991 0.518486 -0.642362
O22   O     O_3   0.976218 0.143710 0.522097 -0.703968
O23   O     O_R   0.661450 0.089040 0.171010 -0.529439
O24   O     O_3   0.193167 0.985573 0.379470 -0.619672
O25   O     O_3   0.789184 0.802590 0.378622 -0.617891
O26   O     O_3   0.018698 0.214730 0.376757 -0.676279
O27   O     O_R   0.572410 0.910960 0.828990 -0.517759
O28   O     O_R   0.338550 0.427590 0.828990 -0.518571
O29   O     O_R   0.089040 0.661450 0.828990 -0.519078
O30   O     O_R   0.639750 0.528530 0.175600 -0.516190
O31   O     O_R   0.471470 0.111220 0.175600 -0.515928
O32   O     O_R   0.888780 0.360250 0.175600 -0.515759

loop_
_geom_bond_atom_site_label_1
_geom_bond_atom_site_label_2
_ccdc_geom_bond_type
C25   C31   A    
C47   H36   S    
C26   C32   A    
Cr1   O5    S    
H26   O21   S    
Cr2   O18   S    
C12   C29   S    
Cr2   O31   S    
C61   C68   A    
C25   C56   S    
C39   C41   A    
Cr2   O12   S    
C27   C33   A    
C48   C54   A    
C29   C36   A    
C43   H33   S    
C62   C67   A    
C7    H20   S    
C9    C16   A    
C9    C69   A    
C20   O14   A    
Cr5   O3    S    
C31   C36   A    
C18   O11   A    
C72   H14   S    
C18   C63   S    
H28   O24   S    
C38   H1    S    
C19   C62   S    
C34   O2    A    
C46   C52   A    
C67   H11   S    
C10   C70   A    
Cr3   O14   S    
C11   C16   A    
C49   H3    S    
C20   C61   S    
C52   H6    S    
Cr5   O28   S    
C26   C45   S    
C40   H23   S    
C18   O6    A    
C7    C14   A    
C19   O7    A    
C28   C35   A    
C29   C38   A    
C17   O26   S    
Cr6   O10   S    
C39   H12   S    
C47   C53   A    
C15   O24   S    
Cr4   O27   S    
C61   C71   A    
Cr1   O18   S    
C60   C66   A    
C27   C34   S    
C41   H31   S    
C22   O16   A    
C55   H9    S    
C13   O21   S    
C14   C17   A    
Cr5   O19   S    
C35   C48   A    
C52   C54   A    
C62   C69   A    
C6    C65   A    
Cr3   O32   S    
C58   C64   A    
C23   O32   A    
C8    H21   S    
C31   C44   A    
C32   C35   A    
C10   H24   S    
C1    O12   A    
C21   C60   S    
Cr3   O23   S    
C11   O20   S    
C22   C59   S    
C54   H8    S    
C53   C57   A    
C2    C59   A    
C28   C39   A    
C49   C55   A    
C33   C37   A    
C30   C37   A    
C12   O31   A    
C21   O9    A    
Cr6   O17   S    
C6    H19   S    
C3    C58   A    
Cr5   O9    S    
C4    H17   S    
Cr4   O15   S    
Cr2   O13   S    
C63   C70   A    
C65   C68   A    
C4    C60   A    
C24   O8    A    
C30   C40   A    
C64   C69   A    
C21   O15   A    
H27   O22   S    
C56   O27   A    
C44   H34   S    
C44   C51   A    
C8    C68   A    
C8    C15   A    
C13   C15   A    
C5    C11   A    
C33   C47   A    
C16   O25   S    
C23   C28   S    
C2    C71   A    
C51   H5    S    
C4    C72   A    
C5    H18   S    
Cr3   O18   S    
C50   H4    S    
H30   O26   S    
C45   O3    A    
C34   O28   A    
C46   H35   S    
Cr6   O4    S    
Cr3   O7    S    
C50   C57   A    
C32   C46   A    
H25   O20   S    
C2    H15   S    
C3    C67   A    
C25   C42   A    
Cr4   O19   S    
C22   O10   A    
C9    H22   S    
Cr2   O6    S    
Cr1   O1    S    
C57   H10   S    
Cr4   O8    S    
C40   C43   A    
C48   H2    S    
C42   H32   S    
C1    O30   A    
Cr6   O29   S    
C59   C65   A    
C7    C66   A    
C56   O4    A    
C37   C50   A    
C24   O17   A    
C66   C70   A    
C14   O22   S    
Cr1   O11   S    
C19   O13   A    
C1    C30   S    
Cr4   O2    S    
C3    H16   S    
C51   C55   A    
Cr5   O16   S    
H29   O25   S    
Cr6   O19   S    
C23   O1    A    
C38   C42   A    
C27   C43   A    
C71   H13   S    
C63   C72   A    
C5    C64   A    
C24   C58   S    
C45   O29   A    
C12   O23   A    
C53   H7    S    
C10   C17   A    
C20   O5    A    
C36   C49   A    
C26   C41   A    
C6    C13   A    
Cr1   O30   S    
