data_mof_unit_67643.cif
_audit_creation_date              2012-12-10T19:08:06-0500
_audit_creation_method            fapswitch 2.2
_symmetry_space_group_name_H-M    P1
_symmetry_Int_Tables_number       1
_space_group_crystal_system       triclinic
_cell_length_a                    9.04026
_cell_length_b                    10.947376
_cell_length_c                    9.780811
_cell_angle_alpha                 92.153216
_cell_angle_beta                  88.852262
_cell_angle_gamma                 93.529086
_cell_volume                      965.308642226

loop_
_atom_site_label
_atom_site_type_symbol
_atom_type_description
_atom_site_fract_x
_atom_site_fract_y
_atom_site_fract_z
_atom_type_partial_charge
C1    C     C_R   0.507093 0.264031 0.497141 0.783931
C2    C     C_R   0.474401 0.933244 0.374153 0.101389
C3    C     C_R   0.495404 0.871725 0.499219 -0.137082
C4    C     C_R   0.518537 0.946987 0.616962 -0.055123
C5    C     C_3   0.603954 0.952622 0.748519 0.544763
C6    C     C_3   0.631064 0.093658 0.726532 0.540817
C7    C     C_R   0.623871 0.534238 0.070371 0.162504
C8    C     C_R   0.386543 0.439540 0.075001 0.183078
C9    C     C_R   0.381897 0.446786 0.926926 0.223243
C10   C     C_R   0.626530 0.525335 0.925785 0.143029
C11   C     C_3   0.730384 0.632633 0.913371 -0.531530
C12   C     C_R   0.221496 0.500081 0.500759 0.826413
C13   C     C_3   0.715959 0.653133 0.068624 -0.082400
C14   C     C_R   0.498690 0.737369 0.501292 0.820332
C15   C     C_R   0.778519 0.500254 0.499220 0.834001
C16   C     C_1   0.065775 0.500512 0.500995 -0.210045
C17   C     C_1   0.934221 0.500379 0.498846 -0.208864
C18   C     C_R   0.526609 0.071679 0.611299 -0.029428
C19   C     C_R   0.517391 0.131526 0.490988 -0.136742
C20   C     C_R   0.517058 0.059769 0.368583 0.086461
Cu1   Cu    Cu3+1 0.499990 0.499980 0.640670 0.946252
Cu2   Cu    Cu3+1 0.500010 0.500020 0.359330 0.916338
H1    H     H_    0.679759 0.699070 0.851195 0.255806
H2    H     H_    0.650845 0.733533 0.094782 0.156294
H3    H     H_    0.840583 0.605651 0.874931 0.200155
N1    N     N_R   0.500920 0.500930 0.147930 -0.229421
N2    N     N_R   0.500930 0.500890 0.852020 -0.206871
O1    O     O_R   0.500000 0.319640 0.618810 -0.555079
O2    O     O_R   0.500020 0.319680 0.381230 -0.610476
O3    O     O_R   0.288380 0.499980 0.618770 -0.585298
O4    O     O_R   0.288400 0.500020 0.381190 -0.572858
O5    O     O_R   0.499980 0.680320 0.618770 -0.561917
O6    O     O_R   0.500000 0.680360 0.381190 -0.585955
O7    O     O_R   0.711600 0.499980 0.618810 -0.572136
O8    O     O_R   0.711620 0.500020 0.381230 -0.571857
C21   C     C_3   0.587529 0.110431 0.238883 -0.370802
C22   C     C_3   0.745694 0.167457 0.261168 -0.817845
H4    H     H_    0.781075 0.227868 0.176988 0.225487
H5    H     H_    0.755827 0.224881 0.356391 0.258534
H6    H     H_    0.824761 0.093969 0.264336 0.230146
H7    H     H_    0.600116 0.036453 0.160829 0.177132
H8    H     H_    0.514304 0.175820 0.196293 0.210722
C23   C     C_3   0.863787 0.652831 0.143930 -0.342382
C24   C     C_3   0.866712 0.743028 0.267083 -0.827202
H9    H     H_    0.880562 0.838600 0.232363 0.231578
H10   H     H_    0.763427 0.733203 0.328806 0.277892
H11   H     H_    0.959302 0.724960 0.334371 0.244755
H12   H     H_    0.881976 0.559633 0.178334 0.224491
H13   H     H_    0.958052 0.680511 0.074835 0.188469
C25   C     C_3   0.392061 0.874265 0.251668 -0.387192
C26   C     C_3   0.235776 0.826374 0.290613 -0.817314
H14   H     H_    0.180450 0.786755 0.197366 0.240000
H15   H     H_    0.236387 0.754121 0.366856 0.258687
H16   H     H_    0.171148 0.902540 0.333313 0.241581
H17   H     H_    0.376733 0.942656 0.173257 0.190855
H18   H     H_    0.453555 0.801773 0.199396 0.220951
C27   C     C_3   0.496811 0.912562 0.869203 -0.393192
C28   C     C_3   0.334803 0.947406 0.861082 -0.875987
H19   H     H_    0.326665 0.047816 0.858021 0.284288
H20   H     H_    0.280235 0.902436 0.770071 0.249172
H21   H     H_    0.271732 0.914821 0.952534 0.232299
H22   H     H_    0.492109 0.811749 0.875409 0.208963
H23   H     H_    0.541427 0.951717 0.966047 0.174973
O9    O     O_3   0.733410 0.885665 0.735343 -0.593955
C29   C     C_3   0.827706 0.907401 0.849374 -0.410658
H24   H     H_    0.771163 0.888589 0.948436 0.160857
H25   H     H_    0.879601 0.000935 0.855079 0.168365
H26   H     H_    0.919827 0.845168 0.838051 0.204541
O10   O     O_3   0.561267 0.169847 0.825649 -0.585471
C30   C     C_3   0.660209 0.217862 0.925456 -0.384160
H27   H     H_    0.734441 0.292964 0.884684 0.177410
H28   H     H_    0.724682 0.145154 0.967165 0.157151
H29   H     H_    0.595192 0.260919 0.008453 0.190331
C31   C     C_3   0.787108 0.147020 0.669162 -0.402840
C32   C     C_3   0.867650 0.068031 0.561319 -0.841093
H30   H     H_    0.937541 0.003003 0.610175 0.280260
H31   H     H_    0.790269 0.015687 0.491679 0.273538
H32   H     H_    0.944005 0.128090 0.499369 0.223147
H33   H     H_    0.770843 0.236576 0.623978 0.197669
H34   H     H_    0.867353 0.169623 0.751629 0.176063
C33   C     C_3   0.280111 0.345303 0.145173 -0.334725
C34   C     C_3   0.119755 0.380668 0.167007 -0.837431
H35   H     H_    0.073050 0.341104 0.262714 0.237231
H36   H     H_    0.114952 0.481594 0.176343 0.267268
H37   H     H_    0.046965 0.341138 0.084835 0.227214
H38   H     H_    0.283282 0.254393 0.091333 0.142431
H39   H     H_    0.317118 0.324031 0.244501 0.257159
C35   C     C_3   0.245167 0.389284 0.855733 -0.253268
C36   C     C_3   0.122283 0.480495 0.849348 -0.826123
H40   H     H_    0.165915 0.571821 0.816211 0.267596
H41   H     H_    0.034572 0.442818 0.779147 0.238341
H42   H     H_    0.069116 0.498254 0.949554 0.219477
H43   H     H_    0.274864 0.345668 0.756827 0.231504
H44   H     H_    0.196953 0.306283 0.903601 0.151388

loop_
_geom_bond_atom_site_label_1
_geom_bond_atom_site_label_2
_ccdc_geom_bond_type
C10   N2    A    
C7    C10   A    
Cu2   O2    S    
C6    O10   S    
C8    N1    A    
C21   H8    S    
C19   C20   A    
C23   C24   S    
C14   O6    A    
C33   C34   S    
C27   H22   S    
Cu2   O8    S    
C7    N1    A    
C21   C22   S    
C22   H6    S    
C9    C35   S    
C5    C6    S    
C11   H3    S    
C28   H20   S    
C18   C19   A    
C2    C25   S    
C12   C16   S    
C8    C9    A    
C29   H25   S    
C1    O1    A    
C27   H23   S    
C30   H27   S    
C36   H41   S    
C23   H12   S    
C15   O7    A    
C33   H38   S    
C24   H11   S    
C4    C18   A    
C28   H21   S    
Cu1   N2    S    
C31   H34   S    
Cu1   Cu2   S    
C21   H7    S    
C15   O8    A    
C24   H10   S    
C6    C31   S    
C6    C18   S    
Cu1   O5    S    
C35   H44   S    
C1    C19   S    
C31   C32   S    
C2    C20   A    
C8    C33   S    
Cu2   O4    S    
C23   H13   S    
Cu1   O7    S    
C28   H19   S    
C25   H18   S    
C26   H14   S    
C13   H2    S    
C26   H15   S    
C32   H30   S    
C22   H4    S    
C29   H26   S    
C30   H29   S    
C1    O2    A    
C25   C26   S    
C36   H42   S    
C32   H31   S    
C33   H39   S    
C3    C14   S    
Cu1   O1    S    
C29   H24   S    
C34   H36   S    
C31   H33   S    
C12   O4    A    
C3    C4    A    
C13   C23   S    
C24   H9    S    
C9    N2    A    
C15   C17   S    
Cu2   O6    S    
C35   H43   S    
C12   O3    A    
C14   O5    A    
C4    C5    S    
C34   H37   S    
Cu1   O3    S    
C25   H17   S    
C5    C27   S    
C26   H16   S    
O9    C29   S    
C2    C3    A    
C22   H5    S    
C11   C13   S    
C27   C28   S    
C16   C17   T    
C11   H1    S    
O10   C30   S    
C32   H32   S    
C10   C11   S    
C20   C21   S    
C7    C13   S    
C35   C36   S    
C5    O9    S    
C34   H35   S    
Cu2   N1    S    
C30   H28   S    
C36   H40   S    
