data_mof_unit_44586.cif
_audit_creation_date              2012-10-26T19:41:51-0400
_audit_creation_method            fapswitch 2.2
_symmetry_space_group_name_H-M    P1
_symmetry_Int_Tables_number       1
_space_group_crystal_system       triclinic
_cell_length_a                    10.762969
_cell_length_b                    10.789741
_cell_length_c                    9.739354
_cell_angle_alpha                 90.863945
_cell_angle_beta                  93.506892
_cell_angle_gamma                 92.045267
_cell_volume                      1128.02173183

loop_
_atom_site_label
_atom_site_type_symbol
_atom_type_description
_atom_site_fract_x
_atom_site_fract_y
_atom_site_fract_z
_atom_type_partial_charge
C1    C     C_R   0.500918 0.261017 0.499014 0.612685
C2    C     C_R   0.514025 0.056747 0.622561 -0.038288
C3    C     C_R   0.493199 0.122751 0.497684 0.049025
C4    C     C_R   0.260308 0.502075 0.496493 0.609371
C5    C     C_R   0.437651 0.056835 0.380127 0.196324
C6    C     C_R   0.407575 0.929444 0.386297 -0.021648
C7    C     C_R   0.443732 0.865954 0.505471 -0.006826
C8    C     C_R   0.678159 0.677027 0.133296 0.085235
C9    C     C_R   0.746922 0.752595 0.042087 0.183834
C10   C     C_R   0.740790 0.724063 0.902658 0.024180
C11   C     C_R   0.695099 0.607791 0.865013 0.295107
C12   C     C_3   0.948055 0.463621 0.374362 0.221602
C13   C     C_R   0.592824 0.562291 0.930491 0.114135
C14   C     C_R   0.589122 0.576846 0.077817 0.103945
C15   C     C_R   0.411470 0.436938 0.065916 0.420554
C16   C     C_R   0.478611 0.734228 0.500375 0.585601
C17   C     C_R   0.414276 0.433239 0.919693 0.393097
C18   C     C_R   0.739802 0.488426 0.503197 0.618208
C19   C     C_3   0.055860 0.512059 0.624247 -0.166120
C20   C     C_3   0.973937 0.395330 0.583516 -0.043881
C21   C     C_3   0.878141 0.479087 0.507727 -0.002689
C22   C     C_3   0.961222 0.595300 0.547312 -0.096632
C23   C     C_3   0.043158 0.381651 0.450676 -0.035108
C24   C     C_3   0.030283 0.579199 0.414434 0.276524
C25   C     C_2   0.967867 0.292481 0.684460 0.406131
C26   C     C_2   0.316991 0.871370 0.280659 0.402178
C27   C     C_2   0.693240 0.734516 0.270278 0.407973
C28   C     C_2   0.791700 0.807269 0.798567 0.266639
C29   C     C_2   0.090798 0.264187 0.392267 0.385008
C30   C     C_2   0.628434 0.106940 0.000136 0.394275
C31   C     C_3   0.123960 0.497363 0.490673 -0.014911
C32   C     C_R   0.581177 0.105757 0.742291 0.257819
C33   C     C_R   0.567393 0.050939 0.871295 0.022000
C34   C     C_R   0.490987 0.943141 0.877375 0.205997
C35   C     C_R   0.436140 0.887569 0.757323 0.299535
C36   C     C_R   0.464537 0.935097 0.628717 -0.041177
Cl1   Cl    Cl    0.468693 0.870564 0.033116 -0.606693
Cl2   Cl    Cl    0.707408 0.210103 0.725488 -0.503333
Cl3   Cl    Cl    0.312046 0.776145 0.769755 -0.467952
Cl4   Cl    Cl    0.279262 0.370282 0.137132 -0.385497
Cl5   Cl    Cl    0.841975 0.884379 0.100390 -0.517196
Cl6   Cl    Cl    0.817216 0.503732 0.868967 -0.490303
Cl7   Cl    Cl    0.309661 0.328239 0.827327 -0.445899
Cl8   Cl    Cl    0.056159 0.700509 0.297927 -0.353335
Cl9   Cl    Cl    0.883998 0.427045 0.204696 -0.407418
Cl10  Cl    Cl    0.409455 0.126975 0.219518 -0.490675
Cu1   Cu    Cu3+1 0.499990 0.499990 0.640660 1.171160
Cu2   Cu    Cu3+1 0.500010 0.500010 0.359340 1.195659
H1    H     H_    0.099672 0.533651 0.728516 0.230218
H2    H     H_    0.933125 0.685444 0.588145 0.234264
H3    H     H_    0.958074 0.313003 0.792265 0.223022
H4    H     H_    0.254172 0.928748 0.220435 0.224352
H5    H     H_    0.639451 0.815354 0.290454 0.141949
H6    H     H_    0.856229 0.883787 0.828038 0.210082
H7    H     H_    0.046081 0.222358 0.299214 0.192483
H8    H     H_    0.643559 0.051217 0.090769 0.186030
N1    N     N_R   0.501210 0.501210 0.147910 -0.244382
N2    N     N_R   0.501250 0.501290 0.852040 -0.253001
O1    O     O_R   0.499990 0.319640 0.618810 -0.444290
O2    O     O_2   0.310579 0.760037 0.257593 -0.389181
O3    O     O_2   0.782806 0.714864 0.348061 -0.426298
O4    O     O_2   0.757420 0.793975 0.677302 -0.500993
O5    O     O_2   0.178441 0.213842 0.450674 -0.435685
O6    O     O_2   0.657663 0.217275 0.009229 -0.377878
O7    O     O_R   0.500000 0.319660 0.381240 -0.438804
O8    O     O_R   0.316850 0.499960 0.618770 -0.462419
O9    O     O_R   0.316860 0.499980 0.381190 -0.429180
O10   O     O_R   0.500000 0.680340 0.618760 -0.477151
O11   O     O_R   0.500010 0.680360 0.381190 -0.513712
O12   O     O_R   0.683140 0.500020 0.618810 -0.457348
O13   O     O_R   0.683150 0.500040 0.381230 -0.466176
O14   O     O_2   0.978121 0.184919 0.647556 -0.394121

loop_
_geom_bond_atom_site_label_1
_geom_bond_atom_site_label_2
_ccdc_geom_bond_type
C18   O12   A    
C29   O5    D    
C30   O6    D    
C34   Cl1   S    
C7    C36   A    
C19   C20   S    
Cu2   O11   S    
C19   C31   S    
C25   H3    S    
Cu2   N1    S    
C12   C23   S    
C23   C29   S    
C1    O1    A    
C5    C6    A    
C20   C25   S    
C10   C28   S    
C18   C21   S    
C11   Cl6   S    
C2    C32   A    
C34   C35   A    
C27   O3    D    
C35   C36   A    
C8    C9    A    
C1    O7    A    
C16   O10   A    
C32   Cl2   S    
Cu2   O7    S    
C9    C10   A    
Cu1   O8    S    
C17   N2    A    
C22   H2    S    
C13   C14   A    
C15   N1    A    
C19   C22   S    
C28   H6    S    
C13   N2    A    
C29   H7    S    
C30   H8    S    
C12   C21   S    
C1    C3    S    
C23   C31   S    
C35   Cl3   S    
C17   Cl7   S    
Cu1   O12   S    
C26   H4    S    
C19   H1    S    
Cu1   Cu2   S    
C20   C23   S    
C33   C34   A    
C25   O14   D    
C7    C16   S    
C24   Cl8   S    
C22   C24   S    
Cu2   O13   S    
Cu1   O10   S    
C2    C36   A    
C18   O13   A    
C15   C17   A    
C14   N1    A    
C8    C14   A    
C30   C33   S    
C16   O11   A    
C12   Cl9   S    
C3    C5    A    
C4    O9    A    
C27   H5    S    
C6    C7    A    
C5    Cl10  S    
C12   C24   S    
C9    Cl5   S    
C32   C33   A    
C2    C3    A    
C24   C31   S    
Cu1   N2    S    
C4    O8    A    
C11   C13   A    
C6    C26   S    
Cu2   O9    S    
C15   Cl4   S    
C4    C31   S    
C10   C11   A    
Cu1   O1    S    
C20   C21   S    
C8    C27   S    
C21   C22   S    
C26   O2    D    
C28   O4    D    
