data_mof_unit_7444.cif
_audit_creation_date              2012-12-10T17:37:49-0500
_audit_creation_method            fapswitch 2.2
_symmetry_space_group_name_H-M    P1
_symmetry_Int_Tables_number       1
_space_group_crystal_system       triclinic
_cell_length_a                    12.410472
_cell_length_b                    13.204065
_cell_length_c                    17.262835
_cell_angle_alpha                 106.141728
_cell_angle_beta                  74.281871
_cell_angle_gamma                 116.737435
_cell_volume                      2391.45654131

loop_
_atom_site_label
_atom_site_type_symbol
_atom_type_description
_atom_site_fract_x
_atom_site_fract_y
_atom_site_fract_z
_atom_type_partial_charge
C1    C     C_R   0.144634 0.714534 0.508373 0.826421
C2    C     C_R   0.987970 0.609702 0.796252 0.386648
C3    C     C_R   0.033702 0.594770 0.156117 0.397608
C4    C     C_R   0.015161 0.590495 0.239707 0.062310
C5    C     C_R   0.035167 0.405057 0.200380 0.422181
C6    C     C_R   0.049751 0.409714 0.118638 -0.209436
C7    C     C_R   0.046514 0.501904 0.096402 -0.125742
C8    C     C_2   0.961440 0.510336 0.988515 -0.155187
C9    C     C_2   0.050635 0.497416 0.009334 0.474780
C10   C     C_R   0.019931 0.496798 0.261716 -0.228132
C11   C     C_R   0.738129 0.973636 0.402664 0.168557
C12   C     C_R   0.986849 0.503399 0.652004 0.794924
C13   C     C_R   0.774857 0.160885 0.488915 -0.271034
C14   C     C_R   0.189925 0.916962 0.581800 0.024433
C15   C     C_R   0.272290 0.999649 0.633603 0.302984
C16   C     C_R   0.396380 0.016548 0.612715 0.458816
C17   C     C_R   0.440433 0.967989 0.533268 -0.016031
C18   C     C_R   0.355165 0.873432 0.488324 -0.124912
C19   C     C_R   0.566980 0.009029 0.497786 0.035758
C20   C     C_R   0.610252 0.936053 0.431841 -0.124317
C21   C     C_R   0.522983 0.831999 0.395881 0.160263
C22   C     C_R   0.399867 0.814294 0.414669 0.179203
C23   C     C_R   0.855795 0.285732 0.493260 0.830332
C24   C     C_R   0.648237 0.125136 0.520008 0.425648
C25   C     C_R   0.818433 0.076587 0.442709 0.122814
C26   C     C_R   0.228022 0.839200 0.519493 -0.153854
C27   C     C_R   0.639856 0.678223 0.630817 0.111953
C28   C     C_R   0.255298 0.359104 0.383424 0.522599
C29   C     C_R   0.365347 0.343993 0.349094 0.011019
C30   C     C_R   0.468309 0.409331 0.387121 0.422118
C31   C     C_R   0.457352 0.476516 0.466731 -0.093986
C32   C     C_R   0.347870 0.496867 0.494904 0.150005
C33   C     C_R   0.553651 0.531713 0.516216 -0.034002
C34   C     C_R   0.012606 0.496636 0.347802 0.836152
C35   C     C_R   0.546570 0.620100 0.583363 -0.049880
C36   C     C_R   0.443797 0.646108 0.604326 -0.176468
C37   C     C_R   0.345824 0.583637 0.563038 -0.093221
C38   C     C_R   0.653437 0.499021 0.503835 0.481513
C39   C     C_R   0.739518 0.648198 0.612575 0.507567
C40   C     C_R   0.980100 0.507634 0.738230 -0.270187
C41   C     C_R   0.962780 0.408362 0.763756 0.114925
C42   C     C_R   0.954889 0.410981 0.845881 -0.121615
C43   C     C_R   0.962618 0.510918 0.903662 -0.075341
C44   C     C_R   0.976099 0.610506 0.879338 0.458106
Cu1   Cu    Cu3+1 0.900140 0.524980 0.518800 1.000849
Cu2   Cu    Cu3+1 0.099860 0.475020 0.481200 1.028917
H1    H     H_    0.058512 0.338081 0.072054 0.203768
H2    H     H_    0.435002 0.713018 0.655133 0.178832
H3    H     H_    0.271133 0.608947 0.585621 0.184271
H4    H     H_    0.888583 0.525354 0.035091 0.160405
H5    H     H_    0.942625 0.334389 0.865003 0.204405
N1    N     N_R   0.749710 0.562810 0.547300 -0.295201
N2    N     N_R   0.249640 0.437820 0.453210 -0.220144
O1    O     O_R   0.025490 0.682370 0.523640 -0.580579
O2    O     O_R   0.194150 0.640180 0.491890 -0.600985
O3    O     O_R   0.905900 0.523560 0.631310 -0.582954
O4    O     O_R   0.074570 0.481370 0.599560 -0.582283
O5    O     O_R   0.805850 0.359820 0.508110 -0.558851
O6    O     O_R   0.974510 0.317630 0.476360 -0.505523
O7    O     O_R   0.925430 0.518630 0.400440 -0.596534
O8    O     O_R   0.094100 0.476440 0.368690 -0.502194
I1    I     I_    0.942860 0.249378 0.682621 -0.210448
I2    I     I_    0.998526 0.091631 0.438812 -0.152701
I3    I     I_    0.557228 0.683132 0.331057 -0.258024
I4    I     I_    0.818536 0.918589 0.280990 -0.142979
O9    O     O_3   0.600897 0.204478 0.565320 -0.630651
H6    H     H_    0.653964 0.254995 0.606736 0.357937
I5    I     I_    0.019717 0.924336 0.588185 -0.165547
O10   O     O_3   0.474640 0.074514 0.669412 -0.690433
H7    H     H_    0.428913 0.095252 0.723526 0.382783
O11   O     O_3   0.235487 0.065062 0.704219 -0.682603
H8    H     H_    0.145506 0.028214 0.719987 0.375143
I6    I     I_    0.299339 0.730630 0.316554 -0.226544
O12   O     O_3   0.820053 0.702048 0.667065 -0.656246
H9    H     H_    0.896103 0.692904 0.641823 0.377588
I7    I     I_    0.975853 0.724347 0.330822 -0.217416
I8    I     I_    0.637576 0.814893 0.732749 -0.142337
O13   O     O_3   0.641411 0.392565 0.457836 -0.642090
H10   H     H_    0.720545 0.401440 0.422261 0.371713
O14   O     O_3   0.154696 0.303390 0.344796 -0.655424
H11   H     H_    0.165499 0.242759 0.298938 0.353863
O15   O     O_3   0.579983 0.418516 0.339189 -0.650856
H12   H     H_    0.641385 0.497592 0.354844 0.339943
I9    I     I_    0.388362 0.236457 0.233206 -0.125923
O16   O     O_3   0.030813 0.306961 0.217371 -0.665359
H13   H     H_    0.984023 0.296356 0.273007 0.340822
O17   O     O_3   0.143074 0.478620 0.949590 -0.690725
H14   H     H_    0.202948 0.477266 0.976980 0.345201
O18   O     O_3   0.984269 0.712149 0.933424 -0.626488
H15   H     H_    0.973939 0.702697 0.990122 0.359488
O19   O     O_3   0.039923 0.687565 0.130088 -0.715308
H16   H     H_    0.063949 0.757055 0.172926 0.375146
O20   O     O_3   0.010051 0.711405 0.774493 -0.630027
H17   H     H_    0.046813 0.710062 0.715916 0.296013

loop_
_geom_bond_atom_site_label_1
_geom_bond_atom_site_label_2
_ccdc_geom_bond_type
C23   O5    A    
O17   H14   S    
Cu1   O7    S    
C12   C40   S    
O20   H17   S    
Cu2   O6    S    
C41   C42   A    
C35   C36   A    
C18   C26   A    
C8    C43   S    
C1    O1    A    
Cu1   Cu2   S    
C23   O6    A    
C36   C37   A    
C3    C7    A    
C5    C6    A    
C38   N1    A    
C11   C25   A    
C15   C16   A    
C13   C23   S    
C3    O19   S    
C25   I2    S    
C39   O12   S    
C21   I3    S    
C33   C35   A    
C19   C20   A    
Cu1   O3    S    
C2    C44   A    
C8    C9    D    
Cu2   O2    S    
C31   C33   A    
C36   H2    S    
C24   O9    S    
C42   H5    S    
C5    O16   S    
O9    H6    S    
C21   C22   A    
C34   O7    A    
C13   C25   A    
C41   I1    S    
Cu1   O5    S    
C11   C20   A    
O12   H9    S    
Cu2   O8    S    
C29   I9    S    
C6    H1    S    
C27   C39   A    
O19   H16   S    
O13   H10   S    
C16   C17   A    
C38   O13   S    
Cu1   N1    S    
C27   C35   A    
O16   H13   S    
C34   O8    A    
C13   C24   A    
C30   O15   S    
C43   C44   A    
C29   C30   A    
C37   H3    S    
C31   C32   A    
C17   C18   A    
C10   C34   S    
C32   C37   A    
C14   C26   A    
C12   O3    A    
C12   O4    A    
C40   C41   A    
Cu1   O1    S    
Cu2   O4    S    
C1    C26   S    
C42   C43   A    
C4    C10   A    
C3    C4    A    
C8    H4    S    
C32   N2    A    
C7    C9    S    
C28   C29   A    
C18   C22   A    
C2    O20   S    
C16   O10   S    
O14   H11   S    
C27   I8    S    
C28   N2    A    
C6    C7    A    
C15   O11   S    
C33   C38   A    
C19   C24   A    
C1    O2    A    
O11   H8    S    
C9    O17   S    
C30   C31   A    
Cu2   N2    S    
C17   C19   A    
C39   N1    A    
O10   H7    S    
C28   O14   S    
C4    I7    S    
C2    C40   A    
C5    C10   A    
C20   C21   A    
O15   H12   S    
C14   I5    S    
C14   C15   A    
C22   I6    S    
O18   H15   S    
C44   O18   S    
C11   I4    S    
