data_mof_unit_9160.cif
_audit_creation_date              2012-12-11T14:17:29-0500
_audit_creation_method            fapswitch 2.2
_symmetry_space_group_name_H-M    P1
_symmetry_Int_Tables_number       1
_space_group_crystal_system       triclinic
_cell_length_a                    6.946983
_cell_length_b                    13.765297
_cell_length_c                    20.338099
_cell_angle_alpha                 102.111576
_cell_angle_beta                  90.032943
_cell_angle_gamma                 90.093582
_cell_volume                      1901.58251779

loop_
_atom_site_label
_atom_site_type_symbol
_atom_type_description
_atom_site_fract_x
_atom_site_fract_y
_atom_site_fract_z
_atom_type_partial_charge
O1    O     O_R   0.506860 0.599390 0.449240 -0.540507
O2    O     O_R   0.180220 0.594600 0.586780 -0.545143
O3    O     O_R   0.004500 0.400610 0.550760 -0.545062
C1    C     C_R   0.347583 0.619098 0.612706 0.727419
O4    O     O_R   0.177490 0.611290 0.451970 -0.539852
O5    O     O_R   0.001750 0.417420 0.414990 -0.509885
C2    C     C_R   0.345409 0.637562 0.435064 0.711823
O6    O     O_R   0.509610 0.582580 0.585010 -0.546694
O7    O     O_3   0.337420 0.436370 0.488020 -0.365435
V1    V     V_3+5 0.064680 0.511800 0.502220 1.432426
O8    O     O_R   0.671710 0.405400 0.413220 -0.545771
C3    C     C_R   0.840916 0.384036 0.386444 0.763369
O9    O     O_R   0.674440 0.388710 0.548030 -0.543921
C4    C     C_R   0.843834 0.361380 0.564170 0.671542
V2    V     V_3+5 0.564010 0.488200 0.497780 1.419407
O10   O     O_3   0.841140 0.563630 0.511980 -0.379918
C5    C     C_R   0.831402 0.111296 0.610796 -0.161273
H1    H     H_    0.801581 0.162955 0.518796 0.101702
H2    H     H_    0.822745 0.986679 0.693663 0.116150
H3    H     H_    0.807582 0.034533 0.585911 0.112084
C6    C     C_R   0.854652 0.283452 0.603401 -0.043930
C7    C     C_R   0.878674 0.310286 0.927846 -0.243876
C8    C     C_R   0.920563 0.383793 0.893130 -0.196355
C9    C     C_R   0.953869 0.360323 0.823720 0.399681
C10   C     C_R   0.907424 0.263411 0.785618 -0.028502
C11   C     C_R   0.873941 0.187333 0.822474 0.017106
C12   C     C_R   0.890921 0.238263 0.713472 0.082264
C13   C     C_R   0.858215 0.137478 0.680830 0.144951
C14   C     C_R   0.845295 0.063689 0.718300 -0.205519
C15   C     C_R   0.850225 0.088196 0.787942 -0.178087
C16   C     C_R   0.890558 0.309669 0.672561 -0.223834
C17   C     C_R   0.827172 0.184054 0.572462 -0.169278
C18   C     C_R   0.866038 0.211821 0.893646 -0.069266
H4    H     H_    0.908127 0.386948 0.692646 0.169044
H5    H     H_    0.868217 0.329504 0.982209 0.126518
H6    H     H_    0.938717 0.459338 0.921069 0.137689
H7    H     H_    0.830546 0.028618 0.814633 0.111702
C19   C     C_2   0.012757 0.278567 0.288029 0.456996
C20   C     C_2   0.848179 0.317557 0.318656 -0.384682
H8    H     H_    0.711600 0.302425 0.293140 0.092084
C21   C     C_2   0.014936 0.218258 0.217276 -0.234236
C22   C     C_2   0.859241 0.176760 0.182665 -0.369319
H9    H     H_    0.154914 0.206830 0.193143 0.152396
H10   H     H_    0.717475 0.184920 0.205256 0.131301
C23   C     C_2   0.222161 0.817673 0.775288 -0.161089
C24   C     C_2   0.363505 0.817112 0.819911 -0.335009
H11   H     H_    0.105494 0.870645 0.788849 0.131509
H12   H     H_    0.481136 0.764742 0.808172 0.125786
C25   C     C_2   0.198905 0.738672 0.713303 0.116879
C26   C     C_2   0.354019 0.698706 0.675371 -0.349869
H13   H     H_    0.494714 0.730832 0.689196 0.122246
C27   C     C_R   0.238974 0.877466 0.384585 -0.171547
H14   H     H_    0.239055 0.827731 0.477478 0.105426
H15   H     H_    0.181039 0.995800 0.299545 0.129146
H16   H     H_    0.180301 0.949233 0.407944 0.125220
C28   C     C_R   0.346239 0.714911 0.395651 -0.040964
C29   C     C_R   0.419002 0.688939 0.072144 -0.167114
C30   C     C_R   0.442824 0.614839 0.108396 -0.121532
C31   C     C_R   0.417628 0.635695 0.177883 -0.155261
C32   C     C_R   0.364017 0.731939 0.212916 0.076741
C33   C     C_R   0.330732 0.806387 0.174797 0.070793
C34   C     C_R   0.341701 0.756730 0.284351 0.071319
C35   C     C_R   0.272882 0.852742 0.315130 0.147991
C36   C     C_R   0.235527 0.923081 0.276417 -0.219265
C37   C     C_R   0.268017 0.901286 0.207660 -0.206581
C38   C     C_R   0.382041 0.689277 0.326447 -0.212538
C39   C     C_R   0.273634 0.808721 0.424377 -0.170807
C40   C     C_R   0.363505 0.784534 0.104489 -0.077276
H17   H     H_    0.434127 0.615139 0.306933 0.106363
H18   H     H_    0.445922 0.672170 0.018545 0.107336
H19   H     H_    0.439549 0.574541 0.202486 0.112496
H20   H     H_    0.484557 0.540902 0.082570 0.119906
H21   H     H_    0.239934 0.959316 0.180361 0.127160
O11   O     O_R   0.203230 0.917310 0.915020 -0.538714
O12   O     O_R   0.535500 0.888690 0.048040 -0.539880
O13   O     O_R   0.711080 0.082610 0.085000 -0.543216
C41   C     C_R   0.367320 0.862625 0.065219 0.688381
O14   O     O_R   0.532630 0.905370 0.913230 -0.547587
O15   O     O_R   0.708190 0.099410 0.949230 -0.542367
C42   C     C_R   0.365229 0.885752 0.886115 0.758712
O16   O     O_R   0.206120 0.900510 0.050790 -0.542729
O17   O     O_3   0.375360 0.063570 0.011990 -0.373838
V3    V     V_3+5 0.648170 0.988200 0.997780 1.417974
O18   O     O_R   0.038240 0.111390 0.951940 -0.542605
C43   C     C_R   0.869873 0.135704 0.933860 0.704663
O19   O     O_R   0.041120 0.094710 0.086750 -0.544820
C44   C     C_R   0.872312 0.114484 0.113931 0.771233
V4    V     V_3+5 0.148810 0.011930 0.002180 1.416199
O20   O     O_3   0.871750 0.936430 0.988010 -0.373624
C45   C     C_3   0.993348 0.701960 0.700953 -0.338538
C46   C     C_3   0.966906 0.607200 0.728008 -0.235398
C47   C     C_3   0.758465 0.572799 0.723230 -0.793802
H22   H     H_    0.662414 0.634389 0.746121 0.214169
H23   H     H_    0.720034 0.543535 0.670096 0.243093
H24   H     H_    0.737645 0.512800 0.751063 0.237779
H25   H     H_    0.059054 0.547137 0.699433 0.199256
H26   H     H_    0.011038 0.622045 0.781782 0.219151
H27   H     H_    0.892275 0.758758 0.728632 0.143780
H28   H     H_    0.948315 0.692960 0.647802 0.192659
O21   O     O_3   0.034845 0.433174 0.795196 -0.600729
C48   C     C_3   0.237699 0.433213 0.802490 0.055590
H29   H     H_    0.299067 0.466931 0.762016 0.144416
H30   H     H_    0.298914 0.356711 0.794754 0.117841
C49   C     C_3   0.300489 0.495717 0.871046 -0.328734
H31   H     H_    0.208151 0.562795 0.884906 0.201725
H32   H     H_    0.285356 0.450733 0.910140 0.189897
C50   C     C_3   0.509458 0.528633 0.870403 -0.828183
H33   H     H_    0.600597 0.465052 0.846575 0.244607
H34   H     H_    0.561026 0.556656 0.922561 0.224792
H35   H     H_    0.522127 0.589345 0.842472 0.231789
O22   O     O_3   0.187977 0.307656 0.318954 -0.559883
C51   C     C_3   0.290384 0.225068 0.332229 0.090286
H36   H     H_    0.442948 0.248162 0.339452 0.151201
H37   H     H_    0.288965 0.159718 0.289457 0.077987
C52   C     C_3   0.218985 0.195845 0.396938 -0.315298
H38   H     H_    0.179181 0.263009 0.434851 0.233835
H39   H     H_    0.088624 0.148374 0.385661 0.151385
C53   C     C_3   0.374102 0.140496 0.427618 -0.840800
H40   H     H_    0.426129 0.075259 0.390150 0.229762
H41   H     H_    0.314411 0.114859 0.471700 0.232124
H42   H     H_    0.497803 0.190691 0.444833 0.231687

loop_
_geom_bond_atom_site_label_1
_geom_bond_atom_site_label_2
_ccdc_geom_bond_type
C24   C42   S    
C48   H29   S    
C50   H34   S    
C21   C22   D    
O22   C51   S    
O15   C43   A    
C25   C45   S    
C1    O6    A    
C30   H20   S    
C51   H37   S    
C45   C46   S    
C23   C24   D    
C7    H5    S    
C6    C16   A    
C34   C35   A    
C4    C6    S    
C13   C14   A    
O5    C3    A    
C19   C20   D    
O14   C42   A    
C38   H17   S    
C52   H38   S    
C8    H6    S    
C5    H3    S    
C37   H21   S    
C32   C34   A    
C18   C43   S    
C53   H40   S    
C51   H36   S    
C46   H25   S    
O8    V2    S    
O14   V3    S    
C52   H39   S    
C8    C9    A    
O1    V2    S    
C23   C25   S    
C29   H18   S    
O7    V1    S    
O17   V4    S    
C27   H16   S    
C31   C32   A    
C48   H30   S    
O1    C2    A    
O9    C4    A    
C21   H9    S    
C22   H10   S    
C2    C28   S    
O13   V3    S    
C49   H32   S    
C49   H31   S    
C23   H11   S    
V3    O20   S    
C6    C17   A    
C24   H12   S    
C34   C38   A    
C12   C16   A    
O18   C43   A    
C19   C21   S    
C20   H8    S    
O4    C2    A    
O19   C44   A    
C10   C11   A    
O17   V3    S    
C47   H24   S    
C46   H26   S    
C15   H7    S    
C1    C26   S    
C32   C33   A    
C53   H42   S    
O2    C1    A    
C14   C15   A    
C11   C18   A    
C41   O16   A    
C50   H33   S    
C52   C53   S    
C47   H23   S    
C26   H13   S    
C16   H4    S    
C9    C10   A    
O12   C41   A    
O13   C44   A    
O3    C4    A    
C11   C15   A    
O6    V2    S    
O9    V2    S    
C50   H35   S    
H1    C17   S    
C29   C40   A    
O2    V1    S    
C45   H28   S    
C46   C47   S    
C40   C41   S    
C7    C18   A    
C9    O21   S    
C5    C13   A    
O18   V4    S    
C27   C39   A    
O11   C42   A    
C27   C35   A    
O5    V1    S    
O8    C3    A    
C22   C44   S    
C10   C12   A    
C28   C39   A    
C36   C37   A    
C3    C20   S    
C30   C31   A    
O4    V1    S    
O3    V1    S    
V1    O10   S    
O15   V3    S    
C33   C40   A    
O12   V3    S    
C29   C30   A    
H15   C36   S    
C28   C38   A    
C47   H22   S    
O19   V4    S    
C49   C50   S    
O7    V2    S    
H14   C39   S    
C53   H41   S    
O16   V4    S    
C35   C36   A    
C33   C37   A    
V4    O20   S    
C25   C26   D    
C12   C13   A    
C5    C17   A    
C7    C8    A    
O21   C48   S    
C48   C49   S    
O11   V4    S    
C19   O22   S    
C45   H27   S    
C51   C52   S    
V2    O10   S    
C31   H19   S    
H2    C14   S    
