data_mof_unit_57138.cif
_audit_creation_date              2012-12-11T14:34:02-0500
_audit_creation_method            fapswitch 2.2
_symmetry_space_group_name_H-M    P1
_symmetry_Int_Tables_number       1
_space_group_crystal_system       triclinic
_cell_length_a                    13.860008
_cell_length_b                    13.956022
_cell_length_c                    27.338918
_cell_angle_alpha                 89.987289
_cell_angle_beta                  89.493092
_cell_angle_gamma                 119.518969
_cell_volume                      4601.49367766

loop_
_atom_site_label
_atom_site_type_symbol
_atom_type_description
_atom_site_fract_x
_atom_site_fract_y
_atom_site_fract_z
_atom_type_partial_charge
C1    C     C_R   0.233586 0.787084 0.568730 0.540333
C2    C     C_R   0.212273 0.446404 0.568764 0.542091
C3    C     C_R   0.552085 0.764939 0.569202 0.540612
C4    C     C_3   0.658899 0.734036 0.790512 -0.212273
C5    C     C_3   0.244096 0.954493 0.782445 -0.212328
C6    C     C_3   0.056482 0.312580 0.786524 -0.211918
C7    C     C_3   0.637903 0.720885 0.734666 -0.212672
C8    C     C_3   0.259694 0.938961 0.727489 -0.212548
C9    C     C_3   0.073306 0.346960 0.731844 -0.212867
C10   C     C_1   0.707714 0.862886 0.860199 -0.079795
C11   C     C_1   0.114763 0.882091 0.852681 -0.079546
C12   C     C_1   0.115613 0.231021 0.852247 -0.079797
C13   C     C_1   0.626572 0.813371 0.659292 -0.075871
C14   C     C_1   0.175998 0.818772 0.656347 -0.076126
C15   C     C_1   0.177570 0.357866 0.656311 -0.076284
C16   C     C_1   0.599306 0.795288 0.617024 -0.017922
C17   C     C_1   0.198125 0.805775 0.615156 -0.017774
C18   C     C_1   0.191960 0.392793 0.615163 -0.017606
C19   C     C_R   0.066425 0.153839 0.096852 0.625117
C20   C     C_R   0.774592 0.882835 0.087196 0.593445
C21   C     C_R   0.114604 0.892721 0.088063 0.600581
C22   C     C_R   0.069883 0.160444 0.943323 0.535555
C23   C     C_R   0.780066 0.887365 0.950704 0.524272
C24   C     C_R   0.091234 0.930220 0.943499 0.529429
C25   C     C_R   0.623225 0.896023 0.360544 -0.136405
C26   C     C_R   0.099598 0.745003 0.363521 -0.135189
C27   C     C_R   0.266585 0.356601 0.365299 -0.136268
C28   C     C_R   0.643209 0.909190 0.310138 0.022878
C29   C     C_R   0.082230 0.752458 0.313656 0.020806
C30   C     C_R   0.244203 0.306220 0.319317 0.017853
C31   C     C_R   0.668732 0.926804 0.207293 0.005308
C32   C     C_R   0.051558 0.761832 0.212332 -0.002831
C33   C     C_R   0.206065 0.231778 0.221523 0.000651
C34   C     C_R   0.234738 0.787811 0.431025 0.545811
C35   C     C_R   0.211954 0.443774 0.431983 0.549666
C36   C     C_R   0.554983 0.766507 0.431319 0.546742
C37   C     C_R   0.658604 0.007119 0.234715 -0.124599
C38   C     C_R   0.961082 0.696297 0.243761 -0.114123
C39   C     C_R   0.306093 0.256791 0.245073 -0.118452
C40   C     C_R   0.646796 0.998550 0.285492 -0.147495
C41   C     C_R   0.976916 0.690075 0.293664 -0.132945
C42   C     C_R   0.325845 0.296326 0.292984 -0.137172
C43   C     C_R   0.692972 0.938336 0.156330 0.189575
C44   C     C_R   0.037537 0.774302 0.162103 0.166119
C45   C     C_R   0.187432 0.201741 0.171494 0.167158
C46   C     C_R   0.709382 0.857994 0.132663 0.020077
C47   C     C_R   0.130340 0.848878 0.133786 0.020133
C48   C     C_R   0.088045 0.184119 0.149132 0.012516
C49   C     C_R   0.635566 0.728415 0.358563 -0.128454
C50   C     C_R   0.292696 0.885395 0.352784 -0.123075
C51   C     C_R   0.076851 0.321033 0.371577 -0.129645
C52   C     C_R   0.650630 0.737935 0.308254 0.018129
C53   C     C_R   0.278133 0.888893 0.303090 0.012988
C54   C     C_R   0.054625 0.273899 0.325481 0.016795
C55   C     C_R   0.652924 0.827847 0.283587 0.073028
C56   C     C_R   0.172796 0.821751 0.283044 0.068960
C57   C     C_R   0.139617 0.270205 0.298224 0.070166
C58   C     C_R   0.655876 0.654705 0.282089 -0.155233
C59   C     C_R   0.368989 0.955464 0.273110 -0.148025
C60   C     C_R   0.950586 0.237280 0.305028 -0.149743
C61   C     C_R   0.661263 0.659128 0.231464 -0.108615
C62   C     C_R   0.356725 0.953863 0.222883 -0.095275
C63   C     C_R   0.933836 0.206730 0.256336 -0.106589
C64   C     C_R   0.665746 0.749108 0.206382 0.017191
C65   C     C_R   0.251823 0.889820 0.202216 0.024830
C66   C     C_R   0.020021 0.211060 0.227403 0.010298
C67   C     C_3   0.563782 0.852953 0.738397 -0.212470
C68   C     C_3   0.142376 0.733834 0.738951 -0.214277
C69   C     C_3   0.271929 0.389740 0.736090 -0.214587
C70   C     C_R   0.662818 0.834955 0.232372 -0.020903
C71   C     C_R   0.158594 0.824000 0.232429 -0.019447
C72   C     C_R   0.121529 0.236157 0.249089 -0.016502
C73   C     C_R   0.676972 0.756022 0.155799 0.227408
C74   C     C_R   0.238151 0.894571 0.152148 0.221868
C75   C     C_R   0.006927 0.194222 0.177017 0.203645
C76   C     C_R   0.613202 0.802260 0.384273 -0.004944
C77   C     C_R   0.205629 0.809628 0.382802 0.000822
C78   C     C_R   0.184483 0.369665 0.390092 -0.005102
C79   C     C_3   0.766965 0.923621 0.722426 -0.215729
C80   C     C_3   0.053791 0.846777 0.714923 -0.214097
C81   C     C_3   0.122498 0.199831 0.712839 -0.213835
C82   C     C_3   0.787620 0.936781 0.778355 -0.213750
C83   C     C_3   0.036935 0.862842 0.769809 -0.215447
C84   C     C_3   0.105997 0.166037 0.767509 -0.217927
C85   C     C_1   0.735193 0.873599 0.902479 -0.029949
C86   C     C_1   0.103932 0.902673 0.894414 -0.024267
C87   C     C_1   0.097129 0.199866 0.894076 -0.028890
C88   C     C_3   0.648847 0.827872 0.712200 0.072066
C89   C     C_3   0.157777 0.833992 0.708004 0.072207
C90   C     C_3   0.161734 0.324050 0.707846 0.072399
C91   C     C_3   0.584766 0.866019 0.794383 -0.215545
C92   C     C_3   0.125108 0.750446 0.793888 -0.213151
C93   C     C_3   0.255051 0.355494 0.790869 -0.213092
C94   C     C_3   0.684581 0.850262 0.807347 0.073525
C95   C     C_3   0.129626 0.862616 0.801114 0.072914
C96   C     C_3   0.133230 0.265793 0.800715 0.072467
Cr1   Cr    Cr6+3 0.164410 0.584450 0.499910 1.018661
Cr2   Cr    Cr6+3 0.415550 0.579960 0.499910 1.016749
Cr3   Cr    Cr6+3 0.420040 0.835590 0.499910 1.014933
Cr4   Cr    Cr6+3 0.155170 0.075460 0.019960 1.053712
Cr5   Cr    Cr6+3 0.924540 0.079710 0.019960 1.038374
Cr6   Cr    Cr6+3 0.920290 0.844830 0.019960 1.052595
H1    H     H_    0.601240 0.949144 0.805957 0.111206
H2    H     H_    0.043629 0.682333 0.806806 0.113446
H3    H     H_    0.312007 0.323867 0.800806 0.111541
H4    H     H_    0.477894 0.785202 0.731686 0.107605
H5    H     H_    0.216507 0.723175 0.734735 0.107043
H6    H     H_    0.302071 0.479675 0.732998 0.107422
H7    H     H_    0.509216 0.804320 0.814401 0.108725
H8    H     H_    0.190483 0.747104 0.815965 0.111505
H9    H     H_    0.276682 0.428840 0.814000 0.112850
H10   H     H_    0.729563 0.720540 0.799388 0.110348
H11   H     H_    0.252404 0.036891 0.788317 0.104232
H12   H     H_    0.968227 0.249535 0.793247 0.108803
H13   H     H_    0.607212 0.954090 0.380393 0.119195
H14   H     H_    0.032261 0.687051 0.386803 0.116288
H15   H     H_    0.349284 0.391374 0.380193 0.123984
H16   H     H_    0.662764 0.079237 0.218164 0.093312
H17   H     H_    0.877011 0.650200 0.230827 0.117045
H18   H     H_    0.371334 0.249110 0.226754 0.118834
H19   H     H_    0.640636 0.062296 0.305567 0.088995
H20   H     H_    0.906285 0.637703 0.316757 0.102747
H21   H     H_    0.405698 0.320689 0.309179 0.100944
H22   H     H_    0.664411 0.592939 0.212157 0.149144
H23   H     H_    0.428985 0.005623 0.200542 0.153872
H24   H     H_    0.854047 0.183253 0.241050 0.157511
H25   H     H_    0.653094 0.584786 0.300711 0.095123
H26   H     H_    0.449797 0.007949 0.288547 0.102329
H27   H     H_    0.883842 0.237559 0.325890 0.101799
H28   H     H_    0.570015 0.929823 0.723201 0.112217
H29   H     H_    0.069603 0.657082 0.725658 0.111781
H30   H     H_    0.336968 0.374486 0.719775 0.112729
H31   H     H_    0.630006 0.656758 0.376755 0.129731
H32   H     H_    0.375430 0.935805 0.367132 0.134017
H33   H     H_    0.011996 0.327317 0.391337 0.131045
H34   H     H_    0.829900 0.907404 0.704497 0.108471
H35   H     H_    0.063136 0.918821 0.693538 0.109543
H36   H     H_    0.043067 0.150648 0.693129 0.110063
H37   H     H_    0.777162 0.001755 0.706793 0.111201
H38   H     H_    0.979192 0.772458 0.701065 0.112063
H39   H     H_    0.184703 0.181041 0.696021 0.111011
H40   H     H_    0.808179 0.021399 0.789526 0.108749
H41   H     H_    0.954302 0.796033 0.782350 0.108792
H42   H     H_    0.160721 0.131892 0.776906 0.107754
H43   H     H_    0.859991 0.926391 0.787154 0.101431
H44   H     H_    0.037104 0.941575 0.774617 0.099520
H45   H     H_    0.018876 0.100880 0.773906 0.101500
H46   H     H_    0.553487 0.650476 0.727888 0.110352
H47   H     H_    0.336204 0.932773 0.722235 0.110965
H48   H     H_    0.099653 0.436097 0.728741 0.109838
H49   H     H_    0.698484 0.701092 0.716874 0.111918
H50   H     H_    0.271301 0.012488 0.706623 0.112266
H51   H     H_    0.993067 0.300522 0.712417 0.113235
H52   H     H_    0.584611 0.669965 0.810438 0.111396
H53   H     H_    0.311330 0.952432 0.803601 0.113585
H54   H     H_    0.074723 0.385143 0.809621 0.114986
O1    O     O_R   0.137150 0.468200 0.553200 -0.512065
O2    O     O_R   0.531800 0.668950 0.553200 -0.511103
O3    O     O_R   0.331050 0.862850 0.553200 -0.508910
O4    O     O_R   0.179100 0.982980 0.967000 -0.520529
O5    O     O_R   0.017020 0.196120 0.967000 -0.496623
O6    O     O_R   0.803880 0.820900 0.967000 -0.522932
O7    O     O_R   0.173970 0.688730 0.549930 -0.500353
O8    O     O_R   0.311270 0.485240 0.549930 -0.500358
O9    O     O_R   0.514760 0.826030 0.549930 -0.498600
O10   O     O_R   0.140110 0.470540 0.446010 -0.520427
O11   O     O_R   0.529460 0.669570 0.446010 -0.523039
O12   O     O_R   0.330430 0.859890 0.446010 -0.525449
O13   O     O_R   0.176710 0.690910 0.450560 -0.499224
O14   O     O_R   0.309090 0.485800 0.450560 -0.503538
O15   O     O_R   0.514200 0.823290 0.450560 -0.503508
O16   O     O_3   0.333333 0.666667 0.499990 -0.264219
O17   O     O_R   0.176750 0.985260 0.074180 -0.458431
O18   O     O_R   0.014740 0.191490 0.074180 -0.494556
O19   O     O_R   0.808510 0.823250 0.074180 -0.447649
O20   O     O_R   0.146100 0.172630 0.068980 -0.440937
O21   O     O_R   0.827370 0.973470 0.068980 -0.459173
O22   O     O_R   0.026530 0.853900 0.068980 -0.444346
O23   O     O_3   0.000000 0.000000 0.020040 -0.309119
O24   O     O_R   0.148270 0.170520 0.969620 -0.499490
O25   O     O_R   0.829480 0.977750 0.969620 -0.524981
O26   O     O_R   0.022250 0.851730 0.969620 -0.493726
O27   O     O_3   0.705994 0.027252 0.128991 -0.668886
H55   H     H_    0.658007 0.054645 0.142608 0.306506
O28   O     O_3   0.934260 0.723003 0.140707 -0.653012
H56   H     H_    0.891308 0.647477 0.153936 0.317735
O29   O     O_3   0.264722 0.190472 0.143603 -0.662099
H57   H     H_    0.338946 0.253212 0.150703 0.311637
O30   O     O_3   0.670673 0.667322 0.130122 -0.543783
C97   C     C_3   0.571956 0.617363 0.102488 0.013518
H58   H     H_    0.582857 0.568058 0.073293 0.161354
H59   H     H_    0.555914 0.678756 0.083480 0.105366
C98   C     C_3   0.471772 0.539732 0.134442 -0.290086
H60   H     H_    0.488796 0.478542 0.152739 0.160625
H61   H     H_    0.457252 0.587770 0.163105 0.159656
C99   C     C_3   0.366843 0.478988 0.104093 -0.462853
H62   H     H_    0.348684 0.538670 0.085157 0.141030
H63   H     H_    0.295554 0.426295 0.128445 0.158398
H64   H     H_    0.376683 0.425837 0.076553 0.171864
O31   O     O_3   0.330510 0.953062 0.122178 -0.557977
C100  C     C_3   0.337545 0.882033 0.086944 0.001318
H65   H     H_    0.313662 0.899611 0.050736 0.166066
H66   H     H_    0.283093 0.792377 0.095156 0.099823
C101  C     C_3   0.456959 0.904776 0.083982 -0.250149
H67   H     H_    0.513061 0.993357 0.075564 0.191883
H68   H     H_    0.479673 0.885199 0.120004 0.167041
C102  C     C_3   0.471648 0.835215 0.044698 -0.476178
H69   H     H_    0.418444 0.746209 0.053094 0.133263
H70   H     H_    0.559516 0.854547 0.043451 0.155567
H71   H     H_    0.449583 0.853501 0.008250 0.149718
O32   O     O_3   0.913449 0.186741 0.155178 -0.519362
C103  C     C_3   0.933990 0.292782 0.139958 0.055103
H72   H     H_    0.909227 0.286324 0.101038 0.185732
H73   H     H_    0.022951 0.358573 0.141588 0.104582
C104  C     C_3   0.862901 0.328661 0.169519 -0.287109
H74   H     H_    0.776378 0.259389 0.172261 0.170475
H75   H     H_    0.896795 0.352934 0.206873 0.149086
C105  C     C_3   0.861868 0.427136 0.145904 -0.480539
H76   H     H_    0.947436 0.498257 0.143497 0.150564
H77   H     H_    0.810070 0.450810 0.168524 0.138789
H78   H     H_    0.826105 0.405915 0.108675 0.158518

loop_
_geom_bond_atom_site_label_1
_geom_bond_atom_site_label_2
_ccdc_geom_bond_type
C15   C18   T    
C4    H52   S    
C10   C85   T    
C97   H58   S    
C82   C94   S    
Cr3   O3    S    
C2    C18   S    
C33   C45   A    
C100  H65   S    
C79   H37   S    
C48   C75   A    
C82   H40   S    
C27   C78   A    
C92   H8    S    
C82   H43   S    
C6    C9    S    
C80   H35   S    
C53   C59   A    
C105  H76   S    
C54   C60   A    
C25   C28   A    
C40   H19   S    
C75   O32   S    
C67   C88   S    
C33   C39   A    
Cr1   O16   S    
C31   C43   A    
C60   C63   A    
C8    H50   S    
C23   O25   A    
C37   C40   A    
C69   C93   S    
C25   H13   S    
C34   C77   S    
C73   O30   S    
C64   C70   A    
C45   C48   A    
C20   O19   A    
Cr3   O15   S    
C28   C40   A    
C11   C86   T    
Cr1   O10   S    
C30   C57   A    
C35   O10   A    
Cr1   O13   S    
C5    H11   S    
C84   C96   S    
C80   C89   S    
C2    O1    A    
C19   O20   A    
C6    H12   S    
C36   C76   S    
C97   C98   S    
C93   H3    S    
C51   H33   S    
C28   C55   A    
C31   C70   A    
C66   C72   A    
C37   H16   S    
Cr2   O2    S    
O31   C100  S    
Cr1   O7    S    
Cr4   O20   S    
C102  H71   S    
C64   C73   A    
C103  C104  S    
C68   H5    S    
C32   C38   A    
C39   C42   A    
Cr5   O5    S    
Cr2   O11   S    
C33   C72   A    
C52   C55   A    
C6    H54   S    
C44   O28   S    
C23   O6    A    
Cr2   O16   S    
C49   C52   A    
C58   C61   A    
C81   H39   S    
C4    H10   S    
C63   C66   A    
C9    H51   S    
C58   H25   S    
C27   C30   A    
Cr6   O23   S    
C100  H66   S    
C14   C17   T    
Cr5   O18   S    
C80   C83   S    
C34   O12   A    
C79   C88   S    
C5    C95   S    
C69   H6    S    
C42   H21   S    
C32   C71   A    
C27   H15   S    
C3    O2    A    
C81   H36   S    
C9    H48   S    
C50   C53   A    
C53   C56   A    
C24   O26   A    
C102  H69   S    
C26   C77   A    
C84   H42   S    
C1    O3    A    
C38   C41   A    
C22   O24   A    
C50   H32   S    
C104  C105  S    
C2    O8    A    
C22   O5    A    
C98   H61   S    
C19   C48   S    
C45   O29   S    
Cr3   O16   S    
C59   C62   A    
C4    C7    S    
C59   H26   S    
C65   C71   A    
C36   O11   A    
C65   C74   A    
C31   C37   A    
Cr6   O26   S    
C41   H20   S    
C9    C90   S    
C61   C64   A    
C104  H74   S    
C14   C89   S    
Cr5   O23   S    
C62   H23   S    
C83   H44   S    
Cr4   O4    S    
C92   H2    S    
C105  H77   S    
C7    C88   S    
C101  C102  S    
Cr6   O6    S    
C56   C71   A    
C83   C95   S    
C83   H41   S    
C67   C91   S    
C68   C89   S    
C32   C44   A    
C49   C76   A    
O27   H55   S    
C22   C87   S    
C103  H72   S    
C34   O13   A    
C52   C58   A    
Cr3   O9    S    
C93   H9    S    
C7    H49   S    
C81   C90   S    
C99   H63   S    
C21   O22   A    
C29   C56   A    
C79   H34   S    
C93   C96   S    
C21   O17   A    
C61   H22   S    
Cr6   O22   S    
C100  C101  S    
C4    C94   S    
C67   H28   S    
C38   H17   S    
C69   C90   S    
Cr4   O24   S    
C50   C77   A    
C81   C84   S    
Cr5   O25   S    
C3    O9    A    
C105  H78   S    
Cr3   O12   S    
C84   H45   S    
C11   C95   S    
C5    C8    S    
C49   H31   S    
C36   O15   A    
C97   H59   S    
C62   C65   A    
C29   C41   A    
C1    C17   S    
C30   C42   A    
C47   C74   A    
C91   H1    S    
C99   H62   S    
C91   C94   S    
C60   H27   S    
C7    H46   S    
C79   C82   S    
Cr2   O8    S    
C44   C47   A    
C67   H4    S    
C20   O21   A    
C68   H29   S    
C35   C78   S    
C6    C96   S    
C51   C54   A    
C25   C76   A    
C104  H75   S    
C8    H47   S    
Cr6   O19   S    
C51   C78   A    
O29   H57   S    
C12   C87   T    
C80   H38   S    
C98   C99   S    
C101  H68   S    
C91   H7    S    
O28   H56   S    
C74   O31   S    
C63   H24   S    
C69   H30   S    
C66   C75   A    
C13   C88   S    
C43   O27   S    
C68   C92   S    
C92   C95   S    
C57   C72   A    
C5    H53   S    
O30   C97   S    
C43   C46   A    
C26   H14   S    
C19   O18   A    
C55   C70   A    
Cr5   O21   S    
C103  H73   S    
O32   C103  S    
Cr2   O14   S    
C24   O4    A    
C101  H67   S    
C1    O7    A    
C26   C29   A    
C98   H60   S    
C23   C85   S    
C13   C16   T    
Cr4   O17   S    
C102  H70   S    
C35   O14   A    
C10   C94   S    
C12   C96   S    
C8    C89   S    
C21   C47   S    
Cr4   O23   S    
C24   C86   S    
C46   C73   A    
C20   C46   S    
C3    C16   S    
C39   H18   S    
Cr1   O1    S    
C99   H64   S    
C15   C90   S    
C54   C57   A    
