data_mof_unit_35533.cif
_audit_creation_date              2012-12-10T16:54:54-0500
_audit_creation_method            fapswitch 2.2
_symmetry_space_group_name_H-M    P1
_symmetry_Int_Tables_number       1
_space_group_crystal_system       triclinic
_cell_length_a                    7.77291
_cell_length_b                    8.578939
_cell_length_c                    15.716141
_cell_angle_alpha                 90.842188
_cell_angle_beta                  85.847954
_cell_angle_gamma                 93.628197
_cell_volume                      1043.10502918

loop_
_atom_site_label
_atom_site_type_symbol
_atom_type_description
_atom_site_fract_x
_atom_site_fract_y
_atom_site_fract_z
_atom_type_partial_charge
C1    C     C_R   0.545763 0.794723 0.497810 0.960601
C2    C     C_2   0.430155 0.041804 0.503449 -0.382262
C3    C     C_R   0.502010 0.500031 0.661608 0.905919
C4    C     C_R   0.454237 0.205277 0.502190 0.960580
C5    C     C_R   0.497989 0.499962 0.338392 0.905921
C6    C     C_3   0.351064 0.592680 0.955439 -0.398204
C7    C     C_3   0.674855 0.576760 0.946781 -0.399804
C8    C     C_3   0.670799 0.577046 0.045105 -0.397325
C9    C     C_1   0.493897 0.500334 0.249603 -0.182259
C10   C     C_3   0.503418 0.499724 0.917315 0.370786
C11   C     C_3   0.347008 0.592944 0.053763 -0.397935
C12   C     C_3   0.496580 0.500186 0.082683 0.370568
C13   C     C_3   0.476076 0.330251 0.048618 -0.400919
C14   C     C_3   0.480175 0.329975 0.950289 -0.398854
C15   C     C_1   0.493560 0.500389 0.174232 -0.129308
C16   C     C_1   0.506435 0.499538 0.825767 -0.129247
C17   C     C_1   0.506098 0.499625 0.750397 -0.182262
C18   C     C_2   0.569844 0.958196 0.496552 -0.382285
H1    H     H_    0.359107 0.715486 0.077969 0.165797
H2    H     H_    0.694266 0.698905 0.923355 0.165010
H3    H     H_    0.688349 0.699348 0.069127 0.165346
H4    H     H_    0.357759 0.272251 0.929359 0.165131
H5    H     H_    0.588249 0.260945 0.923356 0.165425
H6    H     H_    0.351691 0.272687 0.075144 0.164936
H7    H     H_    0.013409 0.381932 0.436572 0.191581
H8    H     H_    0.780266 0.512326 0.065542 0.165081
H9    H     H_    0.226407 0.539415 0.934630 0.165527
H10   H     H_    0.220486 0.539731 0.080393 0.165869
H11   H     H_    0.582171 0.261315 0.069143 0.165015
H12   H     H_    0.701789 0.009219 0.489963 0.180503
H13   H     H_    0.298211 0.990780 0.510038 0.180508
H14   H     H_    0.986591 0.618067 0.563428 0.191607
H15   H     H_    0.365024 0.715126 0.932199 0.165215
H16   H     H_    0.786168 0.511836 0.919774 0.165919
N1    N     N_2   0.950340 0.457950 0.477370 -0.173522
N2    N     N_2   0.049660 0.542050 0.522630 -0.173514
O1    O     O_R   0.389240 0.738570 0.505550 -0.612977
O2    O     O_R   0.678400 0.711630 0.491050 -0.631125
O3    O     O_R   0.355360 0.513470 0.630110 -0.613564
O4    O     O_R   0.644510 0.486530 0.615610 -0.622015
O5    O     O_R   0.321600 0.288370 0.508950 -0.631143
O6    O     O_R   0.610760 0.261430 0.494450 -0.612996
O7    O     O_R   0.355490 0.513470 0.384390 -0.622008
O8    O     O_R   0.644640 0.486530 0.369890 -0.613577
Zn1   Zn    Zn3+2 0.306930 0.517990 0.509680 0.942137
Zn2   Zn    Zn3+2 0.693070 0.482010 0.490320 0.942122

loop_
_geom_bond_atom_site_label_1
_geom_bond_atom_site_label_2
_ccdc_geom_bond_type
C14   H5    S    
C6    C10   S    
C7    C10   S    
C2    C4    S    
C11   C12   S    
C6    H15   S    
C5    C9    S    
C18   H12   S    
C8    C12   S    
C2    C18   D    
C8    H8    S    
N1    N2    D    
C12   C15   S    
C1    O1    A    
O3    Zn1   S    
C14   H4    S    
C8    H3    S    
C5    O7    A    
C3    O3    A    
N2    Zn1   S    
C10   C16   S    
C13   C14   S    
O4    Zn2   S    
O7    Zn1   S    
C11   H1    S    
C1    C18   S    
C4    O6    A    
C1    O2    A    
H7    N1    S    
H14   N2    S    
C13   H11   S    
C5    O8    A    
O8    Zn2   S    
C3    O4    A    
C3    C17   S    
C10   C14   S    
C7    H16   S    
C11   H10   S    
O2    Zn2   S    
C4    O5    A    
O1    Zn1   S    
C7    C8    S    
C12   C13   S    
C7    H2    S    
O6    Zn2   S    
C6    C11   S    
O5    Zn1   S    
C2    H13   S    
C9    C15   T    
N1    Zn2   S    
C6    H9    S    
C13   H6    S    
C16   C17   T    
