data_mof_unit_68289.cif
_audit_creation_date              2012-12-11T14:37:58-0500
_audit_creation_method            fapswitch 2.2
_symmetry_space_group_name_H-M    P1
_symmetry_Int_Tables_number       1
_space_group_crystal_system       triclinic
_cell_length_a                    14.49954
_cell_length_b                    15.95366
_cell_length_c                    7.000097
_cell_angle_alpha                 90.237117
_cell_angle_beta                  80.70305
_cell_angle_gamma                 90.163
_cell_volume                      1597.9798028

loop_
_atom_site_label
_atom_site_type_symbol
_atom_type_description
_atom_site_fract_x
_atom_site_fract_y
_atom_site_fract_z
_atom_type_partial_charge
O1    O     O_R   0.337080 0.165770 0.524980 -0.528664
O2    O     O_R   0.662920 0.834230 0.475020 -0.529786
O3    O     O_R   0.662920 0.665770 0.475020 -0.527728
O4    O     O_R   0.337080 0.334230 0.524980 -0.524671
O5    O     O_R   0.348340 0.341430 0.191390 -0.543160
O6    O     O_R   0.651660 0.658570 0.808610 -0.534598
O7    O     O_R   0.651660 0.841430 0.808610 -0.545418
O8    O     O_R   0.348340 0.158570 0.191390 -0.551475
O9    O     O_R   0.165780 0.339950 0.082750 -0.546852
O10   O     O_R   0.834220 0.660050 0.917250 -0.545350
O11   O     O_R   0.834220 0.839950 0.917250 -0.547237
O12   O     O_R   0.165780 0.160050 0.082750 -0.547918
C1    C     C_R   0.369138 0.364672 0.356484 0.614847
C2    C     C_R   0.630248 0.635496 0.643682 0.563470
C3    C     C_R   0.631385 0.864729 0.644002 0.643147
C4    C     C_R   0.369526 0.135733 0.355756 0.633318
O13   O     O_3   0.191540 0.250000 0.407620 -0.376151
O14   O     O_3   0.808460 0.750000 0.592380 -0.372532
V1    V     V_3+5 0.262540 0.250000 0.108780 1.392080
V2    V     V_3+5 0.737460 0.750000 0.891220 1.391527
O15   O     O_R   0.154530 0.164290 0.756910 -0.535771
O16   O     O_R   0.845470 0.835710 0.243090 -0.536188
O17   O     O_R   0.845470 0.664290 0.243090 -0.535468
O18   O     O_R   0.154530 0.335710 0.756910 -0.537306
C5    C     C_R   0.131871 0.133776 0.931852 0.690910
C6    C     C_R   0.867079 0.866980 0.068599 0.690720
C7    C     C_R   0.868945 0.634491 0.066550 0.686037
C8    C     C_R   0.131805 0.366052 0.932944 0.687948
H1    H     H_    0.531033 0.483364 0.732001 0.085803
H2    H     H_    0.514421 0.305390 0.936600 0.132259
H3    H     H_    0.489343 0.055027 0.602799 0.140489
H4    H     H_    0.426075 0.867012 0.559138 0.141180
V3    V     V_3+5 0.240320 0.250000 0.616280 1.399216
V4    V     V_3+5 0.759680 0.750000 0.383720 1.381803
O19   O     O_3   0.311330 0.250000 0.867310 -0.365662
O20   O     O_3   0.688670 0.750000 0.132690 -0.367212
C9    C     C_3   0.086745 0.528731 0.010644 0.169052
C10   C     C_3   0.915112 0.472375 0.987613 0.161534
C11   C     C_3   0.923420 0.018825 0.920760 0.170854
C12   C     C_3   0.073943 0.982904 0.079878 0.174016
C13   C     C_3   0.024933 0.559180 0.864883 0.169972
C14   C     C_3   0.977034 0.442032 0.133413 0.169177
C15   C     C_3   0.960546 0.071479 0.077691 0.163928
C16   C     C_3   0.036967 0.930281 0.922735 0.165244
C17   C     C_3   0.939860 0.564073 0.029736 -0.164455
C18   C     C_3   0.061864 0.437125 0.968682 -0.163009
C19   C     C_3   0.060787 0.063258 0.965030 -0.163626
C20   C     C_3   0.936857 0.938404 0.035526 -0.162614
C21   C     C_3   0.001787 0.533853 0.176461 -0.216140
C22   C     C_3   0.000090 0.467363 0.821906 -0.213368
C23   C     C_3   0.023845 0.010588 0.806297 -0.208943
C24   C     C_3   0.973566 0.991181 0.194130 -0.211284
C25   C     C_2   0.562169 0.315598 0.641655 0.112754
C26   C     C_2   0.486948 0.467487 0.029402 0.116435
C27   C     C_2   0.426331 0.926493 0.829968 0.069465
C28   C     C_2   0.526895 0.985006 0.346753 0.114256
H5    H     H_    0.000880 0.561395 0.321907 0.142174
H6    H     H_    0.001018 0.439721 0.676621 0.140362
H7    H     H_    0.044650 0.018315 0.647601 0.128464
H8    H     H_    0.952626 0.983519 0.352819 0.128272
C29   C     C_2   0.531996 0.348493 0.816719 -0.151835
C30   C     C_2   0.518526 0.439431 0.851219 -0.162037
C31   C     C_2   0.436362 0.924563 0.636342 -0.152194
C32   C     C_2   0.482002 0.996172 0.527619 -0.265347
C33   C     C_3   0.465774 0.557869 0.074797 -0.403250
C34   C     C_3   0.523276 0.589938 0.223339 -0.673584
H9    H     H_    0.599018 0.580678 0.170145 0.236640
H10   H     H_    0.509800 0.657876 0.249002 0.217295
H11   H     H_    0.503436 0.556354 0.362617 0.174488
H12   H     H_    0.480532 0.596465 0.942030 0.179756
H13   H     H_    0.390373 0.563862 0.134717 0.174468
C35   C     C_3   0.589279 0.366547 0.461770 -0.334807
C36   C     C_3   0.608857 0.309273 0.286286 -0.800077
H14   H     H_    0.666934 0.266152 0.300491 0.231686
H15   H     H_    0.545753 0.271831 0.271016 0.213901
H16   H     H_    0.628361 0.347860 0.154749 0.236390
H17   H     H_    0.532135 0.409884 0.442025 0.158803
H18   H     H_    0.651951 0.404573 0.475243 0.171522
C37   C     C_3   0.586900 0.052067 0.239430 -0.369712
C38   C     C_3   0.569837 0.058869 0.031104 -0.778865
H19   H     H_    0.495185 0.071640 0.025974 0.235287
H20   H     H_    0.612453 0.110957 0.957860 0.216880
H21   H     H_    0.590605 0.999805 0.951664 0.230361
H22   H     H_    0.574625 0.113918 0.312620 0.171667
H23   H     H_    0.660882 0.034527 0.238364 0.178449
C39   C     C_3   0.403931 0.853098 0.964833 -0.333520
C40   C     C_3   0.406695 0.767516 0.865604 -0.797037
H24   H     H_    0.352688 0.762603 0.770648 0.222726
H25   H     H_    0.476586 0.755861 0.779130 0.220323
H26   H     H_    0.392791 0.718636 0.978162 0.220801
H27   H     H_    0.456363 0.852816 0.064259 0.192281
H28   H     H_    0.334941 0.862564 0.054980 0.179727
C41   C     C_3   0.049288 0.623598 0.705015 -0.342980
C42   C     C_3   0.136531 0.599379 0.564082 -0.794830
H29   H     H_    0.198626 0.596147 0.636852 0.229392
H30   H     H_    0.126804 0.537717 0.496272 0.224508
H31   H     H_    0.150309 0.648116 0.451366 0.230588
H32   H     H_    0.989354 0.630248 0.625718 0.180911
H33   H     H_    0.060997 0.684266 0.771168 0.180232
C43   C     C_3   0.954539 0.377398 0.293122 -0.344319
C44   C     C_3   0.865987 0.399504 0.431467 -0.795226
H34   H     H_    0.874618 0.459920 0.505466 0.224604
H35   H     H_    0.806227 0.404783 0.353228 0.235897
H36   H     H_    0.849858 0.348711 0.538558 0.232827
H37   H     H_    0.945621 0.316289 0.226520 0.177623
H38   H     H_    0.014123 0.372725 0.373976 0.181474
C45   C     C_3   0.923295 0.153624 0.168586 -0.343034
C46   C     C_3   0.820442 0.148011 0.257159 -0.819929
H39   H     H_    0.775439 0.152555 0.144054 0.239170
H40   H     H_    0.805300 0.088076 0.335993 0.232412
H41   H     H_    0.803098 0.200996 0.359607 0.227596
H42   H     H_    0.965073 0.170682 0.282757 0.173570
H43   H     H_    0.933600 0.202553 0.055408 0.158950
C47   C     C_3   0.074562 0.848304 0.831171 -0.356924
C48   C     C_3   0.177727 0.854429 0.745710 -0.792037
H44   H     H_    0.193204 0.913889 0.665001 0.238517
H45   H     H_    0.220465 0.852316 0.862067 0.247342
H46   H     H_    0.197682 0.800269 0.647838 0.220508
H47   H     H_    0.063804 0.799095 0.943727 0.159234
H48   H     H_    0.033601 0.831279 0.715662 0.176044
C49   C     C_3   0.184748 0.557890 0.035399 -0.336571
C50   C     C_3   0.190065 0.653049 0.055426 -0.803794
H49   H     H_    0.202764 0.682932 0.911094 0.242532
H50   H     H_    0.124355 0.678530 0.138449 0.224946
H51   H     H_    0.248518 0.669939 0.132633 0.218342
H52   H     H_    0.203041 0.528008 0.167107 0.170665
H53   H     H_    0.236827 0.536287 0.911254 0.163985
C51   C     C_3   0.817439 0.442747 0.961143 -0.325863
C52   C     C_3   0.813424 0.347671 0.938053 -0.806388
H54   H     H_    0.877387 0.323884 0.845300 0.224079
H55   H     H_    0.807251 0.316798 0.080685 0.245986
H56   H     H_    0.751565 0.330009 0.871582 0.226241
H57   H     H_    0.764875 0.463369 0.085423 0.164271
H58   H     H_    0.798922 0.473056 0.830153 0.175558
C53   C     C_3   0.836464 0.034038 0.828123 -0.339748
C54   C     C_3   0.840002 0.117911 0.724706 -0.802221
H59   H     H_    0.846601 0.170598 0.824051 0.239844
H60   H     H_    0.900192 0.119443 0.604871 0.239352
H61   H     H_    0.773808 0.126712 0.667158 0.221132
H62   H     H_    0.830660 0.983442 0.721210 0.178818
H63   H     H_    0.773682 0.031169 0.941343 0.182450
C55   C     C_3   0.159757 0.967565 0.175731 -0.336878
C56   C     C_3   0.154222 0.883789 0.280160 -0.811500
H64   H     H_    0.093039 0.882859 0.397765 0.240835
H65   H     H_    0.148163 0.831000 0.180660 0.239018
H66   H     H_    0.219259 0.874531 0.341350 0.218748
H67   H     H_    0.223433 0.970578 0.064493 0.172725
H68   H     H_    0.164678 0.018154 0.283149 0.182000

loop_
_geom_bond_atom_site_label_1
_geom_bond_atom_site_label_2
_ccdc_geom_bond_type
O10   C7    A    
C12   C19   S    
C11   C23   S    
C40   H24   S    
C41   C42   S    
C12   C55   S    
C56   H66   S    
C36   H14   S    
C34   H10   S    
C51   C52   S    
C47   C48   S    
O1    V3    S    
C53   C54   S    
C26   C33   S    
C11   C53   S    
C8    C18   S    
C43   H37   S    
C44   H34   S    
C28   C37   S    
O15   C5    A    
C10   C14   S    
C20   C24   S    
C14   C43   S    
C39   H27   S    
C38   H21   S    
C37   H22   S    
C15   C24   S    
C34   H11   S    
O15   V3    S    
C48   H44   S    
C21   H5    S    
C46   H39   S    
C14   C18   S    
O4    C1    A    
C45   H43   S    
C10   C17   S    
C35   H18   S    
C24   H8    S    
O13   V1    S    
O4    V3    S    
C25   C29   D    
O9    V1    S    
C13   C41   S    
O10   V2    S    
C48   H45   S    
C27   C31   D    
C45   C46   S    
C28   C32   D    
O17   C7    A    
C41   H33   S    
O5    C1    A    
C47   H47   S    
C6    C20   S    
C52   H56   S    
O2    V4    S    
O7    C3    A    
C34   H9    S    
C16   C47   S    
C44   H35   S    
C36   H15   S    
O3    V4    S    
O13   V3    S    
C54   H61   S    
H3    C32   S    
C11   C15   S    
C53   H62   S    
O16   V4    S    
O11   V2    S    
O8    V1    S    
C10   C22   S    
C31   C32   S    
C22   H6    S    
C55   H68   S    
C54   H60   S    
C39   C40   S    
C38   H19   S    
C19   C23   S    
C26   C30   D    
O11   C6    A    
C12   C24   S    
C33   H13   S    
C35   H17   S    
C51   H58   S    
O6    C2    A    
C9    C21   S    
C12   C16   S    
C48   H46   S    
C17   C21   S    
C42   H29   S    
O1    C4    A    
C15   C45   S    
C42   H30   S    
O2    C3    A    
O14   V4    S    
C49   C50   S    
O3    C2    A    
C9    C49   S    
C16   C23   S    
C38   H20   S    
O7    V2    S    
C44   H36   S    
C40   H25   S    
C36   H16   S    
C40   H26   S    
C23   H7    S    
C50   H50   S    
C13   C22   S    
C37   H23   S    
C52   H54   S    
C56   H65   S    
C5    C19   S    
H1    C30   S    
O17   V4    S    
C55   H67   S    
O18   C8    A    
H4    C31   S    
C35   C36   S    
C10   C51   S    
C49   H53   S    
O5    V1    S    
O6    V2    S    
C18   C22   S    
C43   H38   S    
O18   V3    S    
C42   H31   S    
C46   H41   S    
O12   C5    A    
C50   H51   S    
C56   H64   S    
C50   H49   S    
C49   H52   S    
V1    O19   S    
C51   H57   S    
C7    C17   S    
C27   C39   S    
O12   V1    S    
C43   C44   S    
V3    O19   S    
V4    O20   S    
C46   H40   S    
O14   V2    S    
C9    C13   S    
C29   C30   S    
C14   C21   S    
C37   C38   S    
V2    O20   S    
C16   C20   S    
C53   H63   S    
O8    C4    A    
C33   C34   S    
O16   C6    A    
H2    C29   S    
C13   C17   S    
C55   C56   S    
C45   H42   S    
C39   H28   S    
C9    C18   S    
C25   C35   S    
C15   C19   S    
C41   H32   S    
C47   H48   S    
C54   H59   S    
C33   H12   S    
O9    C8    A    
C11   C20   S    
C52   H55   S    
