data_mof_unit_5031.cif
_audit_creation_date              2012-12-10T17:58:18-0500
_audit_creation_method            fapswitch 2.2
_symmetry_space_group_name_H-M    P1
_symmetry_Int_Tables_number       1
_space_group_crystal_system       triclinic
_cell_length_a                    9.673984
_cell_length_b                    10.800684
_cell_length_c                    15.869541
_cell_angle_alpha                 88.092697
_cell_angle_beta                  72.4213
_cell_angle_gamma                 89.421117
_cell_volume                      1579.83335956

loop_
_atom_site_label
_atom_site_type_symbol
_atom_type_description
_atom_site_fract_x
_atom_site_fract_y
_atom_site_fract_z
_atom_type_partial_charge
C1    C     C_R   0.000275 0.262602 0.500170 0.796090
C2    C     C_R   0.999681 0.737425 0.499868 0.782488
C3    C     C_R   0.586735 0.459352 0.091246 -0.241035
C4    C     C_R   0.413365 0.454486 0.913108 -0.208749
C5    C     C_R   0.728006 0.430988 0.042505 -0.134666
C6    C     C_R   0.273951 0.420862 0.963374 -0.226087
C7    C     C_R   0.868588 0.063999 0.529224 -0.150114
C8    C     C_R   0.131205 0.936140 0.470956 -0.164111
C9    C     C_R   0.868223 0.935832 0.529207 -0.155610
C10   C     C_R   0.131540 0.064296 0.470899 -0.184577
C11   C     C_R   0.999487 0.871542 0.499859 -0.027440
C12   C     C_R   0.000338 0.128546 0.500302 -0.026778
C13   C     C_R   0.551843 0.417571 0.552281 0.463475
C14   C     C_R   0.447721 0.584617 0.448928 0.452626
C15   C     C_R   0.405574 0.412020 0.548122 -0.102541
C16   C     C_R   0.598046 0.582616 0.447100 -0.095789
C17   C     C_R   0.915942 0.498391 0.671064 0.833550
C18   C     C_R   0.083801 0.497306 0.329298 0.824329
C19   C     C_R   0.865754 0.481992 0.767391 -0.079787
C20   C     C_R   0.133350 0.476914 0.234638 -0.112443
C21   C     C_R   0.905486 0.393634 0.900059 0.401100
C22   C     C_R   0.096200 0.378958 0.108886 0.379937
C23   C     C_R   0.957697 0.427310 0.810598 -0.290575
C24   C     C_R   0.043617 0.414189 0.196064 -0.160272
C25   C     C_R   0.719647 0.501328 0.814580 -0.244292
C26   C     C_R   0.278433 0.499551 0.186299 -0.252276
C27   C     C_R   0.668926 0.474713 0.906152 0.009416
C28   C     C_R   0.330677 0.469079 0.097045 0.047908
C29   C     C_R   0.769142 0.435364 0.950071 0.124368
C30   C     C_R   0.232547 0.423170 0.055730 0.051459
C31   C     C_R   0.520326 0.474485 0.954685 0.097739
C32   C     C_R   0.479170 0.474375 0.048564 0.089195
Cu1   Cu    Cu3+1 0.140660 0.500020 0.500000 1.026318
Cu2   Cu    Cu3+1 0.859340 0.499980 0.500000 1.025837
H1    H     H_    0.805110 0.407054 0.077377 0.228836
H2    H     H_    0.198707 0.396284 0.929162 0.189377
H3    H     H_    0.349001 0.542878 0.218162 0.185916
H4    H     H_    0.647283 0.538874 0.779883 0.164277
H5    H     H_    0.937425 0.382043 0.235838 0.185190
H6    H     H_    0.067183 0.402823 0.774408 0.202033
H7    H     H_    0.560256 0.452988 0.162499 0.168010
H8    H     H_    0.439250 0.448966 0.842141 0.148488
H9    H     H_    0.766126 0.112353 0.552679 0.199626
H10   H     H_    0.233670 0.887864 0.447462 0.187204
H11   H     H_    0.765725 0.887192 0.553087 0.187941
H12   H     H_    0.233911 0.113004 0.446724 0.183521
N1    N     N_R   0.352080 0.500030 0.499980 -0.219268
N2    N     N_R   0.647920 0.499970 0.500020 -0.228644
O1    O     O_R   0.118740 0.319660 0.500000 -0.575428
O2    O     O_R   0.881260 0.680340 0.500000 -0.577063
O3    O     O_R   0.881170 0.319630 0.500010 -0.538336
O4    O     O_R   0.118830 0.680370 0.499990 -0.539855
O5    O     O_R   0.055570 0.500030 0.629830 -0.554720
O6    O     O_R   0.944430 0.499970 0.370170 -0.567200
O7    O     O_R   0.818000 0.500000 0.629840 -0.556810
O8    O     O_R   0.182000 0.500000 0.370160 -0.551098
O9    O     O_3   0.973873 0.303642 0.935699 -0.724626
H13   H     H_    0.050627 0.264499 0.887588 0.318541
O10   O     O_3   0.023767 0.285600 0.083489 -0.700403
H14   H     H_    0.097150 0.234474 0.041454 0.351788
O11   O     O_3   0.601449 0.338741 0.607099 -0.687823
H15   H     H_    0.518353 0.307276 0.656276 0.298290
O12   O     O_3   0.395526 0.666369 0.396894 -0.703322
H16   H     H_    0.468279 0.730497 0.368660 0.310136
C33   C     C_2   0.322947 0.298738 0.585917 0.868714
O13   O     O_2   0.207985 0.304294 0.644399 -0.613725
O14   O     O_R   0.383051 0.183363 0.557855 -0.771462
H17   H     H_    0.319825 0.111822 0.590197 0.330490
C34   C     C_2   0.699964 0.668501 0.385345 0.892083
O15   O     O_2   0.762946 0.636745 0.310247 -0.596779
O16   O     O_R   0.711308 0.790220 0.409594 -0.776713
H18   H     H_    0.781122 0.841665 0.360776 0.334120

loop_
_geom_bond_atom_site_label_1
_geom_bond_atom_site_label_2
_ccdc_geom_bond_type
C21   C29   A    
C10   H12   S    
C13   N2    A    
C19   C23   A    
C26   H3    S    
C21   O9    S    
C14   N1    A    
C18   O8    A    
C25   H4    S    
C27   C29   A    
C1    O3    A    
C17   O7    A    
C18   C20   S    
C31   C32   A    
C15   N1    A    
C3    C5    A    
O16   H18   S    
C16   N2    A    
Cu1   O8    S    
C28   C30   A    
Cu1   Cu2   S    
Cu2   O3    S    
C17   O5    A    
C34   O16   S    
Cu2   O7    S    
Cu1   O4    S    
C9    H11   S    
C9    C11   A    
O9    H13   S    
C7    C12   A    
C1    C12   S    
C2    O4    A    
C8    C11   A    
C19   C25   A    
C14   O12   S    
C10   C12   A    
C22   C24   A    
C4    C6    A    
C26   C28   A    
C17   C19   S    
C6    H2    S    
Cu2   O6    S    
C5    C29   A    
C34   O15   D    
C13   C15   A    
C21   C23   A    
Cu1   O5    S    
C3    C32   A    
Cu1   N1    S    
C4    H8    S    
C14   C16   A    
Cu2   O2    S    
C4    C31   A    
Cu2   N2    S    
O11   H15   S    
C18   O6    A    
Cu1   O1    S    
C23   H6    S    
C15   C33   S    
C8    H10   S    
C2    O2    A    
O10   H14   S    
C24   H5    S    
C13   O11   S    
C8    C10   A    
C33   O13   D    
C22   O10   S    
C7    C9    A    
C20   C24   A    
C3    H7    S    
C2    C11   S    
C22   C30   A    
C33   O14   S    
C27   C31   A    
C5    H1    S    
C6    C30   A    
C28   C32   A    
C16   C34   S    
O14   H17   S    
C7    H9    S    
O12   H16   S    
C20   C26   A    
C25   C27   A    
C1    O1    A    
