data_mof_unit_28741.cif
_audit_creation_date              2012-12-10T16:46:47-0500
_audit_creation_method            fapswitch 2.2
_symmetry_space_group_name_H-M    P1
_symmetry_Int_Tables_number       1
_space_group_crystal_system       triclinic
_cell_length_a                    15.860078
_cell_length_b                    8.689584
_cell_length_c                    7.584289
_cell_angle_alpha                 103.444888
_cell_angle_beta                  95.45554
_cell_angle_gamma                 93.708575
_cell_volume                      1007.92268784

loop_
_atom_site_label
_atom_site_type_symbol
_atom_type_description
_atom_site_fract_x
_atom_site_fract_y
_atom_site_fract_z
_atom_type_partial_charge
C1    C     C_R   0.497450 0.199944 0.453000 0.874951
C2    C     C_3   0.959105 0.465808 0.685796 -0.088886
C3    C     C_3   0.917532 0.509057 0.509096 0.242778
C4    C     C_3   0.958039 0.675547 0.499669 -0.087124
C5    C     C_3   0.056110 0.669852 0.495550 -0.467662
C6    C     C_1   0.824844 0.505568 0.506542 -0.048120
C7    C     C_1   0.175315 0.500939 0.497241 -0.100027
C8    C     C_1   0.250920 0.500354 0.498754 -0.170170
C9    C     C_2   0.496331 0.031300 0.427605 -0.366335
C10   C     C_2   0.504352 0.968736 0.572512 -0.362417
C11   C     C_R   0.340590 0.499629 0.499960 0.822735
C12   C     C_R   0.502814 0.800068 0.547024 0.862624
C13   C     C_R   0.659374 0.500760 0.500129 0.798911
C14   C     C_3   0.057438 0.458797 0.678895 -0.098925
C15   C     C_3   0.035152 0.383685 0.330643 -0.365379
C16   C     C_3   0.938267 0.380226 0.342270 -0.389909
C17   C     C_1   0.749060 0.502834 0.502216 -0.148612
C18   C     C_3   0.083196 0.501764 0.500847 0.234451
Cu1   Cu    Cu3+1 0.509300 0.517380 0.684380 0.944550
Cu2   Cu    Cu3+1 0.490700 0.482620 0.315620 0.941035
H1    H     H_    0.930011 0.344063 0.679543 0.163427
H2    H     H_    0.093385 0.547695 0.795022 0.117399
H3    H     H_    0.488670 0.958342 0.288709 0.178684
H4    H     H_    0.511968 0.041643 0.711492 0.178932
H5    H     H_    0.426668 0.388919 0.952957 0.212509
H6    H     H_    0.049735 0.420653 0.204983 0.157820
H7    H     H_    0.056162 0.262374 0.317153 0.209198
H8    H     H_    0.914169 0.260297 0.354268 0.175156
H9    H     H_    0.905234 0.396716 0.213298 0.200488
H10   H     H_    0.090756 0.760747 0.612102 0.170438
H11   H     H_    0.076368 0.701554 0.371186 0.169085
H12   H     H_    0.945891 0.763369 0.623463 0.136705
N1    N     N_2   0.476670 0.456430 0.038530 -0.211270
N2    N     N_2   0.523330 0.543570 0.961470 -0.088559
O1    O     O_R   0.506050 0.286130 0.619770 -0.581168
O2    O     O_R   0.490330 0.256780 0.308370 -0.584245
O3    O     O_R   0.387300 0.514690 0.655770 -0.583931
O4    O     O_R   0.371580 0.485340 0.344370 -0.575770
O5    O     O_R   0.509670 0.743220 0.691630 -0.582554
O6    O     O_R   0.493950 0.713870 0.380230 -0.595415
O7    O     O_R   0.628420 0.514660 0.655630 -0.585522
O8    O     O_R   0.612700 0.485310 0.344230 -0.607456
C19   C     C_3   0.935446 0.567173 0.870051 -0.372707
C20   C     C_3   0.989568 0.725004 0.958084 -0.801275
H13   H     H_    0.034856 0.709141 0.071706 0.224335
H14   H     H_    0.028053 0.771329 0.865658 0.233829
H15   H     H_    0.947831 0.818238 0.012546 0.250990
H16   H     H_    0.867553 0.591144 0.855791 0.230572
H17   H     H_    0.940313 0.492236 0.969964 0.210237
C21   C     C_2   0.919050 0.743900 0.347935 0.321047
H18   H     H_    0.944855 0.859622 0.336989 0.103626
O9    O     O_2   0.857949 0.676184 0.241894 -0.575570
C22   C     C_3   0.602099 0.630856 0.061151 -0.006542
C23   C     C_3   0.625664 0.785007 0.006122 -0.820970
H19   H     H_    0.649057 0.764134 0.870831 0.270428
H20   H     H_    0.571109 0.859248 0.012184 0.245838
H21   H     H_    0.678763 0.854436 0.104616 0.210596
H22   H     H_    0.596791 0.676044 0.204262 0.211690
H23   H     H_    0.655255 0.553447 0.043043 0.177370
C24   C     C_2   0.086248 0.300785 0.702333 0.290912
H24   H     H_    0.140916 0.299495 0.799473 0.078383
O10   O     O_2   0.050408 0.174623 0.611737 -0.585209

loop_
_geom_bond_atom_site_label_1
_geom_bond_atom_site_label_2
_ccdc_geom_bond_type
C12   O6    A    
C15   C18   S    
Cu2   O8    S    
C19   C20   S    
C16   H8    S    
C11   O4    A    
Cu2   O4    S    
C19   H16   S    
C14   C18   S    
C21   O9    D    
Cu1   Cu2   S    
C20   H15   S    
C13   C17   S    
C2    C19   S    
C22   H22   S    
C7    C18   S    
C14   H2    S    
C12   O5    A    
C13   O7    A    
C21   H18   S    
C22   H23   S    
C1    C9    S    
C7    C8    T    
Cu1   O1    S    
C22   C23   S    
C4    H12   S    
C10   C12   S    
C2    H1    S    
C8    C11   S    
C2    C14   S    
Cu2   N1    S    
Cu1   O5    S    
C13   O8    A    
C20   H14   S    
C2    C3    S    
Cu2   O6    S    
C23   H20   S    
C15   C16   S    
C3    C4    S    
Cu2   O2    S    
N1    N2    D    
C20   H13   S    
C1    O1    A    
N2    C22   S    
C24   O10   D    
C5    H10   S    
C9    C10   D    
C3    C6    S    
C4    C21   S    
C14   C24   S    
C11   O3    A    
C6    C17   T    
C23   H19   S    
C9    H3    S    
C15   H6    S    
C5    C18   S    
Cu1   O3    S    
C10   H4    S    
C16   H9    S    
C15   H7    S    
C23   H21   S    
C24   H24   S    
C19   H17   S    
C3    C16   S    
Cu1   O7    S    
C1    O2    A    
H5    N1    S    
C4    C5    S    
C5    H11   S    
Cu1   N2    S    
