data_mof_unit_67454.cif
_audit_creation_date              2012-12-10T16:46:01-0500
_audit_creation_method            fapswitch 2.2
_symmetry_space_group_name_H-M    P1
_symmetry_Int_Tables_number       1
_space_group_crystal_system       triclinic
_cell_length_a                    10.803834
_cell_length_b                    8.70963
_cell_length_c                    7.569745
_cell_angle_alpha                 103.282802
_cell_angle_beta                  95.02421
_cell_angle_gamma                 93.330153
_cell_volume                      688.323663403

loop_
_atom_site_label
_atom_site_type_symbol
_atom_type_description
_atom_site_fract_x
_atom_site_fract_y
_atom_site_fract_z
_atom_type_partial_charge
C1    C     C_R   0.498580 0.200163 0.453125 0.848492
C2    C     C_3   0.876927 0.465158 0.497460 -0.000562
C3    C     C_3   0.938057 0.637458 0.577967 -0.518619
C4    C     C_3   0.920975 0.388454 0.305455 0.306232
C5    C     C_2   0.501975 0.032146 0.427523 -0.327470
C6    C     C_2   0.495106 0.966673 0.569505 -0.382474
C7    C     C_R   0.260546 0.498430 0.500517 0.785787
C8    C     C_R   0.501621 0.799612 0.546372 0.848824
C9    C     C_R   0.737781 0.478902 0.496369 0.807144
C10   C     C_3   0.078681 0.358208 0.608565 0.259422
C11   C     C_3   0.931698 0.356180 0.621884 0.180354
C12   C     C_3   0.081060 0.643093 0.602494 -0.507341
C13   C     C_3   0.054498 0.452297 0.299778 -0.437588
C14   C     C_3   0.122763 0.483864 0.499249 -0.044741
Cu1   Cu    Cu3+1 0.514070 0.517380 0.684380 1.002212
Cu2   Cu    Cu3+1 0.485930 0.482620 0.315620 1.015365
H1    H     H_    0.119107 0.408828 0.752100 0.127243
H2    H     H_    0.121126 0.741601 0.550686 0.193236
H3    H     H_    0.910720 0.713276 0.485011 0.193225
H4    H     H_    0.510753 0.962163 0.291130 0.193984
H5    H     H_    0.480712 0.035700 0.703404 0.170309
H6    H     H_    0.914456 0.408356 0.765544 0.105136
H7    H     H_    0.114861 0.669095 0.750376 0.185778
H8    H     H_    0.904828 0.689660 0.712253 0.170886
H9    H     H_    0.054129 0.563485 0.250779 0.210935
H10   H     H_    0.099761 0.368127 0.196930 0.136531
H11   H     H_    0.934677 0.263670 0.304453 0.129645
N1    N     N_2   0.464720 0.456420 0.038520 0.143043
N2    N     N_2   0.535280 0.543580 0.961480 0.126160
O1    O     O_R   0.509140 0.286130 0.619770 -0.550843
O2    O     O_R   0.485380 0.256770 0.308360 -0.650440
O3    O     O_R   0.329570 0.514650 0.655700 -0.533584
O4    O     O_R   0.305810 0.485300 0.344290 -0.611118
O5    O     O_R   0.514620 0.743230 0.691640 -0.614484
O6    O     O_R   0.490860 0.713870 0.380230 -0.518351
O7    O     O_R   0.694190 0.514700 0.655710 -0.665669
O8    O     O_R   0.670430 0.485350 0.344300 -0.513132
O9    O     O_3   0.840764 0.392479 0.147686 -0.578098
C15   C     C_3   0.779267 0.238383 0.077294 0.017151
H12   H     H_    0.724297 0.203068 0.181294 0.166402
H13   H     H_    0.848100 0.149462 0.038599 0.112570
C16   C     C_3   0.691837 0.229001 0.909886 -0.686099
H14   H     H_    0.675098 0.104026 0.835006 0.176322
H15   H     H_    0.602246 0.265145 0.950121 0.242530
H16   H     H_    0.728591 0.302241 0.822774 0.284508
O10   O     O_3   0.371671 0.370617 0.919331 -0.468838
C17   C     C_3   0.335405 0.233309 0.974723 -0.175632
H17   H     H_    0.287091 0.260300 0.098694 0.156319
H18   H     H_    0.414443 0.160144 0.989034 0.134691
H19   H     H_    0.267101 0.159480 0.866189 0.161898
O11   O     O_3   0.596908 0.668231 0.082695 -0.469166
C18   C     C_3   0.709305 0.708439 0.018395 0.186902
H20   H     H_    0.693299 0.756298 0.896160 0.162113
H21   H     H_    0.766521 0.605353 0.990661 0.191332
C19   C     C_3   0.781887 0.838891 0.164823 -0.884425
H22   H     H_    0.791038 0.802581 0.295354 0.265309
H23   H     H_    0.875663 0.865930 0.124641 0.194419
H24   H     H_    0.730177 0.946365 0.185718 0.237889
O12   O     O_3   0.125690 0.204609 0.570891 -0.587127
C20   C     C_3   0.162963 0.143905 0.395424 0.101675
H25   H     H_    0.251916 0.204477 0.379919 0.150476
H26   H     H_    0.092753 0.146628 0.283112 0.118139
C21   C     C_3   0.184577 0.970217 0.372795 -0.852460
H27   H     H_    0.093648 0.898918 0.350816 0.226263
H28   H     H_    0.235628 0.929057 0.251640 0.213958
H29   H     H_    0.240091 0.952570 0.495776 0.256420
O13   O     O_3   0.868361 0.201536 0.561872 -0.605362
C22   C     C_3   0.908760 0.094446 0.665796 -0.227882
H30   H     H_    0.960676 0.152572 0.800252 0.156728
H31   H     H_    0.966906 0.009300 0.586260 0.214396
H32   H     H_    0.827813 0.019072 0.685120 0.143149

loop_
_geom_bond_atom_site_label_1
_geom_bond_atom_site_label_2
_ccdc_geom_bond_type
Cu2   N1    S    
C9    O7    A    
C2    C4    S    
C19   H22   S    
C21   H28   S    
C3    H3    S    
C7    O3    A    
O13   C22   S    
Cu2   O4    S    
C15   C16   S    
Cu1   O5    S    
C17   H17   S    
C18   C19   S    
Cu2   O8    S    
C13   H9    S    
C9    O8    A    
C2    C3    S    
C21   H29   S    
O12   C20   S    
C17   H18   S    
C5    H4    S    
C8    O5    A    
C13   C14   S    
Cu2   O2    S    
C7    O4    A    
C12   H7    S    
N1    O10   S    
C3    H8    S    
C5    C6    D    
C16   H15   S    
C20   H25   S    
C22   H32   S    
C1    C5    S    
C2    C11   S    
C20   H26   S    
N1    N2    D    
C18   H21   S    
Cu1   N2    S    
C17   H19   S    
C10   C11   S    
C19   H23   S    
Cu2   O6    S    
C10   C14   S    
O9    C15   S    
C2    C9    S    
C20   C21   S    
C13   H10   S    
C16   H14   S    
C10   H1    S    
C21   H27   S    
C15   H12   S    
Cu1   O7    S    
C1    O2    A    
C4    H11   S    
O11   C18   S    
C18   H20   S    
C11   O13   S    
Cu1   O1    S    
C15   H13   S    
N2    O11   S    
C19   H24   S    
C12   H2    S    
C4    C13   S    
C22   H31   S    
O10   C17   S    
C1    O1    A    
C6    C8    S    
C3    C12   S    
C11   H6    S    
C4    O9    S    
C6    H5    S    
C10   O12   S    
C16   H16   S    
C7    C14   S    
Cu1   Cu2   S    
C12   C14   S    
C22   H30   S    
C8    O6    A    
Cu1   O3    S    
