data_mof_unit_32651.cif
_audit_creation_date              2012-12-10T17:19:22-0500
_audit_creation_method            fapswitch 2.2
_symmetry_space_group_name_H-M    P1
_symmetry_Int_Tables_number       1
_space_group_crystal_system       triclinic
_cell_length_a                    15.018617
_cell_length_b                    10.849583
_cell_length_c                    9.651497
_cell_angle_alpha                 85.962876
_cell_angle_beta                  90.55898
_cell_angle_gamma                 93.482792
_cell_volume                      1565.84680093

loop_
_atom_site_label
_atom_site_type_symbol
_atom_type_description
_atom_site_fract_x
_atom_site_fract_y
_atom_site_fract_z
_atom_type_partial_charge
C1    C     C_R   0.489152 0.260628 0.505003 0.790376
C2    C     C_R   0.911139 0.593028 0.570501 0.025896
C3    C     C_R   0.945320 0.349788 0.323213 -0.187089
C4    C     C_R   0.038143 0.350048 0.321913 -0.194007
C5    C     C_R   0.089256 0.427318 0.406303 0.113061
C6    C     C_R   0.046783 0.507015 0.490953 0.066834
C7    C     C_R   0.097709 0.583178 0.577881 0.081198
C8    C     C_R   0.056298 0.667184 0.655486 -0.241077
C9    C     C_R   0.963836 0.676987 0.648504 -0.014179
C10   C     C_R   0.182212 0.426315 0.407961 -0.225870
C11   C     C_R   0.232241 0.499799 0.497526 -0.028293
C12   C     C_R   0.328947 0.498810 0.499443 0.813052
C13   C     C_R   0.189956 0.576311 0.583564 -0.214476
C14   C     C_R   0.391613 0.077844 0.750489 -0.082891
C15   C     C_R   0.347132 0.991958 0.845213 -0.112058
C16   C     C_R   0.337097 0.868918 0.820286 -0.159886
C17   C     C_R   0.374249 0.828982 0.703134 -0.141962
C18   C     C_R   0.423021 0.911228 0.607547 0.108613
C19   C     C_R   0.429502 0.041462 0.624622 0.027638
C20   C     C_R   0.468954 0.122248 0.511256 -0.145464
C21   C     C_R   0.479018 0.069833 0.382706 -0.244503
C22   C     C_R   0.465395 0.943469 0.368161 -0.041072
C23   C     C_R   0.487169 0.735141 0.495551 0.807753
C24   C     C_R   0.458522 0.864294 0.488861 -0.175633
C25   C     C_R   0.652106 0.606177 0.133441 0.028426
C26   C     C_R   0.732496 0.614576 0.061597 -0.228358
C27   C     C_R   0.728351 0.628977 0.918591 -0.219101
C28   C     C_R   0.646556 0.611401 0.852008 -0.113335
C29   C     C_R   0.573901 0.548909 0.922722 0.207354
C30   C     C_R   0.574759 0.548637 0.071536 0.126239
C31   C     C_R   0.425608 0.468154 0.075558 -0.020151
C32   C     C_R   0.424663 0.474356 0.928228 0.036619
C33   C     C_R   0.670915 0.499147 0.500141 0.842549
C34   C     C_R   0.817596 0.586966 0.573419 -0.168347
C35   C     C_R   0.767748 0.501973 0.497604 -0.032970
C36   C     C_R   0.809889 0.425569 0.411427 -0.232790
C37   C     C_R   0.902652 0.428190 0.407270 0.116101
C38   C     C_R   0.953496 0.509580 0.489634 0.049517
Cu1   Cu    Cu3+1 0.499990 0.499990 0.640660 0.982743
Cu2   Cu    Cu3+1 0.500010 0.500010 0.359340 0.989172
H1    H     H_    0.318123 0.021196 0.939211 0.154733
H2    H     H_    0.793823 0.646492 0.111576 0.190641
H3    H     H_    0.906838 0.287904 0.258913 0.156165
H4    H     H_    0.215605 0.366660 0.342187 0.137903
H5    H     H_    0.493684 0.128203 0.289112 0.210945
N1    N     N_R   0.500860 0.501210 0.147910 -0.202761
N2    N     N_R   0.500890 0.501290 0.852040 -0.179679
O1    O     O_R   0.499990 0.319640 0.618810 -0.544568
O2    O     O_R   0.500000 0.319660 0.381240 -0.580179
O3    O     O_R   0.370250 0.499960 0.618800 -0.580327
O4    O     O_R   0.370260 0.499980 0.381230 -0.586979
O5    O     O_R   0.500000 0.680340 0.618760 -0.613657
O6    O     O_R   0.500010 0.680360 0.381190 -0.537173
O7    O     O_R   0.629740 0.500020 0.618770 -0.602246
O8    O     O_R   0.629750 0.500040 0.381200 -0.586270
H6    H     H_    0.782092 0.648339 0.632552 0.155216
C39   C     C_2   0.394714 0.201444 0.796350 0.872265
O9    O     O_2   0.337161 0.270575 0.757132 -0.587696
O10   O     O_R   0.458217 0.235921 0.895290 -0.737872
H7    H     H_    0.501417 0.169560 0.920541 0.327379
H8    H     H_    0.299609 0.804190 0.891319 0.133702
H9    H     H_    0.360558 0.732950 0.685052 0.147044
C40   C     C_2   0.441431 0.901156 0.228729 0.945557
O11   O     O_2   0.465985 0.963402 0.123861 -0.597599
O12   O     O_R   0.386241 0.793813 0.216788 -0.750391
H10   H     H_    0.375682 0.773798 0.116789 0.320786
H11   H     H_    0.364817 0.439302 0.130879 0.135539
C41   C     C_2   0.645300 0.715978 0.212895 0.904839
O13   O     O_2   0.597064 0.796260 0.169057 -0.586442
O14   O     O_R   0.703186 0.737360 0.324142 -0.777476
H12   H     H_    0.693719 0.818514 0.366317 0.330280
H13   H     H_    0.786098 0.668188 0.862587 0.178112
H14   H     H_    0.639728 0.656360 0.750259 0.192966
H15   H     H_    0.770248 0.362679 0.349592 0.150055
H16   H     H_    0.362042 0.455182 0.876651 0.175709
H17   H     H_    0.069904 0.288701 0.256376 0.152313
H18   H     H_    0.228852 0.632887 0.652460 0.125080
H19   H     H_    0.096800 0.728827 0.717678 0.179060
C42   C     C_2   0.926556 0.778433 0.720746 0.807164
O15   O     O_2   0.868034 0.838848 0.665775 -0.597440
O16   O     O_R   0.961560 0.808668 0.849657 -0.765473
H20   H     H_    0.931450 0.879969 0.888242 0.341146

loop_
_geom_bond_atom_site_label_1
_geom_bond_atom_site_label_2
_ccdc_geom_bond_type
C33   O8    A    
C40   O12   S    
C34   H6    S    
C35   C36   A    
C32   H16   S    
O16   H20   S    
C39   O9    D    
C7    C8    A    
C31   H11   S    
C3    H3    S    
C26   C27   A    
C29   C30   A    
C29   N2    A    
C18   C24   A    
C36   C37   A    
C18   C19   A    
C5    C6    A    
C39   O10   S    
Cu1   O7    S    
C15   C16   A    
C25   C30   A    
C34   C35   A    
C9    C42   S    
C22   C40   S    
C41   O13   D    
C19   C20   A    
C8    C9    A    
C31   N1    A    
C23   C24   S    
C6    C38   A    
O14   H12   S    
C2    C34   A    
Cu1   O5    S    
O10   H7    S    
C21   C22   A    
C8    H19   S    
C25   C41   S    
C28   H14   S    
C23   O6    A    
C21   H5    S    
C13   H18   S    
C10   H4    S    
C15   H1    S    
Cu1   Cu2   S    
C42   O16   S    
C16   C17   A    
C25   C26   A    
C42   O15   D    
Cu2   N1    S    
C37   C38   A    
C17   H9    S    
C2    C38   A    
C31   C32   A    
Cu2   O8    S    
C17   C18   A    
C36   H15   S    
Cu2   O6    S    
C32   N2    A    
C22   C24   A    
C16   H8    S    
C3    C4    A    
C12   O4    A    
C26   H2    S    
Cu1   N2    S    
C33   O7    A    
C14   C39   S    
C28   C29   A    
C1    C20   S    
C14   C19   A    
C30   N1    A    
C4    C5    A    
C12   O3    A    
C11   C12   S    
C1    O1    A    
C6    C7    A    
Cu2   O4    S    
C5    C10   A    
C11   C13   A    
C23   O5    A    
C33   C35   S    
C4    H17   S    
C10   C11   A    
C40   O11   D    
C7    C13   A    
Cu1   O3    S    
C20   C21   A    
C3    C37   A    
C41   O14   S    
O12   H10   S    
C27   C28   A    
C14   C15   A    
C2    C9    A    
C1    O2    A    
C27   H13   S    
Cu2   O2    S    
Cu1   O1    S    
