data_mof_unit_62884.cif
_audit_creation_date              2012-12-10T17:54:49-0500
_audit_creation_method            fapswitch 2.2
_symmetry_space_group_name_H-M    P1
_symmetry_Int_Tables_number       1
_space_group_crystal_system       triclinic
_cell_length_a                    19.636126
_cell_length_b                    19.636111
_cell_length_c                    60.053558
_cell_angle_alpha                 89.999989
_cell_angle_beta                  90.000052
_cell_angle_gamma                 90.000046
_cell_volume                      23155.2797257

loop_
_atom_site_label
_atom_site_type_symbol
_atom_type_description
_atom_site_fract_x
_atom_site_fract_y
_atom_site_fract_z
_atom_type_partial_charge
C1    C     C_R   0.500000 1.000000 0.189488 0.870625
C2    C     C_R   0.561754 0.998195 0.559233 -0.041354
C3    C     C_R   0.870725 0.629275 0.250000 0.831938
C4    C     C_R   0.370725 0.870725 0.750000 0.831926
C5    C     C_R   0.629275 0.129275 0.250000 0.831943
C6    C     C_R   0.870725 0.629275 0.750000 0.831921
C7    C     C_R   0.129275 0.370725 0.250000 0.831941
C8    C     C_1   0.318945 0.818945 0.250000 -0.121408
C9    C     C_1   0.681055 0.181055 0.750000 -0.121330
C10   C     C_1   0.181055 0.318945 0.250000 -0.121406
C11   C     C_1   0.818945 0.681055 0.750000 -0.121330
C12   C     C_1   0.681055 0.181055 0.250000 -0.121401
C13   C     C_R   0.001798 0.438247 0.440767 -0.041352
C14   C     C_1   0.318945 0.818945 0.750000 -0.121323
C15   C     C_1   0.818945 0.681055 0.250000 -0.121409
C16   C     C_1   0.181055 0.318945 0.750000 -0.121329
C17   C     C_1   0.318945 0.181055 0.750000 -0.121409
C18   C     C_1   0.681055 0.818945 0.250000 -0.121331
C19   C     C_1   0.181055 0.681055 0.750000 -0.121402
C20   C     C_1   0.818945 0.318945 0.250000 -0.121326
C21   C     C_1   0.681055 0.818945 0.750000 -0.121408
C22   C     C_1   0.318945 0.181055 0.250000 -0.121330
C23   C     C_1   0.818945 0.318945 0.750000 -0.121407
C24   C     C_R   0.001857 0.561755 0.559233 -0.041356
C25   C     C_1   0.181055 0.681055 0.250000 -0.121329
C26   C     C_1   0.275471 0.775471 0.250000 0.027415
C27   C     C_1   0.724529 0.224529 0.750000 0.027447
C28   C     C_1   0.224529 0.275471 0.250000 0.027416
C29   C     C_1   0.775471 0.724529 0.750000 0.027447
C30   C     C_1   0.724529 0.224529 0.250000 0.027422
C31   C     C_1   0.275471 0.775471 0.750000 0.027455
C32   C     C_1   0.775471 0.724529 0.250000 0.027414
C33   C     C_1   0.224529 0.275471 0.750000 0.027448
C34   C     C_1   0.275471 0.224529 0.750000 0.027414
C35   C     C_R   0.561752 0.001846 0.440767 -0.041349
C36   C     C_1   0.724529 0.775471 0.250000 0.027447
C37   C     C_1   0.224529 0.724529 0.750000 0.027421
C38   C     C_1   0.775471 0.275471 0.250000 0.027453
C39   C     C_1   0.724529 0.775471 0.750000 0.027415
C40   C     C_1   0.275471 0.224529 0.250000 0.027448
C41   C     C_1   0.775471 0.275471 0.750000 0.027415
C42   C     C_1   0.224529 0.724529 0.250000 0.027448
C43   C     C_R   0.439358 0.998187 0.417347 0.657846
C44   C     C_R   0.560640 0.998226 0.582652 0.657838
C45   C     C_R   0.001766 0.439360 0.417347 0.657830
C46   C     C_R   0.438245 0.001805 0.559233 -0.041352
C47   C     C_R   0.001824 0.560642 0.582653 0.657834
C48   C     C_R   0.560638 0.001813 0.417347 0.657825
C49   C     C_R   0.439358 0.001773 0.582653 0.657830
C50   C     C_R   0.998234 0.560643 0.417347 0.657837
C51   C     C_R   0.998176 0.439362 0.582652 0.657834
C52   C     C_R   0.939359 0.498182 0.917347 0.657839
C53   C     C_R   0.060640 0.498236 0.082653 0.657829
C54   C     C_R   0.501788 0.939361 0.917347 0.657826
C55   C     C_R   0.501788 0.060641 0.082653 0.657833
C56   C     C_R   0.060639 0.501817 0.917347 0.657828
C57   C     C_R   0.998202 0.561757 0.440767 -0.041353
C58   C     C_R   0.939357 0.501763 0.082653 0.657840
C59   C     C_R   0.498211 0.060643 0.917347 0.657841
C60   C     C_R   0.498212 0.939359 0.082653 0.657832
C61   C     C_R   0.501267 0.937786 0.370323 0.446369
C62   C     C_R   0.498768 0.937785 0.629676 0.446369
C63   C     C_R   0.062215 0.501219 0.370323 0.446370
C64   C     C_R   0.062214 0.498750 0.629676 0.446364
C65   C     C_R   0.498729 0.062214 0.370323 0.446368
C66   C     C_R   0.501232 0.062215 0.629676 0.446364
C67   C     C_R   0.937785 0.498784 0.370323 0.446363
C68   C     C_R   0.998142 0.438249 0.559233 -0.041348
C69   C     C_R   0.937785 0.501254 0.629676 0.446368
C70   C     C_R   0.001249 0.437785 0.870323 0.446373
C71   C     C_R   0.998798 0.437785 0.129677 0.446365
C72   C     C_R   0.562215 0.001203 0.870323 0.446369
C73   C     C_R   0.562215 0.998780 0.129677 0.446370
C74   C     C_R   0.998749 0.562214 0.870323 0.446363
C75   C     C_R   0.001200 0.562215 0.129677 0.446371
C76   C     C_R   0.437784 0.998801 0.870323 0.446368
C77   C     C_R   0.437785 0.001220 0.129677 0.446364
C78   C     C_R   0.501189 0.938412 0.346997 -0.253979
C79   C     C_R   0.938245 0.498149 0.940767 -0.041353
C80   C     C_R   0.498846 0.938411 0.653003 -0.253981
C81   C     C_R   0.061589 0.501141 0.346997 -0.253983
C82   C     C_R   0.061588 0.498829 0.653003 -0.253977
C83   C     C_R   0.498810 0.061588 0.346997 -0.253980
C84   C     C_R   0.501154 0.061589 0.653003 -0.253978
C85   C     C_R   0.938411 0.498861 0.346997 -0.253975
C86   C     C_R   0.938412 0.501172 0.653003 -0.253979
C87   C     C_R   0.001170 0.438412 0.846997 -0.253982
C88   C     C_R   0.998876 0.438411 0.153003 -0.253976
C89   C     C_R   0.561589 0.001122 0.846997 -0.253981
C90   C     C_R   0.061753 0.498204 0.059233 -0.041349
C91   C     C_R   0.561589 0.998859 0.153003 -0.253981
C92   C     C_R   0.998829 0.561588 0.846997 -0.253973
C93   C     C_R   0.001123 0.561589 0.153003 -0.253981
C94   C     C_R   0.438411 0.998880 0.846997 -0.253978
C95   C     C_R   0.438411 0.001141 0.153003 -0.253976
C96   C     C_R   0.499998 0.000000 0.382149 0.024314
C97   C     C_R   0.500000 1.000000 0.617850 0.024315
C98   C     C_R   1.000000 0.500002 0.382149 0.024314
C99   C     C_R   1.000000 0.500002 0.617850 0.024314
C100  C     C_R   0.999999 0.500000 0.882149 0.024312
C101  C     C_R   0.501821 0.938248 0.940767 -0.041345
C102  C     C_R   0.999999 0.500000 0.117850 0.024313
C103  C     C_R   0.499999 0.000002 0.882149 0.024313
C104  C     C_R   0.500000 0.000000 0.117851 0.024315
C105  C     C_R   0.499998 0.000000 0.452674 -0.045266
C106  C     C_R   0.499999 1.000000 0.547326 -0.045266
C107  C     C_R   1.000000 0.500002 0.452674 -0.045267
C108  C     C_R   1.000000 0.500002 0.547326 -0.045266
C109  C     C_R   0.999999 0.500000 0.952674 -0.045264
C110  C     C_R   0.999998 0.500000 0.047326 -0.045265
C111  C     C_R   0.499999 0.000002 0.952674 -0.045263
C112  C     C_R   0.500000 1.000000 0.810512 0.870626
C113  C     C_R   0.501820 0.061755 0.059233 -0.041347
C114  C     C_R   0.499999 0.000001 0.047326 -0.045264
C115  C     C_R   0.061752 0.501851 0.940767 -0.041352
C116  C     C_R   0.938243 0.501796 0.059233 -0.041355
C117  C     C_R   0.498177 0.061756 0.940767 -0.041359
C118  C     C_R   0.498179 0.938246 0.059233 -0.041357
C119  C     C_R   0.376805 0.996074 0.452422 -0.092043
C120  C     C_R   0.623194 0.996155 0.547578 -0.092041
C121  C     C_R   0.003829 0.376806 0.452422 -0.092039
C122  C     C_R   0.003948 0.623194 0.547578 -0.092041
C123  C     C_R   0.623191 0.003926 0.452422 -0.092037
C124  C     C_R   0.000000 0.500000 0.189488 0.870626
C125  C     C_R   0.376804 0.003844 0.547578 -0.092039
C126  C     C_R   0.996170 0.623198 0.452422 -0.092040
C127  C     C_R   0.996051 0.376810 0.547578 -0.092039
C128  C     C_R   0.876806 0.496064 0.952422 -0.092042
C129  C     C_R   0.123195 0.496174 0.047578 -0.092038
C130  C     C_R   0.503877 0.876807 0.952422 -0.092038
C131  C     C_R   0.503875 0.123195 0.047578 -0.092039
C132  C     C_R   0.123191 0.503936 0.952422 -0.092039
C133  C     C_R   0.876803 0.503825 0.047578 -0.092042
C134  C     C_R   0.496122 0.123196 0.952422 -0.092046
C135  C     C_R   0.000000 0.500000 0.810512 0.870625
C136  C     C_R   0.496124 0.876806 0.047578 -0.092042
C137  C     C_R   0.500000 0.000000 0.335168 -0.173905
C138  C     C_R   0.500000 0.000000 0.664832 -0.173904
C139  C     C_R   0.000000 0.500000 0.335168 -0.173904
C140  C     C_R   1.000000 0.500000 0.664832 -0.173904
C141  C     C_R   1.000000 0.500000 0.835168 -0.173905
C142  C     C_R   1.000000 0.500000 0.164832 -0.173904
C143  C     C_R   0.500000 0.000000 0.835168 -0.173904
C144  C     C_R   0.500000 0.000000 0.164832 -0.173904
C145  C     C_R   0.937064 0.500778 0.011864 0.045898
C146  C     C_R   1.000000 0.500000 0.689488 0.870624
C147  C     C_R   0.062933 0.500834 0.988136 0.045897
C148  C     C_R   0.499194 0.937067 0.011864 0.045898
C149  C     C_R   0.499193 0.062936 0.988136 0.045898
C150  C     C_R   0.062933 0.499221 0.011864 0.045897
C151  C     C_R   0.937065 0.499165 0.988136 0.045897
C152  C     C_R   0.500804 0.062936 0.011864 0.045897
C153  C     C_R   0.500805 0.937067 0.988136 0.045896
C154  C     C_R   0.437064 0.000787 0.511864 0.045896
C155  C     C_R   0.562932 0.000828 0.488136 0.045896
C156  C     C_R   0.999161 0.437068 0.511864 0.045897
C157  C     C_R   0.000000 0.500000 0.310512 0.870624
C158  C     C_R   0.999222 0.562937 0.488136 0.045897
C159  C     C_R   0.562933 0.999213 0.511864 0.045897
C160  C     C_R   0.437065 0.999172 0.488136 0.045897
C161  C     C_R   0.000838 0.562936 0.511864 0.045897
C162  C     C_R   0.000777 0.437067 0.488136 0.045897
C163  C     C_R   0.999999 0.500000 0.023581 0.089134
C164  C     C_R   0.999999 0.500000 0.976419 0.089133
C165  C     C_R   0.499999 0.000001 0.023581 0.089133
C166  C     C_R   0.499999 0.000001 0.976419 0.089133
C167  C     C_R   0.499999 1.000000 0.523581 0.089135
C168  C     C_R   0.500000 0.000000 0.689488 0.870624
C169  C     C_R   0.499999 0.000000 0.476419 0.089134
C170  C     C_R   1.000000 0.500002 0.523581 0.089134
C171  C     C_R   1.000000 0.500002 0.476419 0.089134
C172  C     C_R   0.876057 0.503459 0.024436 -0.185520
C173  C     C_R   0.123937 0.503570 0.975564 -0.185519
C174  C     C_R   0.496489 0.876061 0.024436 -0.185518
C175  C     C_R   0.496487 0.123942 0.975564 -0.185519
C176  C     C_R   0.123940 0.496540 0.024436 -0.185519
C177  C     C_R   0.876060 0.496429 0.975564 -0.185520
C178  C     C_R   0.503509 0.123941 0.024436 -0.185518
C179  C     C_R   0.500000 0.000000 0.310512 0.870624
C180  C     C_R   0.503511 0.876061 0.975564 -0.185518
C181  C     C_R   0.376058 0.003478 0.524436 -0.185522
C182  C     C_R   0.623937 0.003560 0.475564 -0.185520
C183  C     C_R   0.996418 0.376064 0.524436 -0.185521
C184  C     C_R   0.996538 0.623944 0.475564 -0.185522
C185  C     C_R   0.623940 0.996522 0.524436 -0.185521
C186  C     C_R   0.376060 0.996440 0.475564 -0.185521
C187  C     C_R   0.003582 0.623940 0.524436 -0.185522
C188  C     C_R   0.003462 0.376060 0.475564 -0.185521
C189  C     C_R   0.629275 0.870725 0.250000 0.831922
C190  C     C_R   0.438245 0.998154 0.440767 -0.041357
C191  C     C_R   0.370725 0.129275 0.750000 0.831937
C192  C     C_R   0.129275 0.629275 0.250000 0.831924
C193  C     C_R   0.870725 0.370725 0.750000 0.831941
C194  C     C_R   0.370725 0.129275 0.250000 0.831921
C195  C     C_R   0.629275 0.870725 0.750000 0.831941
C196  C     C_R   0.870725 0.370725 0.250000 0.831922
C197  C     C_R   0.129275 0.629275 0.750000 0.831940
C198  C     C_R   0.629275 0.129275 0.750000 0.831921
C199  C     C_R   0.370725 0.870725 0.250000 0.831938
C200  C     C_R   0.129275 0.370725 0.750000 0.831923
H1    H     H_    0.497877 0.109317 0.337995 0.232252
H2    H     H_    0.001999 0.609320 0.162004 0.232250
H3    H     H_    0.390680 0.998008 0.837995 0.232249
H4    H     H_    0.390680 0.002031 0.162004 0.232250
H5    H     H_    0.002084 0.390681 0.837995 0.232248
H6    H     H_    0.997999 0.390680 0.162004 0.232252
H7    H     H_    0.609320 0.001997 0.837996 0.232250
H8    H     H_    0.609319 0.997967 0.162004 0.232250
H9    H     H_    0.328590 0.994048 0.443674 0.197856
H10   H     H_    0.671411 0.994161 0.556326 0.197857
H11   H     H_    0.005818 0.328588 0.443674 0.197857
H12   H     H_    0.502057 0.109319 0.662004 0.232252
H13   H     H_    0.005984 0.671410 0.556326 0.197857
H14   H     H_    0.671407 0.005952 0.443673 0.197858
H15   H     H_    0.328587 0.005839 0.556326 0.197857
H16   H     H_    0.994181 0.671416 0.443674 0.197856
H17   H     H_    0.994015 0.328595 0.556326 0.197857
H18   H     H_    0.828591 0.494034 0.943673 0.197857
H19   H     H_    0.171412 0.494188 0.056326 0.197858
H20   H     H_    0.505883 0.828591 0.943673 0.197858
H21   H     H_    0.505880 0.171412 0.056327 0.197857
H22   H     H_    0.171407 0.505966 0.943674 0.197858
H23   H     H_    0.890681 0.497970 0.337995 0.232251
H24   H     H_    0.828585 0.505812 0.056326 0.197856
H25   H     H_    0.494115 0.171413 0.943674 0.197856
H26   H     H_    0.494118 0.828589 0.056326 0.197857
H27   H     H_    0.826318 0.506087 0.016986 0.149259
H28   H     H_    0.173674 0.506243 0.983014 0.149261
H29   H     H_    0.493842 0.826323 0.016986 0.149259
H30   H     H_    0.493839 0.173680 0.983014 0.149259
H31   H     H_    0.173679 0.493912 0.016986 0.149260
H32   H     H_    0.826324 0.493756 0.983014 0.149260
H33   H     H_    0.506157 0.173679 0.016986 0.149259
H34   H     H_    0.890682 0.502088 0.662004 0.232250
H35   H     H_    0.506160 0.826323 0.983014 0.149260
H36   H     H_    0.326320 0.006114 0.516986 0.149261
H37   H     H_    0.673674 0.006229 0.483014 0.149261
H38   H     H_    0.993738 0.326328 0.516985 0.149262
H39   H     H_    0.993907 0.673682 0.483014 0.149261
H40   H     H_    0.673678 0.993885 0.516985 0.149261
H41   H     H_    0.326323 0.993771 0.483014 0.149260
H42   H     H_    0.006261 0.673676 0.516985 0.149261
H43   H     H_    0.006093 0.326322 0.483014 0.149261
H44   H     H_    0.493491 0.247850 0.375258 0.401958
H45   H     H_    0.502119 0.890683 0.337996 0.232251
H46   H     H_    0.506216 0.247859 0.624742 0.401952
H47   H     H_    0.752137 0.493961 0.375257 0.401959
H48   H     H_    0.752146 0.506348 0.624742 0.401952
H49   H     H_    0.506275 0.752145 0.375257 0.401956
H50   H     H_    0.493868 0.752140 0.624743 0.401956
H51   H     H_    0.247862 0.506084 0.375258 0.401945
H52   H     H_    0.247856 0.493743 0.624743 0.401958
H53   H     H_    0.993692 0.747854 0.875257 0.401967
H54   H     H_    0.005876 0.747865 0.124743 0.401954
H55   H     H_    0.252134 0.994222 0.875254 0.401963
H56   H     H_    0.497943 0.890681 0.662004 0.232251
H57   H     H_    0.252138 0.005982 0.124743 0.401963
H58   H     H_    0.006220 0.252142 0.875257 0.401946
H59   H     H_    0.993984 0.252138 0.124743 0.401962
H60   H     H_    0.747861 0.006060 0.875257 0.401952
H61   H     H_    0.747860 0.993877 0.124743 0.401953
H62   H     H_    0.109319 0.502031 0.337996 0.232250
H63   H     H_    0.109318 0.497915 0.662004 0.232250
H64   H     H_    0.997914 0.609318 0.837996 0.232251
N1    N     N_R   0.499998 0.000000 0.406144 -0.327832
N2    N     N_R   0.499999 1.000000 0.593855 -0.327832
N3    N     N_R   1.000000 0.500002 0.406144 -0.327832
N4    N     N_R   1.000000 0.500002 0.593855 -0.327831
N5    N     N_R   0.999999 0.500000 0.906144 -0.327831
N6    N     N_R   0.999998 0.500000 0.093855 -0.327832
N7    N     N_R   0.499999 0.000002 0.906144 -0.327830
N8    N     N_R   0.500000 0.000000 0.093856 -0.327831
O1    O     O_3   0.500000 0.000000 0.250000 -0.492108
O2    O     O_R   0.444160 1.000000 0.799680 -0.637975
O3    O     O_2   0.351789 0.060080 0.898466 -0.262636
O4    O     O_3   0.293924 0.994552 0.866017 -0.538775
O5    O     O_2   0.355237 0.064670 0.100921 -0.264742
O6    O     O_2   0.351790 0.940008 0.101516 -0.262540
O7    O     O_3   0.293923 0.005452 0.133983 -0.538768
O8    O     O_2   0.064763 0.355266 0.899072 -0.264845
O9    O     O_2   0.940103 0.351764 0.898491 -0.262454
O10   O     O_3   0.005534 0.293925 0.866017 -0.538776
O11   O     O_2   0.935337 0.355209 0.100933 -0.264820
O12   O     O_2   0.060001 0.351819 0.101503 -0.262461
O13   O     O_R   0.000000 0.555840 0.200320 -0.637977
O14   O     O_3   0.994648 0.293920 0.133983 -0.538769
O15   O     O_2   0.644768 0.064632 0.899081 -0.264867
O16   O     O_2   0.648203 0.939971 0.898482 -0.262427
O17   O     O_3   0.706077 0.005417 0.866017 -0.538770
O18   O     O_2   0.644767 0.935293 0.100932 -0.264850
O19   O     O_2   0.648203 0.059955 0.101504 -0.262442
O20   O     O_3   0.706078 0.994577 0.133983 -0.538777
O21   O     O_R   0.000000 0.444160 0.799680 -0.637977
O22   O     O_R   0.944160 0.500000 0.700320 -0.637975
O23   O     O_R   0.055840 0.500000 0.299680 -0.637977
O24   O     O_R   0.500000 0.944160 0.700320 -0.637976
O25   O     O_R   0.500000 0.055840 0.299680 -0.637974
O26   O     O_R   0.055840 0.500000 0.700320 -0.637974
O27   O     O_R   0.944160 0.500000 0.299680 -0.637974
O28   O     O_R   0.500000 0.055840 0.700320 -0.637974
O29   O     O_3   0.500000 1.000000 0.750000 -0.492108
O30   O     O_R   0.500000 0.944160 0.299680 -0.637974
O31   O     O_R   0.634020 0.921800 0.237170 -0.627683
O32   O     O_R   0.365980 0.078200 0.762830 -0.627665
O33   O     O_R   0.078200 0.634020 0.237170 -0.627679
O34   O     O_R   0.921800 0.365980 0.762830 -0.627657
O35   O     O_R   0.365980 0.078200 0.237170 -0.627677
O36   O     O_R   0.634020 0.921800 0.762830 -0.627659
O37   O     O_R   0.921800 0.365980 0.237170 -0.627682
O38   O     O_R   0.078200 0.634020 0.762830 -0.627652
O39   O     O_R   0.634020 0.078200 0.762830 -0.627681
O40   O     O_3   0.000000 0.500000 0.250000 -0.492108
O41   O     O_R   0.365980 0.921800 0.237170 -0.627660
O42   O     O_R   0.078200 0.365980 0.762830 -0.627685
O43   O     O_R   0.921800 0.634020 0.237170 -0.627661
O44   O     O_R   0.365980 0.921800 0.762830 -0.627673
O45   O     O_R   0.634020 0.078200 0.237170 -0.627658
O46   O     O_R   0.921800 0.634020 0.762830 -0.627682
O47   O     O_R   0.078200 0.365980 0.237170 -0.627655
O48   O     O_R   0.134020 0.421800 0.737170 -0.627679
O49   O     O_R   0.865980 0.578200 0.262830 -0.627655
O50   O     O_R   0.578200 0.134020 0.737170 -0.627684
O51   O     O_3   1.000000 0.500000 0.750000 -0.492108
O52   O     O_R   0.421800 0.865980 0.262830 -0.627655
O53   O     O_R   0.865980 0.578200 0.737170 -0.627684
O54   O     O_R   0.134020 0.421800 0.262830 -0.627659
O55   O     O_R   0.421800 0.865980 0.737170 -0.627686
O56   O     O_R   0.578200 0.134020 0.262830 -0.627649
O57   O     O_R   0.134020 0.578200 0.262830 -0.627684
O58   O     O_R   0.865980 0.421800 0.737170 -0.627655
O59   O     O_R   0.578200 0.865980 0.262830 -0.627683
O60   O     O_R   0.421800 0.134020 0.737170 -0.627651
O61   O     O_R   0.865980 0.421800 0.262830 -0.627680
O62   O     O_R   0.444160 0.000000 0.200320 -0.637975
O63   O     O_R   0.134020 0.578200 0.737170 -0.627658
O64   O     O_R   0.421800 0.134020 0.262830 -0.627689
O65   O     O_R   0.578200 0.865980 0.737170 -0.627655
O66   O     O_2   0.380349 0.996477 0.405839 -0.501741
O67   O     O_2   0.619651 0.996554 0.594160 -0.501745
O68   O     O_2   0.003430 0.380350 0.405839 -0.501746
O69   O     O_2   0.003541 0.619651 0.594161 -0.501741
O70   O     O_2   0.619647 0.003524 0.405839 -0.501748
O71   O     O_2   0.380348 0.003446 0.594161 -0.501746
O72   O     O_2   0.996570 0.619654 0.405839 -0.501745
O73   O     O_R   0.555840 1.000000 0.799680 -0.637976
O74   O     O_2   0.996458 0.380353 0.594161 -0.501749
O75   O     O_2   0.880350 0.496470 0.905839 -0.501745
O76   O     O_2   0.119651 0.496577 0.094161 -0.501746
O77   O     O_2   0.503468 0.880351 0.905839 -0.501752
O78   O     O_2   0.503470 0.119651 0.094161 -0.501750
O79   O     O_2   0.119648 0.503529 0.905839 -0.501745
O80   O     O_2   0.880346 0.503423 0.094161 -0.501742
O81   O     O_2   0.496531 0.119653 0.905839 -0.501740
O82   O     O_2   0.496529 0.880349 0.094161 -0.501739
O83   O     O_2   0.435128 0.144732 0.399048 -0.264989
O84   O     O_R   1.000000 0.444160 0.200320 -0.637974
O85   O     O_2   0.559789 0.148230 0.398515 -0.262297
O86   O     O_3   0.494482 0.206075 0.366017 -0.538768
O87   O     O_2   0.564769 0.144775 0.600948 -0.264871
O88   O     O_2   0.440105 0.148193 0.601488 -0.262414
O89   O     O_3   0.505396 0.206079 0.633983 -0.538755
O90   O     O_2   0.855215 0.435291 0.399060 -0.264774
O91   O     O_2   0.851814 0.559955 0.398503 -0.262504
O92   O     O_3   0.793921 0.494627 0.366017 -0.538756
O93   O     O_2   0.855273 0.564779 0.600930 -0.264928
O94   O     O_2   0.851758 0.440118 0.601507 -0.262367
O95   O     O_R   0.000000 0.555840 0.799680 -0.637973
O96   O     O_3   0.793925 0.505546 0.633983 -0.538767
O97   O     O_2   0.564835 0.855267 0.399058 -0.264812
O98   O     O_2   0.440174 0.851768 0.398506 -0.262479
O99   O     O_3   0.505533 0.793925 0.366017 -0.538772
O100  O     O_2   0.435240 0.855225 0.600945 -0.264806
O101  O     O_2   0.559904 0.851807 0.601491 -0.262484
O102  O     O_3   0.494598 0.793922 0.633983 -0.538778
O103  O     O_2   0.144784 0.564717 0.399059 -0.264818
O104  O     O_2   0.148186 0.440053 0.398504 -0.262482
O105  O     O_3   0.206079 0.505374 0.366017 -0.538769
O106  O     O_R   0.555840 0.000000 0.200320 -0.637976
O107  O     O_2   0.144723 0.435255 0.600920 -0.264863
O108  O     O_2   0.148246 0.559915 0.601516 -0.262421
O109  O     O_3   0.206074 0.494436 0.633983 -0.538768
O110  O     O_2   0.935227 0.644732 0.899070 -0.264902
O111  O     O_2   0.059887 0.648236 0.898493 -0.262371
O112  O     O_3   0.994467 0.706075 0.866017 -0.538766
O113  O     O_2   0.064638 0.644790 0.100927 -0.264719
O114  O     O_2   0.939974 0.648182 0.101510 -0.262576
O115  O     O_3   0.005362 0.706079 0.133983 -0.538778
O116  O     O_2   0.355233 0.935422 0.899096 -0.264645
S1    S     S_3+6 0.497026 0.141422 0.384375 0.060209
S2    S     S_3+6 0.002799 0.641425 0.115625 0.060203
S3    S     S_3+6 0.358574 0.997210 0.884374 0.060213
S4    S     S_3+6 0.358575 0.002842 0.115625 0.060212
S5    S     S_3+6 0.002917 0.358576 0.884374 0.060199
S6    S     S_3+6 0.997191 0.358575 0.115625 0.060214
S7    S     S_3+6 0.641424 0.002810 0.884375 0.060206
S8    S     S_3+6 0.641424 0.997146 0.115625 0.060205
S9    S     S_3+6 0.502881 0.141424 0.615625 0.060211
S10   S     S_3+6 0.858575 0.497159 0.384375 0.060217
S11   S     S_3+6 0.858577 0.502929 0.615625 0.060204
S12   S     S_3+6 0.502959 0.858578 0.384375 0.060206
S13   S     S_3+6 0.497122 0.858576 0.615625 0.060205
S14   S     S_3+6 0.141425 0.502846 0.384375 0.060201
S15   S     S_3+6 0.141423 0.497084 0.615625 0.060212
S16   S     S_3+6 0.997077 0.641423 0.884374 0.060218
Zn1   Zn    Zn3+2 0.500000 0.920580 0.268960 1.008870
Zn2   Zn    Zn3+2 1.000000 0.579420 0.231040 1.008868
Zn3   Zn    Zn3+2 0.579420 1.000000 0.768960 1.008869
Zn4   Zn    Zn3+2 0.420580 0.000000 0.231040 1.008871
Zn5   Zn    Zn3+2 1.000000 0.579420 0.768960 1.008874
Zn6   Zn    Zn3+2 0.000000 0.420580 0.231040 1.008873
Zn7   Zn    Zn3+2 0.420580 1.000000 0.768960 1.008871
Zn8   Zn    Zn3+2 0.579420 0.000000 0.231040 1.008870
Zn9   Zn    Zn3+2 0.500000 0.079420 0.731040 1.008871
Zn10  Zn    Zn3+2 0.079420 0.500000 0.268960 1.008869
Zn11  Zn    Zn3+2 0.920580 0.500000 0.731040 1.008870
Zn12  Zn    Zn3+2 0.500000 0.079420 0.268960 1.008873
Zn13  Zn    Zn3+2 0.500000 0.920580 0.731040 1.008871
Zn14  Zn    Zn3+2 0.920580 0.500000 0.268960 1.008873
Zn15  Zn    Zn3+2 0.079420 0.500000 0.731040 1.008872
Zn16  Zn    Zn3+2 0.000000 0.420580 0.768960 1.008868

loop_
_geom_bond_atom_site_label_1
_geom_bond_atom_site_label_2
_ccdc_geom_bond_type
C110  C116  A    
C153  C166  A    
C8    C26   T    
O115  S2    S    
C4    O44   A    
O38   Zn5   S    
C152  C165  A    
C155  C182  A    
C5    O45   A    
C15   C32   T    
C107  C171  A    
C17   C191  S    
C150  C163  A    
C7    O47   A    
C105  C169  A    
C66   C97   A    
C63   C98   A    
C147  C164  A    
O89   S9    S    
C48   O70   S    
C185  H40   S    
C28   C40   S    
O3    S3    D    
O61   Zn14  S    
C78   H45   S    
O83   S1    D    
O101  S13   D    
C74   C92   A    
C87   H5    S    
O40   Zn10  S    
C19   C37   T    
C76   C94   A    
O13   Zn2   S    
O99   S12   S    
C65   C96   A    
C162  C171  A    
H52   O109  S    
O49   Zn14  S    
C69   S11   S    
C194  O35   A    
O5    S4    D    
C156  C162  A    
O111  S16   D    
H50   O102  S    
C124  O13   A    
C76   C103  A    
C153  C180  A    
C95   C144  A    
C148  C165  A    
C156  C183  A    
C91   H8    S    
C100  N5    S    
C120  H10   S    
C196  O37   A    
C136  C174  A    
C67   C85   A    
C79   C109  A    
C147  C150  A    
O12   S6    D    
C70   S5    S    
O109  S15   S    
C6    C11   S    
O110  S16   D    
O112  S16   S    
C74   C100  A    
C116  C133  A    
C89   C143  A    
C67   S10   S    
O57   Zn10  S    
C109  C164  A    
C148  C174  A    
C31   C37   S    
O54   Zn10  S    
O19   S8    D    
C155  C169  A    
C137  C179  S    
C127  H17   S    
C7    O54   A    
C84   H12   S    
O93   S11   D    
C87   C141  A    
O91   S10   D    
C130  H20   S    
C92   H64   S    
C47   O69   S    
C74   S16   S    
C71   C102  A    
O107  S15   D    
C154  C167  A    
O1    Zn4   S    
C148  C153  A    
O15   S7    D    
O45   Zn8   S    
C128  H18   S    
C118  C136  A    
C75   C93   A    
O43   Zn2   S    
C58   O80   S    
C50   N3    A    
C54   O77   S    
C80   H56   S    
C50   C57   A    
O63   Zn15  S    
C25   C192  S    
C23   C41   T    
C46   C125  A    
C72   C103  A    
C58   N6    A    
O56   Zn12  S    
C122  H13   S    
C50   O72   S    
H55   O4    S    
O51   Zn5   S    
C119  C186  A    
C64   S15   S    
C13   C45   A    
C125  H15   S    
C89   H7    S    
C48   N1    A    
C55   O78   S    
C156  C170  A    
C159  C167  A    
C71   S6    S    
O4    S3    S    
C4    C14   S    
C197  O63   A    
C71   C88   A    
C45   N3    A    
C139  C157  S    
C161  C187  A    
C123  H14   S    
C196  O61   A    
C188  H43   S    
O1    Zn8   S    
O2    Zn7   S    
C103  N7    S    
O14   S6    S    
C108  C170  A    
H53   O112  S    
C54   C101  A    
C14   C31   T    
C198  O50   A    
C53   O76   S    
O92   S10   S    
C146  O22   A    
C61   C96   A    
O62   Zn4   S    
C49   N2    A    
C30   C38   S    
O58   Zn11  S    
H48   O96   S    
C32   C36   S    
C62   C80   A    
C124  O84   A    
C133  C172  A    
O22   Zn11  S    
O100  S13   D    
C59   O81   S    
C172  H27   S    
C151  C177  A    
C45   O68   S    
H61   O20   S    
O40   Zn14  S    
C133  H24   S    
C138  C168  S    
C67   C98   A    
C90   C129  A    
C76   S3    S    
C64   C99   A    
C2    C44   A    
C82   C140  A    
O29   Zn7   S    
C52   C79   A    
C61   C78   A    
C16   C200  S    
H44   O86   S    
C6    O46   A    
C145  C172  A    
O37   Zn6   S    
C58   C116  A    
C199  O41   A    
C187  H42   S    
C70   C87   A    
O90   S10   D    
C115  C132  A    
C146  O26   A    
O108  S15   D    
C99   N4    S    
C155  C159  A    
C134  H25   S    
H47   O92   S    
C179  O25   A    
O16   S7    D    
O40   Zn6   S    
C111  C166  A    
C43   O66   S    
C2    C120  A    
O26   Zn15  S    
C145  C163  A    
C2    C106  A    
C3    O43   A    
H59   O14   S    
C192  O57   A    
C35   C105  A    
C62   C97   A    
C13   C121  A    
C145  C151  A    
C157  O27   A    
C92   C141  A    
O20   S8    S    
C130  C180  A    
H54   O115  S    
O32   Zn7   S    
H57   O7    S    
C60   O82   S    
C78   C137  A    
C26   C42   S    
C114  C165  A    
H49   O99   S    
C1    O106  A    
O55   Zn13  S    
O1    Zn1   S    
C193  O58   A    
O39   Zn3   S    
O97   S12   D    
C197  O38   A    
C111  C117  A    
C106  C167  A    
C159  C185  A    
C35   C123  A    
C135  O21   A    
C1    C144  S    
C101  C130  A    
C181  H36   S    
C3    O49   A    
C18   C36   T    
O116  S3    D    
C80   C138  A    
C46   C106  A    
C195  O65   A    
C93   C142  A    
C135  C141  S    
C151  C164  A    
O88   S9    D    
C128  C177  A    
C200  O48   A    
C182  H37   S    
C7    C10   S    
O104  S14   D    
C192  O33   A    
C194  O64   A    
C61   S12   S    
C119  C190  A    
O42   Zn16  S    
C120  C185  A    
C177  H32   S    
C191  O32   A    
C46   C49   A    
C86   H34   S    
O7    S4    S    
C132  H22   S    
C112  C143  S    
C112  O2    A    
C43   N1    A    
C195  O36   A    
C183  H38   S    
C117  C134  A    
C154  C181  A    
C168  O28   A    
O1    Zn12  S    
O29   Zn13  S    
O52   Zn1   S    
C158  C161  A    
O51   Zn16  S    
C43   C190  A    
C160  C169  A    
C60   C118  A    
C24   C108  A    
C73   S8    S    
C83   H1    S    
C175  H30   S    
C189  O59   A    
O28   Zn9   S    
O114  S2    D    
O106  Zn8   S    
C56   N5    A    
C131  C178  A    
C19   C197  S    
O11   S6    D    
C119  H9    S    
C134  C175  A    
O34   Zn16  S    
C198  O39   A    
C140  C146  S    
C52   O75   S    
C44   N2    A    
C176  H31   S    
C125  C181  A    
C65   S1    S    
O29   Zn3   S    
O64   Zn12  S    
C179  O30   A    
C112  O73   A    
C104  N8    S    
O25   Zn12  S    
C49   O71   S    
C52   N5    A    
C189  O31   A    
C44   O67   S    
C51   N4    A    
C23   C193  S    
C24   C122  A    
C75   S2    S    
C131  H21   S    
C21   C195  S    
C93   H2    S    
C85   H23   S    
C68   C127  A    
C200  O42   A    
C5    C12   S    
O21   Zn16  S    
C69   C99   A    
O35   Zn4   S    
O23   Zn10  S    
O40   Zn2   S    
C83   C137  A    
C9    C27   T    
C113  C114  A    
C10   C28   T    
C96   N1    S    
C81   C139  A    
H60   O17   S    
C102  N6    S    
C12   C30   T    
C105  C190  A    
C72   S7    S    
C62   S13   S    
C25   C42   T    
C186  H41   S    
C110  C163  A    
C147  C173  A    
O85   S1    D    
C101  C111  A    
C63   S14   S    
O46   Zn5   S    
C157  O23   A    
O44   Zn7   S    
C129  H19   S    
C121  C188  A    
C162  C188  A    
H46   O89   S    
C122  C187  A    
O17   S7    S    
O36   Zn3   S    
O18   S8    D    
C56   C115  A    
O94   S11   D    
C35   C48   A    
C97   N2    S    
O30   Zn1   S    
C53   N6    A    
C53   C90   A    
O105  S14   S    
C77   C104  A    
O51   Zn11  S    
C55   N8    A    
C149  C175  A    
C158  C184  A    
O50   Zn9   S    
C54   N7    A    
C47   N4    A    
C150  C176  A    
C79   C128  A    
O41   Zn4   S    
C18   C189  S    
C1    O62   A    
C127  C183  A    
C126  C184  A    
C160  C186  A    
C13   C107  A    
O10   S5    S    
O103  S14   D    
O33   Zn2   S    
C63   C81   A    
C94   C143  A    
O96   S11   S    
C135  O95   A    
C123  C182  A    
C158  C171  A    
C65   C83   A    
O31   Zn8   S    
C73   C104  A    
C180  H35   S    
C75   C102  A    
C129  C176  A    
C85   C139  A    
C184  H39   S    
C86   C140  A    
C51   C68   A    
C84   C138  A    
C81   H62   S    
C59   C117  A    
C124  C142  S    
O48   Zn15  S    
O87   S9    D    
C88   C142  A    
C70   C100  A    
O60   Zn9   S    
C168  O24   A    
C191  O60   A    
O29   Zn9   S    
C73   C91   A    
H58   O10   S    
C149  C152  A    
C57   C126  A    
C55   C113  A    
C95   H4    S    
C77   C95   A    
C4    O55   A    
O6    S4    D    
O98   S12   D    
C6    O53   A    
O9    S5    D    
C154  C160  A    
C16   C33   T    
C20   C38   T    
C27   C41   S    
C21   C39   T    
C98   N3    S    
C22   C40   T    
C29   C39   S    
C33   C34   S    
C59   N7    A    
C66   S9    S    
C60   N8    A    
O95   Zn5   S    
C64   C82   A    
C114  C118  A    
C161  C170  A    
C56   O79   S    
C57   C107  A    
H51   O105  S    
C5    O56   A    
C193  O34   A    
C90   C110  A    
C3    C15   S    
C9    C198  S    
C91   C144  A    
O84   Zn6   S    
C136  H26   S    
C113  C131  A    
C24   C47   A    
O65   Zn13  S    
O102  S13   S    
C149  C166  A    
O47   Zn6   S    
C88   H6    S    
C173  H28   S    
C178  H33   S    
C77   S4    S    
O8    S5    D    
C126  H16   S    
O86   S1    S    
O24   Zn13  S    
C51   O74   S    
C72   C89   A    
C199  O52   A    
O59   Zn1   S    
O53   Zn11  S    
C132  C173  A    
C121  H11   S    
C152  C178  A    
C174  H29   S    
C109  C115  A    
C66   C84   A    
O113  S2    D    
O27   Zn14  S    
O51   Zn15  S    
O73   Zn3   S    
C11   C29   T    
C17   C34   T    
C82   H63   S    
C22   C194  S    
C8    C199  S    
C94   H3    S    
C68   C108  A    
C20   C196  S    
C69   C86   A    
