data_mof_unit_56480.cif
_audit_creation_date              2012-12-11T16:51:01-0500
_audit_creation_method            fapswitch 2.2
_symmetry_space_group_name_H-M    P1
_symmetry_Int_Tables_number       1
_space_group_crystal_system       triclinic
_cell_length_a                    6.940414
_cell_length_b                    28.800202
_cell_length_c                    32.074461
_cell_angle_alpha                 100.864028
_cell_angle_beta                  89.597299
_cell_angle_gamma                 90.459035
_cell_volume                      6296.00593487

loop_
_atom_site_label
_atom_site_type_symbol
_atom_type_description
_atom_site_fract_x
_atom_site_fract_y
_atom_site_fract_z
_atom_type_partial_charge
O1    O     O_R   0.494350 0.453170 0.452520 -0.535866
O2    O     O_R   0.820980 0.455850 0.538220 -0.544467
O3    O     O_R   0.994300 0.546830 0.547480 -0.534350
C1    C     C_R   0.650956 0.445037 0.551237 0.710532
O4    O     O_R   0.823860 0.447590 0.452270 -0.538490
O5    O     O_R   0.997200 0.538510 0.460920 -0.536382
C2    C     C_R   0.655062 0.434841 0.436822 0.698351
O6    O     O_R   0.491440 0.461490 0.539080 -0.535048
O7    O     O_3   0.661790 0.529840 0.502940 -0.363843
V1    V     V_3+5 0.935470 0.494460 0.499450 1.410272
O8    O     O_R   0.327090 0.544150 0.461780 -0.541677
C3    C     C_R   0.158983 0.554140 0.448258 0.726963
O9    O     O_R   0.324210 0.552410 0.547730 -0.537098
C4    C     C_R   0.155242 0.564960 0.563302 0.687030
V2    V     V_3+5 0.435840 0.505540 0.500550 1.414018
O10   O     O_3   0.159650 0.470160 0.497060 -0.369272
C5    C     C_R   0.159957 0.902999 0.863361 0.368855
C6    C     C_R   0.163739 0.867368 0.826703 -0.159668
H1    H     H_    0.236175 0.874715 0.798693 0.161170
C7    C     C_R   0.072188 0.823433 0.825773 0.008668
C8    C     C_R   0.964963 0.817035 0.861742 -0.211485
H2    H     H_    0.892445 0.783730 0.862269 0.148922
C9    C     C_R   0.950964 0.853221 0.897796 0.390007
C10   C     C_R   0.047178 0.896718 0.898635 -0.241916
C11   C     C_R   0.921771 0.756213 0.774439 -0.231140
H3    H     H_    0.789153 0.762785 0.792485 0.180059
C12   C     C_R   0.926001 0.719542 0.738568 0.165385
C13   C     C_R   0.096309 0.711574 0.713797 0.016403
C14   C     C_R   0.257315 0.740598 0.725854 -0.301908
H4    H     H_    0.387532 0.733849 0.707129 0.137052
C15   C     C_R   0.254822 0.776810 0.762351 0.482487
C16   C     C_R   0.084247 0.784862 0.787074 0.006028
C17   C     C_R   0.168565 0.684973 0.635982 -0.142344
H5    H     H_    0.198579 0.721341 0.633581 0.116096
C18   C     C_R   0.186118 0.649528 0.599621 -0.161337
H6    H     H_    0.228979 0.659047 0.569780 0.107703
C19   C     C_R   0.144575 0.602270 0.601654 -0.032308
C20   C     C_R   0.090270 0.590731 0.640669 -0.164954
H7    H     H_    0.060538 0.554300 0.642939 0.106438
C21   C     C_R   0.077595 0.625956 0.677217 -0.113538
H8    H     H_    0.043929 0.615757 0.707232 0.119766
C22   C     C_R   0.111413 0.673670 0.675093 0.116851
C23   C     C_R   0.182070 0.658529 0.283628 0.616111
N1    N     N_R   0.123257 0.675235 0.324621 -0.542309
C24   C     C_R   0.052942 0.720233 0.336416 0.565514
C25   C     C_R   0.039630 0.750289 0.306563 -0.027902
C26   C     C_R   0.101037 0.733721 0.264477 -0.016032
C27   C     C_R   0.173580 0.687530 0.252844 -0.038624
C28   C     C_R   0.965897 0.796333 0.317707 -0.146140
C29   C     C_R   0.953488 0.825475 0.287527 -0.143288
C30   C     C_R   0.015063 0.809387 0.245445 -0.026374
C31   C     C_R   0.089413 0.763366 0.233926 -0.014096
C32   C     C_R   0.152082 0.746913 0.191919 -0.028772
C33   C     C_R   0.225121 0.700798 0.180735 -0.139135
C34   C     C_R   0.235345 0.671454 0.210783 -0.136968
C35   C     C_R   0.004956 0.838252 0.214555 0.570323
N2    N     N_R   0.067077 0.821858 0.173728 -0.557414
C36   C     C_R   0.139698 0.777037 0.162105 0.570763
O11   O     O_2   0.248433 0.613986 0.272620 -0.520942
O12   O     O_2   0.994266 0.735730 0.376792 -0.529661
H9    H     H_    0.917209 0.810013 0.349792 0.169434
H10   H     H_    0.895713 0.860692 0.297328 0.169606
O13   O     O_2   0.935456 0.882525 0.225414 -0.525075
O14   O     O_2   0.198414 0.761462 0.121742 -0.523547
H11   H     H_    0.274365 0.687161 0.148684 0.172276
H12   H     H_    0.292087 0.636140 0.200926 0.173825
C37   C     C_R   0.879194 0.866558 0.129245 -0.088013
H13   H     H_    0.746891 0.854386 0.141840 0.122352
C38   C     C_R   0.870373 0.896446 0.099493 -0.202379
H14   H     H_    0.730362 0.906826 0.089894 0.130004
C39   C     C_R   0.040245 0.912948 0.082663 -0.061544
C40   C     C_R   0.218890 0.898362 0.096192 -0.203407
H15   H     H_    0.352700 0.910202 0.083987 0.131617
C41   C     C_R   0.227335 0.868371 0.125810 -0.089923
H16   H     H_    0.366267 0.857861 0.135906 0.119662
C42   C     C_R   0.057719 0.852334 0.142707 0.379716
C43   C     C_R   0.271216 0.652734 0.387788 -0.199063
H17   H     H_    0.372832 0.681714 0.389333 0.148837
C44   C     C_R   0.282020 0.623029 0.417652 -0.217330
H18   H     H_    0.391921 0.629687 0.441895 0.142856
C45   C     C_R   0.150186 0.585551 0.416594 -0.106502
C46   C     C_R   0.009124 0.577984 0.384750 -0.278241
H19   H     H_    0.908500 0.548715 0.382894 0.139937
C47   C     C_R   0.999255 0.607335 0.354378 0.513949
C48   C     C_R   0.131999 0.644778 0.355633 0.292819
C49   C     C_R   0.530330 0.222128 0.837070 0.597879
N3    N     N_R   0.582671 0.175652 0.825287 -0.550912
C50   C     C_R   0.641438 0.157688 0.784610 0.602825
C51   C     C_R   0.654666 0.186995 0.754204 -0.014687
C52   C     C_R   0.601240 0.234858 0.765647 -0.080093
C53   C     C_R   0.535712 0.252828 0.807342 -0.137364
C54   C     C_R   0.719229 0.169434 0.712611 -0.139220
C55   C     C_R   0.730620 0.198857 0.682673 -0.143765
C56   C     C_R   0.676994 0.246563 0.693499 -0.012076
C57   C     C_R   0.612005 0.264612 0.735106 -0.017323
C58   C     C_R   0.557538 0.312314 0.746114 -0.095962
C59   C     C_R   0.491139 0.329916 0.787439 -0.231427
C60   C     C_R   0.475591 0.300595 0.817697 0.466433
C61   C     C_R   0.685522 0.276725 0.663638 0.571459
N4    N     N_R   0.631367 0.323083 0.674868 -0.555924
C62   C     C_R   0.568731 0.341217 0.715234 0.600249
O15   O     O_2   0.471962 0.238307 0.877342 -0.492655
O16   O     O_2   0.686957 0.111528 0.773571 -0.517007
H20   H     H_    0.761425 0.132833 0.703017 0.171436
H21   H     H_    0.781045 0.184018 0.650965 0.170009
O17   O     O_2   0.746943 0.259827 0.623702 -0.523053
O18   O     O_2   0.516142 0.386973 0.725395 -0.523079
H22   H     H_    0.448848 0.366575 0.796543 0.184530
C63   C     C_R   0.795992 0.381453 0.639568 -0.098164
H23   H     H_    0.919023 0.381038 0.660069 0.131664
C64   C     C_R   0.798441 0.410814 0.609452 -0.240896
H24   H     H_    0.924130 0.432904 0.607740 0.135766
C65   C     C_R   0.640173 0.412516 0.582460 -0.066571
C66   C     C_R   0.477211 0.383071 0.586162 0.100483
C67   C     C_R   0.477484 0.353762 0.616727 -0.092404
H25   H     H_    0.354237 0.331356 0.619985 0.123366
C68   C     C_R   0.635413 0.352935 0.643457 0.348702
C69   C     C_R   0.425714 0.110317 0.853400 0.521424
C70   C     C_R   0.415085 0.080976 0.883802 -0.284108
H26   H     H_    0.304053 0.053923 0.881011 0.170659
C71   C     C_R   0.549825 0.085605 0.916834 -0.112813
C72   C     C_R   0.695391 0.120147 0.919236 -0.199084
H27   H     H_    0.800675 0.124430 0.944465 0.141373
C73   C     C_R   0.704059 0.150071 0.889539 -0.197029
H28   H     H_    0.815501 0.176969 0.892216 0.143487
C74   C     C_R   0.571647 0.144943 0.856085 0.285812
C75   C     C_R   0.712748 0.131994 0.109344 -0.184356
H29   H     H_    0.833260 0.126975 0.087347 0.125780
C76   C     C_R   0.724601 0.167610 0.145576 -0.075784
H30   H     H_    0.852525 0.189672 0.149901 0.148126
C77   C     C_R   0.572784 0.174924 0.175422 0.107980
C78   C     C_R   0.405527 0.146804 0.166902 -0.155926
H31   H     H_    0.285955 0.151179 0.189014 0.142569
C79   C     C_R   0.391672 0.111978 0.130107 -0.158779
H32   H     H_    0.261603 0.090699 0.124802 0.124300
C80   C     C_R   0.546240 0.103739 0.101212 -0.048740
C81   C     C_R   0.424485 0.238689 0.230632 -0.203878
H33   H     H_    0.288793 0.233378 0.213923 0.172027
C82   C     C_R   0.434111 0.272997 0.267816 -0.153628
H34   H     H_    0.304549 0.292086 0.279272 0.127108
C83   C     C_R   0.608505 0.282766 0.289860 0.026979
C84   C     C_R   0.772874 0.257224 0.273655 -0.221212
H35   H     H_    0.910795 0.265057 0.289012 0.137649
C85   C     C_R   0.761541 0.220445 0.238054 0.459202
C86   C     C_R   0.587343 0.211881 0.215032 -0.019385
C87   C     C_R   0.719906 0.314543 0.366111 0.190042
C88   C     C_R   0.736463 0.352864 0.400410 -0.161758
H36   H     H_    0.815151 0.348586 0.428516 0.119948
C89   C     C_R   0.644398 0.395818 0.399763 -0.081469
C90   C     C_R   0.537695 0.400855 0.364054 -0.161155
H37   H     H_    0.465129 0.433791 0.363048 0.124122
C91   C     C_R   0.528352 0.364035 0.328818 -0.169065
H38   H     H_    0.450740 0.369853 0.301103 0.131454
C92   C     C_R   0.619474 0.320506 0.328916 0.096981
O19   O     O_R   0.699170 0.038480 0.960880 -0.541821
O20   O     O_R   0.366800 0.052460 0.047690 -0.543239
O21   O     O_R   0.193520 0.961530 0.039110 -0.543261
C93   C     C_R   0.535650 0.065354 0.063246 0.685987
O22   O     O_R   0.369630 0.044100 0.961740 -0.533974
O23   O     O_R   0.196370 0.953120 0.952550 -0.530276
C94   C     C_R   0.539082 0.054081 0.948279 0.728326
O24   O     O_R   0.696320 0.046890 0.047450 -0.541002
O25   O     O_3   0.528890 0.970170 0.997080 -0.365515
V3    V     V_3+5 0.255190 0.005530 0.000540 1.431540
O26   O     O_R   0.866460 0.947530 0.952310 -0.528436
C95   C     C_R   0.035517 0.935017 0.936599 0.798700
O27   O     O_R   0.863630 0.955880 0.038270 -0.538766
C96   C     C_R   0.031828 0.945482 0.051613 0.697321
V4    V     V_3+5 0.754830 0.994440 0.999470 1.437048
O28   O     O_3   0.031000 0.029830 0.002920 -0.373391
O29   O     O_3   0.251421 0.945913 0.863401 -0.557572
C97   C     C_3   0.452696 0.939314 0.863815 -0.166377
H39   H     H_    0.497061 0.922597 0.890844 0.147992
H40   H     H_    0.524517 0.974404 0.867950 0.143171
H41   H     H_    0.504885 0.918142 0.833273 0.136128
O30   O     O_3   0.867301 0.597808 0.321813 -0.537243
C98   C     C_3   0.686719 0.615187 0.337546 -0.211622
H42   H     H_    0.630977 0.595771 0.362044 0.133054
H43   H     H_    0.582937 0.609508 0.310968 0.213685
H44   H     H_    0.693250 0.653888 0.350396 0.137847
O31   O     O_3   0.408345 0.319680 0.857898 -0.523080
C99   C     C_3   0.205299 0.321003 0.856692 -0.118907
H45   H     H_    0.150579 0.333871 0.889369 0.175992
H46   H     H_    0.142488 0.285141 0.845420 0.123089
H47   H     H_    0.154739 0.345941 0.836559 0.112485
C100  C     C_3   0.304340 0.381095 0.557639 -0.719112
H48   H     H_    0.350728 0.373310 0.523849 0.202954
H49   H     H_    0.200520 0.353040 0.562576 0.201886
H50   H     H_    0.226737 0.415225 0.564503 0.215841
O32   O     O_3   0.300687 0.103522 0.819486 -0.532454
C101  C     C_3   0.123490 0.124560 0.833333 -0.208060
H51   H     H_    0.141489 0.162449 0.848541 0.123355
H52   H     H_    0.049078 0.104551 0.855263 0.144579
H53   H     H_    0.030537 0.123413 0.805272 0.205602
O33   O     O_3   0.838090 0.846214 0.931770 -0.548157
C102  C     C_3   0.953234 0.825991 0.959596 -0.204574
H54   H     H_    0.075953 0.849617 0.971991 0.111562
H55   H     H_    0.007033 0.790621 0.943977 0.143809
H56   H     H_    0.863678 0.821055 0.987235 0.169055
O34   O     O_3   0.922221 0.193074 0.225938 -0.575860
C103  C     C_3   0.932502 0.158471 0.251637 -0.280383
H57   H     H_    0.799973 0.136042 0.248787 0.150833
H58   H     H_    0.958488 0.174854 0.285433 0.146913
H59   H     H_    0.055582 0.134878 0.240799 0.164064
C104  C     C_3   0.801977 0.267770 0.371625 -0.812412
H60   H     H_    0.784305 0.263076 0.405039 0.217748
H61   H     H_    0.726138 0.237565 0.351688 0.215820
H62   H     H_    0.958027 0.266608 0.363717 0.209284
C105  C     C_3   0.745718 0.690690 0.726741 -0.769190
H63   H     H_    0.705358 0.691798 0.693508 0.207851
H64   H     H_    0.767505 0.653585 0.730209 0.209442
H65   H     H_    0.623286 0.704211 0.747863 0.222671
O35   O     O_3   0.422767 0.800743 0.777196 -0.559022
C106  C     C_3   0.514148 0.820450 0.745015 -0.306905
H66   H     H_    0.409663 0.836505 0.725720 0.137634
H67   H     H_    0.604070 0.793696 0.724352 0.162962
H68   H     H_    0.612539 0.849089 0.760325 0.174430

loop_
_geom_bond_atom_site_label_1
_geom_bond_atom_site_label_2
_ccdc_geom_bond_type
C62   O18   S    
C27   C34   A    
O29   C97   S    
C28   C29   A    
C24   O12   S    
O32   C101  S    
C32   C36   A    
C90   H37   S    
C69   O32   S    
C103  H57   S    
V3    O28   S    
C57   C58   A    
C1    O6    A    
C50   O16   S    
C101  H52   S    
C66   C67   A    
C52   C53   A    
C63   C68   A    
C52   C57   A    
O27   V4    S    
C33   H11   S    
C43   H17   S    
O19   C94   A    
C81   C82   A    
C25   C28   A    
C55   C56   A    
C41   C42   A    
C17   C22   A    
O23   V3    S    
N2    C42   S    
C81   C86   A    
C13   C14   A    
C88   C89   A    
C9    O33   S    
C30   C35   A    
C73   C74   A    
C49   C53   A    
C63   C64   A    
O5    C3    A    
C20   H7    S    
C17   C18   A    
C106  H67   S    
C83   C92   S    
V2    O10   S    
O31   C99   S    
C12   C105  S    
C105  H65   S    
C35   N2    A    
C6    H1    S    
V4    O28   S    
C38   C39   A    
C69   C70   A    
C54   C55   A    
C55   H21   S    
C2    C89   S    
C59   H22   S    
O8    V2    S    
C88   H36   S    
C78   H31   S    
C67   C68   A    
C87   C92   A    
C37   C42   A    
C9    C10   A    
O22   C94   A    
O1    V2    S    
O23   C95   A    
C14   H4    S    
C23   C27   A    
C97   H41   S    
C23   O11   S    
C40   H15   S    
C80   C93   S    
O25   V3    S    
C11   C16   A    
C21   C22   A    
C43   C48   A    
C98   H43   S    
O1    C2    A    
O9    C4    A    
O26   V4    S    
C103  H58   S    
C56   C57   A    
C87   C104  S    
O21   C96   A    
C97   H40   S    
C59   C60   A    
C70   C71   A    
C36   O14   S    
C5    C10   A    
C28   H9    S    
C41   H16   S    
C87   C88   A    
C30   C31   A    
C1    C65   S    
C58   C62   A    
C47   C48   A    
C105  H63   S    
O27   C96   A    
O4    C2    A    
C54   H20   S    
C106  H66   S    
O34   C103  S    
C79   C80   A    
O33   C102  S    
C29   C30   A    
C11   H3    S    
O35   C106  S    
C106  H68   S    
C45   C46   A    
C101  H51   S    
C37   C38   A    
C18   H6    S    
C10   C95   S    
C23   N1    A    
C75   C76   A    
C19   C20   A    
O19   V4    S    
C26   C27   A    
C85   O34   S    
O9    V2    S    
C82   H34   S    
C98   H44   S    
C71   C94   S    
C58   C59   A    
C7    C8    A    
C5    C6    A    
C35   O13   S    
C64   C65   A    
C25   C26   A    
C31   C32   A    
C75   C80   A    
C51   C54   A    
O21   V3    S    
C71   C72   A    
C79   H32   S    
O3    C4    A    
C100  H48   S    
C15   O35   S    
N1    C48   S    
C40   C41   A    
C21   H8    S    
C91   C92   A    
C46   H19   S    
O6    V2    S    
C46   C47   A    
C39   C96   S    
C8    C9    A    
C29   H10   S    
C103  H59   S    
C90   C91   A    
C72   C73   A    
C75   H29   S    
C49   O15   S    
C34   H12   S    
C97   H39   S    
C44   C45   A    
C65   C66   A    
O7    V1    S    
C104  H62   S    
C61   O17   S    
C104  H60   S    
C33   C34   A    
O30   C98   S    
C64   H24   S    
C18   C19   A    
C49   N3    A    
C15   C16   A    
N1    C24   A    
C102  H54   S    
C77   C78   A    
O5    V1    S    
C70   H26   S    
C5    O29   S    
C32   C33   A    
C26   C31   A    
N4    C68   S    
C37   H13   S    
C11   C12   A    
C81   H33   S    
C76   H30   S    
C66   C100  S    
C61   N4    A    
C85   C86   A    
C8    H2    S    
C60   O31   S    
O20   C93   A    
C51   C52   A    
C101  H53   S    
O4    V1    S    
C14   C15   A    
O3    V1    S    
C7    C16   S    
C89   C90   A    
C4    C19   S    
C20   C21   A    
C82   C83   A    
C47   O30   S    
N2    C36   A    
O24   V4    S    
C56   C61   A    
C100  H50   S    
O2    C1    A    
C13   C22   S    
N4    C62   A    
C105  H64   S    
C17   H5    S    
C3    C45   S    
C77   C86   S    
C6    C7    A    
C53   C60   A    
O7    V2    S    
C38   H14   S    
O25   V4    S    
C99   H46   S    
C102  H55   S    
C93   O24   A    
C44   H18   S    
C43   C44   A    
C24   C25   A    
O26   C95   A    
C39   C40   A    
C50   C51   A    
O20   V3    S    
N3    C50   A    
C78   C79   A    
C98   H42   S    
C63   H23   S    
C12   C13   A    
C84   H35   S    
O22   V3    S    
C73   H28   S    
V1    O10   S    
C91   H38   S    
C69   C74   A    
C67   H25   S    
C72   H27   S    
C83   C84   A    
C104  H61   S    
C100  H49   S    
C99   H47   S    
N3    C74   S    
C84   C85   A    
C99   H45   S    
O8    C3    A    
C102  H56   S    
C76   C77   A    
O2    V1    S    
