data_mof_unit_45025.cif
_audit_creation_date              2012-12-11T15:47:04-0500
_audit_creation_method            fapswitch 2.2
_symmetry_space_group_name_H-M    P1
_symmetry_Int_Tables_number       1
_space_group_crystal_system       triclinic
_cell_length_a                    11.546068
_cell_length_b                    11.590775
_cell_length_c                    19.511073
_cell_angle_alpha                 90.557858
_cell_angle_beta                  89.668044
_cell_angle_gamma                 59.754693
_cell_volume                      2255.41072952

loop_
_atom_site_label
_atom_site_type_symbol
_atom_type_description
_atom_site_fract_x
_atom_site_fract_y
_atom_site_fract_z
_atom_type_partial_charge
C1    C     C_R   0.640357 0.117604 0.599163 0.538061
C2    C     C_1   0.652383 0.150340 0.668565 0.006676
C3    C     C_R   0.705385 0.561903 0.206298 -0.005828
C4    C     C_R   0.612385 0.746062 0.598565 0.535248
C5    C     C_R   0.587773 0.589937 0.240728 -0.075959
C6    C     C_R   0.567629 0.630752 0.307872 0.085984
C7    C     C_R   0.794261 0.586320 0.315334 -0.168441
C8    C     C_R   0.814165 0.547434 0.245513 -0.132037
C9    C     C_3   0.443295 0.678260 0.222022 -0.208441
C10   C     C_3   0.420526 0.725533 0.295960 0.467207
C11   C     C_R   0.664307 0.645395 0.343794 -0.027953
C12   C     C_1   0.640985 0.703886 0.667891 0.006981
C13   C     C_R   0.116745 0.209688 0.196991 -0.038961
C14   C     C_R   0.156976 0.288795 0.230191 -0.051742
C15   C     C_R   0.188970 0.268810 0.297992 -0.005871
C16   C     C_R   0.240523 0.145660 0.597989 0.532290
C17   C     C_R   0.111100 0.110970 0.306605 0.236375
C18   C     C_R   0.085262 0.126689 0.236107 -0.087138
C19   C     C_3   0.270712 0.308713 0.211070 -0.234438
C20   C     C_3   0.312316 0.277764 0.285158 0.131373
C21   C     C_R   0.174243 0.175734 0.336859 0.031440
C22   C     C_R   0.667040 0.188423 0.193086 -0.007838
C23   C     C_1   0.127472 0.198358 0.859438 0.004852
C24   C     C_R   0.727669 0.059805 0.219168 0.017799
C25   C     C_R   0.728902 0.040676 0.288195 0.032091
C26   C     C_R   0.593497 0.276134 0.309380 -0.116613
C27   C     C_R   0.590537 0.296469 0.238360 -0.140529
C28   C     C_R   0.647640 0.113828 0.403799 0.567082
C29   C     C_3   0.861152 0.935045 0.207993 0.122707
C30   C     C_3   0.862495 0.915280 0.285297 0.161466
C31   C     C_R   0.669792 0.146292 0.335244 0.030959
C32   C     C_R   0.082282 0.230899 0.928794 0.548123
C33   C     C_R   0.684048 0.604391 0.929574 0.555556
C34   C     C_1   0.171006 0.170688 0.727658 -0.030176
C35   C     C_R   0.708488 0.206515 0.930231 0.550220
C36   C     C_R   0.077156 0.238736 0.126603 0.535132
C37   C     C_R   0.711644 0.544952 0.132146 0.572245
C38   C     C_R   0.707189 0.211649 0.126699 0.528846
C39   C     C_R   0.619631 0.732742 0.404281 0.551275
C40   C     C_R   0.241162 0.142427 0.402610 0.569703
C41   C     C_1   0.670917 0.646342 0.860191 0.003815
C42   C     C_1   0.654760 0.683592 0.728355 -0.030021
C43   C     C_1   0.663836 0.666541 0.799687 -0.030989
C44   C     C_1   0.150512 0.182086 0.798955 -0.030774
C45   C     C_1   0.194442 0.161626 0.667213 0.007586
C46   C     C_1   0.678975 0.190749 0.860914 0.004540
C47   C     C_1   0.658125 0.167635 0.729045 -0.029896
C48   C     C_1   0.665756 0.180699 0.800434 -0.030296
Cr1   Cr    Cr6+3 0.404720 0.198220 0.499960 1.052077
Cr2   Cr    Cr6+3 0.698290 0.897110 0.500380 1.063490
Cr3   Cr    Cr6+3 0.396970 0.904720 0.499610 1.089117
Cr4   Cr    Cr6+3 0.926290 0.152010 0.028150 1.014774
Cr5   Cr    Cr6+3 0.921440 0.451830 0.027490 1.044117
Cr6   Cr    Cr6+3 0.626370 0.446880 0.028730 1.020866
H1    H     H_    0.875247 0.584222 0.344007 0.179701
H2    H     H_    0.427053 0.757872 0.185388 0.144791
H3    H     H_    0.040467 0.074441 0.212223 0.138804
H4    H     H_    0.235742 0.414261 0.197871 0.131684
H5    H     H_    0.426602 0.086002 0.262842 0.322879
H6    H     H_    0.845000 0.863363 0.121384 0.335227
H7    H     H_    0.768659 0.814807 0.288678 0.361762
H8    H     H_    0.446616 0.877767 0.280473 0.286493
H9    H     H_    0.246612 0.746893 0.315448 0.357708
H10   H     H_    0.075610 0.049386 0.391934 0.332437
H11   H     H_    0.341418 0.233640 0.173067 0.144426
H12   H     H_    0.312776 0.360629 0.314032 0.170270
H13   H     H_    0.534940 0.360467 0.343541 0.141883
H14   H     H_    0.535114 0.396460 0.219272 0.134346
H15   H     H_    0.944186 0.949484 0.189904 0.114528
H16   H     H_    0.942106 0.923201 0.312597 0.176103
H17   H     H_    0.909904 0.517213 0.221323 0.174164
H18   H     H_    0.392892 0.621402 0.207910 0.120417
O1    O     O_R   0.267750 0.231960 0.575440 -0.509255
O2    O     O_R   0.596230 0.579400 0.952760 -0.500736
O3    O     O_R   0.639160 0.321170 0.958690 -0.491949
O4    O     O_R   0.527290 0.186640 0.570530 -0.499995
O5    O     O_R   0.821370 0.124220 0.104400 -0.539485
O6    O     O_R   0.037020 0.167050 0.097880 -0.514114
O7    O     O_R   0.056310 0.349620 0.102920 -0.514968
O8    O     O_R   0.797790 0.564880 0.097980 -0.476744
O9    O     O_R   0.596000 0.584270 0.104310 -0.523455
O10   O     O_R   0.638950 0.325690 0.099180 -0.518521
O11   O     O_3   0.824700 0.350240 0.028120 -0.283540
O12   O     O_R   0.685950 0.784660 0.430010 -0.486277
O13   O     O_R   0.728110 0.003450 0.576380 -0.507758
O14   O     O_R   0.682980 0.789190 0.570500 -0.500573
O15   O     O_R   0.499300 0.771880 0.575540 -0.507973
O16   O     O_R   0.285350 0.030870 0.569740 -0.503872
O17   O     O_R   0.270960 0.227070 0.423890 -0.507569
O18   O     O_R   0.530270 0.182120 0.430040 -0.472906
O19   O     O_R   0.731320 0.998570 0.424830 -0.491322
O20   O     O_3   0.429750 0.153366 0.293358 -0.687502
O21   O     O_3   0.848712 0.838430 0.170154 -0.666685
O22   O     O_3   0.856195 0.802068 0.303957 -0.654816
O23   O     O_R   0.502510 0.767000 0.423980 -0.439401
O24   O     O_3   0.379624 0.861682 0.303926 -0.632597
O25   O     O_3   0.338856 0.689975 0.332809 -0.656140
O26   O     O_3   0.078586 0.029069 0.342355 -0.716923
O27   O     O_R   0.288320 0.026340 0.429250 -0.450686
O28   O     O_3   0.499990 0.000020 0.499980 -0.264195
O29   O     O_R   0.821590 0.119350 0.952850 -0.502261
O30   O     O_R   0.037230 0.162540 0.957390 -0.489727
O31   O     O_R   0.056530 0.344750 0.951370 -0.503055
O32   O     O_R   0.798000 0.560370 0.957490 -0.488753

loop_
_geom_bond_atom_site_label_1
_geom_bond_atom_site_label_2
_ccdc_geom_bond_type
C25   C31   A    
H8    O24   S    
C10   O25   S    
C33   O32   A    
C19   C20   S    
C9    H18   S    
C7    H1    S    
Cr1   O18   S    
C40   O27   A    
Cr2   O12   S    
C7    C8    A    
C4    O15   A    
C7    C11   A    
C20   O20   S    
Cr4   O30   S    
C26   C27   A    
C13   C18   A    
C26   H13   S    
C20   H12   S    
Cr5   O7    S    
C39   O12   A    
C5    C6    A    
C4    O14   A    
Cr5   O32   S    
C22   C38   S    
C25   C30   S    
C1    C2    S    
C24   C29   S    
C12   C42   T    
C27   H14   S    
Cr2   O13   S    
Cr6   O2    S    
C40   O17   A    
C4    C12   S    
C17   O26   S    
H6    O21   S    
H10   O26   S    
C26   C31   A    
C13   C14   A    
C38   O10   A    
Cr3   O27   S    
C41   C43   T    
C37   O9    A    
Cr4   O6    S    
Cr6   O11   S    
C30   H16   S    
C29   H15   S    
C19   H4    S    
C1    O13   A    
C15   C20   S    
C37   O8    A    
C46   C48   T    
Cr4   O29   S    
Cr1   O4    S    
C16   O1    A    
Cr5   O8    S    
C34   C44   S    
C24   C25   A    
C13   C36   S    
C3    C8    A    
Cr3   O15   S    
C6    C11   A    
C34   C45   T    
H7    O22   S    
C3    C5    A    
C17   C21   A    
C23   C44   T    
Cr3   O16   S    
Cr4   O11   S    
C5    C9    S    
C29   C30   S    
Cr2   O19   S    
C18   H3    S    
C47   C48   S    
C10   O24   S    
C35   O3    A    
C17   C18   A    
C32   O31   A    
C9    H2    S    
C11   C39   S    
C39   O23   A    
C22   C27   A    
C22   C24   A    
C42   C43   S    
Cr4   O5    S    
Cr6   O10   S    
C9    C10   S    
Cr3   O28   S    
C8    H17   S    
C1    O4    A    
C14   C19   S    
C28   C31   S    
Cr1   O17   S    
C35   O29   A    
C36   O7    A    
C16   C45   S    
C6    C10   S    
C38   O5    A    
C2    C47   T    
Cr2   O28   S    
Cr5   O11   S    
C33   C41   S    
C23   C32   S    
C30   O22   S    
C36   O6    A    
C32   O30   A    
Cr1   O28   S    
C29   O21   S    
C21   C40   S    
Cr5   O31   S    
C19   H11   S    
C28   O19   A    
Cr1   O1    S    
H5    O20   S    
Cr2   O14   S    
Cr6   O3    S    
C33   O2    A    
C15   C21   A    
C3    C37   S    
H9    O25   S    
C16   O16   A    
C14   C15   A    
C28   O18   A    
C35   C46   S    
Cr6   O9    S    
Cr3   O23   S    
