data_mof_unit_60547.cif
_audit_creation_date              2013-03-05T16:42:03-0500
_audit_creation_method            fapswitch 2.2
_symmetry_space_group_name_H-M    P1
_symmetry_Int_Tables_number       1
_space_group_crystal_system       triclinic
_cell_length_a                    17.757933
_cell_length_b                    16.558718
_cell_length_c                    10.632259
_cell_angle_alpha                 90.264311
_cell_angle_beta                  91.892773
_cell_angle_gamma                 90.088895
_cell_volume                      3124.65734084

loop_
_atom_site_label
_atom_site_type_symbol
_atom_site_description
_atom_site_fract_x
_atom_site_fract_y
_atom_site_fract_z
_atom_type_partial_charge
O1    O     O_R   0.391260 0.567930 0.500000 -0.565830
O2    O     O_R   0.608740 0.432070 0.500000 -0.563345
O3    O     O_R   0.608740 0.567930 0.500000 -0.563760
O4    O     O_R   0.391260 0.432070 0.500000 -0.559895
C1    C     C_R   0.355443 0.499973 0.501051 0.859106
C2    C     C_R   0.644553 0.500057 0.498864 0.857587
O5    O     O_R   0.499980 0.567900 0.316850 -0.557794
O6    O     O_R   0.500020 0.432100 0.683150 -0.554143
O7    O     O_R   0.500020 0.567900 0.683150 -0.566943
O8    O     O_R   0.499980 0.432100 0.316850 -0.563317
C3    C     C_R   0.500695 0.499819 0.259044 0.826700
C4    C     C_R   0.499489 0.500199 0.740962 0.826294
Cu1   Cu    Cu3+1 0.500000 0.580420 0.500000 1.050744
Cu2   Cu    Cu3+1 0.500000 0.419580 0.500000 1.054172
C5    C     C_3   0.430701 0.516123 0.039377 -0.150046
C6    C     C_3   0.569705 0.484020 0.960594 -0.149146
C7    C     C_3   0.478229 0.573251 0.959117 -0.057846
C8    C     C_3   0.522209 0.426901 0.040873 -0.052137
C9    C     C_3   0.451757 0.443500 0.955693 -0.111283
C10   C     C_3   0.548660 0.556616 0.044336 -0.117297
H1    H     H_    0.412116 0.397232 0.916457 0.188532
H2    H     H_    0.588318 0.602851 0.083625 0.184049
H3    H     H_    0.373906 0.529258 0.074951 0.189594
H4    H     H_    0.626489 0.470863 0.924989 0.189595
H5    H     H_    0.459446 0.633035 0.923405 0.205179
H6    H     H_    0.541536 0.367315 0.076409 0.213510
C11   C     C_3   0.499349 0.500596 0.877694 -0.044612
C12   C     C_3   0.501047 0.499511 0.122310 -0.048191
C13   C     C_R   0.845224 0.573613 0.474905 0.309542
C14   C     C_R   0.153379 0.427507 0.484399 0.307335
C15   C     C_R   0.154905 0.573792 0.522426 0.309320
C16   C     C_R   0.846429 0.427923 0.516120 0.307264
C17   C     C_R   0.766480 0.572382 0.476969 -0.184963
C18   C     C_R   0.232177 0.427850 0.487738 -0.195056
C19   C     C_R   0.233639 0.572508 0.520781 -0.185679
C20   C     C_R   0.767651 0.428249 0.513150 -0.196375
H7    H     H_    0.735634 0.627851 0.460169 0.220327
H8    H     H_    0.261810 0.371525 0.475022 0.231296
H9    H     H_    0.264579 0.628248 0.536385 0.220649
H10   H     H_    0.737914 0.372123 0.527183 0.232073
C21   C     C_R   0.727362 0.500232 0.496388 -0.160245
C22   C     C_R   0.272621 0.500067 0.503195 -0.161218
C23   C     C_R   0.885429 0.501042 0.496389 -0.137517
C24   C     C_R   0.114539 0.500930 0.502358 -0.137693
C25   C     C_1   0.966195 0.501458 0.498336 0.198497
C26   C     C_1   0.033771 0.501402 0.500190 0.198424
C27   C     C_R   0.543146 0.829753 0.588977 -0.258340
C28   C     C_R   0.465926 0.169201 0.402386 -0.257540
C29   C     C_R   0.456875 0.829299 0.411752 -0.259063
C30   C     C_R   0.534492 0.170325 0.598686 -0.259113
H11   H     H_    0.577506 0.861796 0.659074 0.196972
H12   H     H_    0.438432 0.136623 0.325007 0.200313
H13   H     H_    0.422743 0.860982 0.341543 0.196230
H14   H     H_    0.561952 0.138742 0.676546 0.197760
C31   C     C_R   0.543096 0.744249 0.587555 0.466892
C32   C     C_R   0.465296 0.254790 0.403022 0.463119
C33   C     C_R   0.457090 0.743785 0.412433 0.471978
C34   C     C_R   0.534799 0.255883 0.597249 0.470341
N1    N     N_R   0.500000 0.701220 0.500000 -0.300044
N2    N     N_R   0.500000 0.298780 0.500000 -0.292770
C35   C     C_R   0.499951 0.873408 0.500603 0.002834
C36   C     C_R   0.500257 0.125900 0.500697 0.002370
C37   C     C_1   0.500086 0.962571 0.500819 0.065004
C38   C     C_1   0.500213 0.036730 0.500918 0.065006
N3    N     N_R   0.883008 0.648790 0.450908 0.160333
O9    O     O_R   0.852826 0.716863 0.484220 -0.261660
O10   O     O_R   0.942496 0.650539 0.382706 -0.282862
N4    N     N_R   0.114092 0.352371 0.461892 0.164688
O11   O     O_R   0.144042 0.284749 0.500152 -0.272224
O12   O     O_R   0.053595 0.349773 0.389504 -0.278950
N5    N     N_R   0.117285 0.649333 0.544555 0.160280
O13   O     O_R   0.147632 0.716862 0.509604 -0.262139
O14   O     O_R   0.057810 0.652166 0.612718 -0.282574
N6    N     N_R   0.885539 0.353118 0.540081 0.164544
O15   O     O_R   0.855398 0.284962 0.503226 -0.272071
O16   O     O_R   0.946036 0.351549 0.612497 -0.279405
N7    N     N_R   0.589303 0.703746 0.679612 0.148745
O17   O     O_R   0.659258 0.689402 0.655079 -0.329952
O18   O     O_R   0.570475 0.707001 0.796681 -0.366527
N8    N     N_R   0.427656 0.293668 0.299015 0.143289
O19   O     O_R   0.363628 0.329328 0.315463 -0.342089
O20   O     O_R   0.444793 0.273060 0.185279 -0.366118
N9    N     N_R   0.412054 0.702752 0.318610 0.147062
O21   O     O_R   0.341691 0.688293 0.340160 -0.335222
O22   O     O_R   0.433050 0.704377 0.202585 -0.359961
N10   N     N_R   0.571937 0.296090 0.700990 0.145537
O23   O     O_R   0.638347 0.327154 0.687160 -0.351506
O24   O     O_R   0.549520 0.282556 0.814257 -0.358626

loop_
_geom_bond_atom_site_label_1
_geom_bond_atom_site_label_2
_geom_bond_distance
_ccdc_geom_bond_type
C1    C22   1.471671 S    
C31   N1    1.380249 A    
C8    H6    1.109039 S    
O3    C2    1.292413 A    
C25   C26   1.199530 T    
C5    C9    1.546321 S    
C30   H14   1.083842 S    
N6    O16   1.301242 A    
O1    C1    1.292006 A    
C16   C20   1.398272 A    
C9    H1    1.110184 S    
C16   N6    1.440644 S    
C31   N7    1.426814 S    
N10   O24   1.301096 A    
C33   N1    1.380250 A    
C34   N2    1.386174 A    
C13   C17   1.399335 A    
C7    C10   1.545846 S    
C29   C33   1.416063 A    
C5    C7    1.545290 S    
C8    C9    1.545791 S    
C35   C37   1.476401 S    
C19   C22   1.400740 A    
O7    Cu1   1.959242 S    
C36   C38   1.476564 S    
N4    O11   1.301489 A    
N3    O10   1.301270 A    
C2    C21   1.471618 S    
C18   C22   1.400188 A    
C33   N9    1.426790 S    
C9    C11   1.531962 S    
O3    Cu1   1.942359 S    
C6    C10   1.546276 S    
C6    C11   1.530922 S    
C5    H3    1.110259 S    
C6    H4    1.110261 S    
Cu1   Cu2   2.663306 S    
C13   C23   1.414349 A    
C14   C24   1.414028 A    
C20   C21   1.400193 A    
O2    C2    1.292428 A    
C34   N10   1.427801 S    
C24   C26   1.433725 S    
O5    C3    1.281774 A    
N7    O18   1.300350 A    
C29   C35   1.398287 A    
C15   C24   1.414143 A    
C14   C18   1.398575 A    
C4    C11   1.453842 S    
C7    C11   1.533216 S    
C20   H10   1.081588 S    
C8    C12   1.532911 S    
N8    O20   1.300849 A    
O8    Cu2   1.959243 S    
N5    O14   1.301260 A    
N10   O23   1.298942 A    
O4    C1    1.292866 A    
C27   H11   1.083784 S    
C10   C12   1.532121 S    
N7    O17   1.299777 A    
C17   H7    1.082695 S    
C32   N2    1.386815 A    
C30   C34   1.416874 A    
C19   H9    1.082725 S    
C28   C36   1.394459 A    
N9    O21   1.299848 A    
C28   H12   1.083883 S    
O6    C4    1.281983 A    
C23   C25   1.433714 S    
C13   N3    1.441029 S    
N4    O12   1.301257 A    
N9    O22   1.300831 A    
C10   H2    1.110192 S    
C30   C36   1.394944 A    
C15   C19   1.399048 A    
O1    Cu1   1.941723 S    
C27   C31   1.415836 A    
C28   C32   1.417294 A    
O6    Cu2   1.957340 S    
C18   H8    1.081729 S    
N8    O19   1.298573 A    
C27   C35   1.397910 A    
Cu1   N1    2.000291 S    
Cu2   N2    2.000291 S    
C32   N8    1.429392 S    
C7    H5    1.109740 S    
C17   C21   1.400601 A    
N5    O13   1.301561 A    
C5    C12   1.531094 S    
C3    C12   1.453998 S    
C29   H13   1.083768 S    
C15   N5    1.441022 S    
C16   C23   1.413828 A    
O4    Cu2   1.942361 S    
O2    Cu2   1.941721 S    
O7    C4    1.281159 A    
O8    C3    1.281459 A    
C37   C38   1.227974 T    
O5    Cu1   1.957341 S    
N6    O15   1.301497 A    
C6    C8    1.545002 S    
N3    O9    1.301549 A    
C14   N4    1.440643 S    
