data_mof_unit_19893.cif
_audit_creation_date              2012-12-11T16:27:33-0500
_audit_creation_method            fapswitch 2.2
_symmetry_space_group_name_H-M    P1
_symmetry_Int_Tables_number       1
_space_group_crystal_system       triclinic
_cell_length_a                    21.882758
_cell_length_b                    7.009736
_cell_length_c                    14.841271
_cell_angle_alpha                 90.182878
_cell_angle_beta                  104.864363
_cell_angle_gamma                 90.26968
_cell_volume                      2200.3079155

loop_
_atom_site_label
_atom_site_type_symbol
_atom_type_description
_atom_site_fract_x
_atom_site_fract_y
_atom_site_fract_z
_atom_type_partial_charge
O1    O     O_R   0.835850 0.638310 0.002120 -0.518458
O2    O     O_R   0.164150 0.361690 0.997880 -0.553419
O3    O     O_R   0.664150 0.138310 0.997880 -0.534488
O4    O     O_R   0.335850 0.861690 0.002120 -0.533928
O5    O     O_R   0.717530 0.306070 0.861970 -0.524846
O6    O     O_R   0.282470 0.693930 0.138030 -0.546984
O7    O     O_R   0.782470 0.806070 0.138030 -0.510875
O8    O     O_R   0.217530 0.193930 0.861970 -0.552356
C1    C     C_R   0.702205 0.475398 0.826298 0.789626
C2    C     C_R   0.297667 0.524202 0.174214 0.681958
C3    C     C_R   0.798820 0.975480 0.173484 0.797965
C4    C     C_R   0.206818 0.021459 0.824618 0.704179
O9    O     O_R   0.838690 0.308440 0.993250 -0.532134
O10   O     O_R   0.161310 0.691560 0.006750 -0.525182
O11   O     O_R   0.661310 0.808440 0.006750 -0.519954
O12   O     O_R   0.338690 0.191560 0.993250 -0.535076
O13   O     O_R   0.786170 0.140510 0.130090 -0.556689
O14   O     O_R   0.213830 0.859490 0.869910 -0.497711
O15   O     O_R   0.713830 0.640510 0.869910 -0.542463
O16   O     O_R   0.286170 0.359490 0.130090 -0.523236
C5    C     C_R   0.864495 0.479317 0.995118 0.766540
C6    C     C_R   0.134461 0.521142 0.001464 0.775478
C7    C     C_R   0.635177 0.977780 0.004054 0.784194
C8    C     C_R   0.365281 0.023473 0.998209 0.786203
O17   O     O_3   0.732630 0.472520 0.044740 -0.370620
O18   O     O_3   0.267370 0.527480 0.955260 -0.349038
O19   O     O_3   0.767370 0.972520 0.955260 -0.368059
O20   O     O_3   0.232630 0.027480 0.044740 -0.373760
V1    V     V_3+5 0.753220 0.196740 0.991700 1.611655
V2    V     V_3+5 0.246780 0.803260 0.008300 1.589770
V3    V     V_3+5 0.746780 0.696740 0.008300 1.647733
V4    V     V_3+5 0.253220 0.303260 0.991700 1.563551
H1    H     H_    0.615092 0.100001 0.317346 0.091434
H2    H     H_    0.388637 0.070118 0.683241 0.120025
H3    H     H_    0.884414 0.652447 0.685496 0.122480
H4    H     H_    0.104937 0.289089 0.296235 0.144515
C9    C     C_R   0.534721 0.998004 0.826765 0.470669
C10   C     C_R   0.466755 0.032763 0.176699 0.458755
C11   C     C_R   0.966788 0.476206 0.169926 0.477454
C12   C     C_R   0.032529 0.569559 0.823241 0.466242
C13   C     C_R   0.485734 0.018044 0.744257 -0.244756
C14   C     C_R   0.516584 0.058233 0.258359 -0.105197
C15   C     C_R   0.015341 0.422271 0.248494 -0.221343
C16   C     C_R   0.982877 0.603643 0.742551 -0.085981
C17   C     C_R   0.424161 0.046661 0.747434 -0.105579
C18   C     C_R   0.578714 0.070918 0.254162 -0.086370
C19   C     C_R   0.071759 0.351454 0.237167 -0.105806
C20   C     C_R   0.920785 0.616402 0.747435 -0.092546
C21   C     C_R   0.407882 0.046392 0.831496 -0.059579
C22   C     C_R   0.594464 0.045320 0.170395 -0.069585
C23   C     C_R   0.086252 0.367133 0.151629 -0.122212
C24   C     C_R   0.904957 0.582354 0.830551 -0.088231
C25   C     C_R   0.453698 0.019912 0.916442 0.000632
C26   C     C_R   0.547659 0.015563 0.086490 0.005637
C27   C     C_R   0.044168 0.451830 0.075621 -0.001641
C28   C     C_R   0.951454 0.538210 0.912471 0.013256
C29   C     C_R   0.518811 0.000481 0.915111 0.032174
C30   C     C_R   0.482257 0.019091 0.088150 -0.000505
C31   C     C_R   0.980511 0.476044 0.080369 0.032537
C32   C     C_R   0.016955 0.540582 0.910640 -0.000100
C33   C     C_R   0.434749 0.017001 0.001474 -0.147655
C34   C     C_R   0.566009 0.991124 0.001623 -0.127909
C35   C     C_R   0.064305 0.504734 0.995213 -0.149796
C36   C     C_R   0.933055 0.498341 0.996051 -0.119241
H5    H     H_    0.494079 0.011704 0.675645 0.111080
H6    H     H_    0.508494 0.076642 0.326666 0.106393
H7    H     H_    0.009149 0.420410 0.318424 0.108047
H8    H     H_    0.991386 0.629615 0.675046 0.116719
H9    H     H_    0.358697 0.070476 0.828828 0.084076
H10   H     H_    0.644016 0.055149 0.171854 0.064397
H11   H     H_    0.130223 0.310091 0.144012 0.145165
H12   H     H_    0.855611 0.593422 0.830114 0.075068
C37   C     C_R   0.180694 0.005959 0.721718 -0.177670
C38   C     C_R   0.833135 0.975719 0.273268 -0.134490
C39   C     C_R   0.326345 0.516913 0.276607 -0.208020
C40   C     C_R   0.670817 0.477425 0.725859 -0.154336
C41   C     C_R   0.195040 0.910347 0.570055 0.381277
C42   C     C_R   0.826094 0.975654 0.434269 0.381133
C43   C     C_R   0.313075 0.439075 0.430994 0.411085
C44   C     C_R   0.681789 0.456439 0.567429 0.366533
C45   C     C_R   0.217032 0.918880 0.667900 -0.113189
C46   C     C_R   0.799191 0.933479 0.338912 -0.154923
C47   C     C_R   0.289320 0.451828 0.333940 -0.066042
C48   C     C_R   0.705740 0.424567 0.663449 -0.133436
C49   C     C_R   0.116555 0.048810 0.680663 -0.123956
C50   C     C_R   0.900036 0.993458 0.302741 -0.106667
C51   C     C_R   0.391829 0.544103 0.313782 -0.112157
C52   C     C_R   0.605689 0.516976 0.692553 -0.129660
C53   C     C_R   0.090087 0.023826 0.581118 -0.012471
C54   C     C_R   0.930138 0.003828 0.401005 -0.068544
C55   C     C_R   0.418731 0.534392 0.413530 -0.011041
C56   C     C_R   0.577299 0.513355 0.593862 -0.057847
C57   C     C_R   0.130405 0.951911 0.526224 -0.063783
C58   C     C_R   0.890862 0.030400 0.463046 -0.029884
C59   C     C_R   0.377505 0.485442 0.471461 -0.073780
C60   C     C_R   0.617529 0.509656 0.531728 -0.032295
C61   C     C_R   0.024278 0.055875 0.534496 0.073838
C62   C     C_R   0.997352 0.987742 0.442340 0.017965
C63   C     C_R   0.485184 0.560011 0.458508 0.063427
C64   C     C_R   0.510203 0.507342 0.553023 0.022867
C65   C     C_R   0.037331 0.895409 0.397001 -0.225428
C66   C     C_R   0.983201 0.149672 0.577375 -0.130994
C67   C     C_R   0.468025 0.442493 0.602605 -0.219790
C68   C     C_R   0.528669 0.628771 0.412091 -0.132700
C69   C     C_R   0.102898 0.902018 0.430871 -0.013851
C70   C     C_R   0.918884 0.107988 0.552708 -0.028422
C71   C     C_R   0.403304 0.463692 0.568789 -0.014762
C72   C     C_R   0.591209 0.565782 0.437330 -0.043913
H13   H     H_    0.017941 0.818364 0.333023 0.174655
H14   H     H_    0.000390 0.245686 0.634757 0.139150
H15   H     H_    0.484576 0.376536 0.669598 0.171193
H16   H     H_    0.513414 0.714051 0.350571 0.158987
O21   O     O_3   0.597197 0.962413 0.824316 -0.565381
C73   C     C_3   0.612059 0.013615 0.740450 -0.204340
H17   H     H_    0.594820 0.157661 0.717727 0.145414
H18   H     H_    0.592804 0.908728 0.684232 0.104314
H19   H     H_    0.664125 0.013174 0.752262 0.208392
O22   O     O_3   0.403024 0.028007 0.178611 -0.570615
C74   C     C_3   0.391518 0.031752 0.267987 -0.219059
H20   H     H_    0.405451 0.170315 0.302988 0.175049
H21   H     H_    0.415893 0.914537 0.312493 0.089988
H22   H     H_    0.340037 0.013179 0.260023 0.195331
O23   O     O_3   0.907818 0.542050 0.176701 -0.548039
C75   C     C_3   0.894837 0.513130 0.264010 -0.190050
H23   H     H_    0.924395 0.607702 0.318133 0.128792
H24   H     H_    0.900597 0.362572 0.285614 0.103259
H25   H     H_    0.844806 0.548949 0.257898 0.211348
O24   O     O_3   0.096239 0.571201 0.821625 -0.565123
C76   C     C_3   0.107585 0.554224 0.732500 -0.208692
H26   H     H_    0.095573 0.686709 0.692329 0.171517
H27   H     H_    0.081577 0.434055 0.692060 0.069816
H28   H     H_    0.158583 0.527046 0.741229 0.205683
C77   C     C_2   0.139795 0.862627 0.361593 0.372618
H29   H     H_    0.185356 0.927361 0.368523 0.146599
O25   O     O_2   0.117939 0.765526 0.292291 -0.549606
C78   C     C_2   0.883440 0.155488 0.621969 0.422235
H30   H     H_    0.833612 0.177943 0.600340 0.116488
O26   O     O_2   0.910041 0.169334 0.704902 -0.502305
C79   C     C_2   0.365280 0.478166 0.638713 0.371506
H31   H     H_    0.316575 0.521343 0.618458 0.130960
O27   O     O_2   0.389349 0.456238 0.721843 -0.523702
C80   C     C_2   0.623276 0.552149 0.360253 0.423642
H32   H     H_    0.660793 0.452807 0.361371 0.127437
O28   O     O_2   0.604047 0.642975 0.288585 -0.520164
C81   C     C_2   0.936885 0.015142 0.231275 0.366171
H33   H     H_    0.983285 0.077933 0.250169 0.067174
O29   O     O_2   0.916994 0.959183 0.151076 -0.507999
C82   C     C_2   0.078098 0.077403 0.749310 0.377259
H34   H     H_    0.092941 0.179880 0.805601 0.078900
O30   O     O_2   0.032175 0.977783 0.747871 -0.508426
C83   C     C_2   0.568544 0.567120 0.760625 0.409129
H35   H     H_    0.527918 0.658799 0.739170 0.082910
O31   O     O_2   0.580528 0.500250 0.839058 -0.522123
C84   C     C_2   0.429147 0.552323 0.242845 0.366848
H36   H     H_    0.415230 0.647955 0.183970 0.080375
O32   O     O_2   0.472784 0.443487 0.245640 -0.522579
C85   C     C_2   0.737949 0.832119 0.306912 0.324992
H37   H     H_    0.694783 0.898480 0.311369 0.069175
O33   O     O_2   0.735690 0.671463 0.274223 -0.527898
C86   C     C_2   0.274726 0.809914 0.713363 0.364358
H38   H     H_    0.318759 0.836584 0.696249 0.049676
O34   O     O_2   0.272383 0.677659 0.765572 -0.510504
C87   C     C_2   0.768192 0.335909 0.698907 0.359817
H39   H     H_    0.810127 0.411308 0.694259 0.042689
O35   O     O_2   0.772816 0.176402 0.732665 -0.522143
C88   C     C_2   0.226976 0.376781 0.289102 0.323664
H40   H     H_    0.190621 0.478703 0.260177 0.067567
O36   O     O_2   0.217586 0.205017 0.282364 -0.554072
O37   O     O_3   0.232145 0.818478 0.520393 -0.594501
C89   C     C_3   0.287313 0.924703 0.520262 -0.308327
H41   H     H_    0.328748 0.829186 0.538643 0.131961
H42   H     H_    0.296758 0.046456 0.569971 0.174630
H43   H     H_    0.284682 0.977904 0.449194 0.209823
O38   O     O_3   0.796073 0.925627 0.502887 -0.585375
C90   C     C_3   0.733664 0.994934 0.486617 -0.299475
H44   H     H_    0.699374 0.875606 0.467185 0.138221
H45   H     H_    0.722224 0.107843 0.432700 0.169961
H46   H     H_    0.726796 0.052126 0.552870 0.221595
O39   O     O_3   0.280174 0.336539 0.484033 -0.586059
C91   C     C_3   0.218000 0.401582 0.477370 -0.231750
H47   H     H_    0.184053 0.285682 0.447958 0.150212
H48   H     H_    0.204466 0.530631 0.434254 0.178064
H49   H     H_    0.212589 0.432110 0.548287 0.165688
O40   O     O_3   0.717781 0.402068 0.508034 -0.603567
C92   C     C_3   0.769517 0.525915 0.514274 -0.305510
H50   H     H_    0.812769 0.442354 0.518624 0.132153
H51   H     H_    0.778627 0.627643 0.574008 0.177231
H52   H     H_    0.761542 0.603766 0.448467 0.226396

loop_
_geom_bond_atom_site_label_1
_geom_bond_atom_site_label_2
_ccdc_geom_bond_type
O17   V3    S    
O1    C5    A    
C85   H37   S    
C12   C32   A    
C27   C31   A    
O19   V1    S    
O13   V1    S    
O37   C89   S    
O3    C7    A    
C87   H39   S    
C49   C82   S    
C56   C60   A    
C44   C48   A    
O15   V3    S    
O24   C76   S    
C40   C48   A    
C72   C80   S    
C73   H17   S    
O23   C75   S    
C90   H45   S    
O7    C3    A    
C31   C36   A    
C8    C33   S    
C32   C35   A    
O2    V4    S    
C87   O35   D    
O10   V2    S    
O21   C73   S    
C20   C24   A    
C51   C55   A    
C9    C13   A    
O16   V4    S    
O4    C8    A    
C92   H51   S    
C9    O21   S    
C89   H41   S    
C65   H13   S    
C12   O24   S    
C61   C62   A    
O1    V3    S    
C11   O23   S    
O40   C92   S    
H4    C19   S    
C67   H15   S    
C14   C18   A    
C41   C57   A    
O3    V1    S    
O22   C74   S    
C5    C36   S    
C57   C69   A    
C6    C35   S    
C10   C30   A    
C25   C33   A    
C1    O15   A    
C7    C34   S    
C3    O13   A    
C52   C56   A    
C2    O16   A    
C27   C35   A    
O2    C6    A    
C83   H35   S    
C28   C36   A    
C54   C58   A    
O14   V2    S    
C1    C40   S    
C41   C45   A    
C44   C60   A    
C40   C52   A    
C84   O32   D    
C61   C66   A    
C91   H49   S    
C76   H28   S    
C30   C33   A    
C70   C78   S    
C63   C68   A    
C60   C72   A    
O12   C8    A    
C45   C86   S    
C21   H9    S    
C4    C37   S    
C83   O31   D    
C88   O36   D    
H1    C18   S    
C23   H11   S    
C38   C46   A    
H3    C20   S    
O20   V4    S    
C37   C45   A    
C81   O29   D    
C91   H48   S    
C81   H33   S    
C90   H46   S    
O5    V1    S    
C74   H21   S    
C65   C69   A    
C47   C88   S    
O7    V3    S    
O19   V3    S    
O8    V4    S    
C29   C34   A    
C42   O38   S    
C82   H34   S    
C78   O26   D    
C50   C54   A    
C68   H16   S    
C46   C85   S    
C25   C29   A    
O18   V4    S    
C92   H52   S    
C19   C23   A    
C26   C34   A    
C23   C27   A    
C64   C67   A    
C28   C32   A    
C53   C61   A    
C86   O34   D    
C15   H7    S    
C43   C59   A    
C24   H12   S    
C2    C39   S    
C42   C46   A    
C73   H18   S    
C90   H44   S    
C17   C21   A    
O8    C4    A    
C11   C31   A    
C51   C84   S    
O9    C5    A    
H2    C17   S    
C22   C26   A    
C38   C50   A    
C74   H20   S    
C37   C49   A    
C84   H36   S    
C48   C87   S    
C59   C71   A    
C75   H25   S    
C41   O37   S    
O6    V2    S    
O18   V2    S    
C77   H29   S    
C52   C83   S    
C43   O39   S    
C66   H14   S    
C50   C81   S    
C68   C72   A    
C91   H47   S    
C56   C64   A    
C75   H24   S    
C76   H26   S    
C26   C30   A    
C74   H22   S    
O9    V1    S    
C58   C70   A    
C49   C53   A    
C69   C77   S    
C82   O30   D    
C78   H30   S    
C3    C38   S    
O6    C2    A    
C13   H5    S    
C79   H31   S    
O11   V3    S    
O12   V4    S    
C62   C65   A    
C18   C22   A    
C63   C64   A    
C86   H38   S    
O10   C6    A    
O20   V2    S    
C22   H10   S    
O17   V1    S    
C43   C47   A    
C79   O27   D    
C39   C47   A    
C92   H50   S    
C88   H40   S    
C89   H42   S    
C42   C58   A    
C21   C25   A    
C89   H43   S    
O11   C7    A    
C66   C70   A    
C80   O28   D    
C44   O40   S    
C53   C57   A    
O4    V2    S    
C73   H19   S    
C16   H8    S    
C55   C59   A    
O39   C91   S    
C10   O22   S    
C10   C14   A    
C16   C20   A    
C12   C16   A    
C11   C15   A    
C85   O33   D    
C4    O14   A    
C14   H6    S    
C77   O25   D    
C13   C17   A    
C80   H32   S    
C67   C71   A    
O5    C1    A    
C55   C63   A    
C15   C19   A    
C54   C62   A    
C71   C79   S    
C9    C29   A    
C39   C51   A    
C24   C28   A    
C75   H23   S    
C76   H27   S    
O38   C90   S    
