data_mof_unit_52523.cif
_audit_creation_date              2012-12-11T16:26:32-0500
_audit_creation_method            fapswitch 2.2
_symmetry_space_group_name_H-M    P1
_symmetry_Int_Tables_number       1
_space_group_crystal_system       triclinic
_cell_length_a                    13.979737
_cell_length_b                    13.979452
_cell_length_c                    31.88231
_cell_angle_alpha                 90.014811
_cell_angle_beta                  90.020159
_cell_angle_gamma                 120.044897
_cell_volume                      5393.52654857

loop_
_atom_site_label
_atom_site_type_symbol
_atom_type_description
_atom_site_fract_x
_atom_site_fract_y
_atom_site_fract_z
_atom_type_partial_charge
C1    C     C_R   0.567125 0.445051 0.810420 0.579717
C2    C     C_R   0.444591 0.565726 0.189849 0.516740
C3    C     C_2   0.981471 0.671005 0.658674 0.260936
C4    C     C_2   0.683235 0.012883 0.843806 0.239122
C5    C     C_2   0.334593 0.299385 0.656175 0.272785
C6    C     C_2   0.647931 0.916385 0.353223 0.279510
C7    C     C_2   0.073135 0.728632 0.151029 0.277413
C8    C     C_2   0.282345 0.338834 0.345114 0.278575
C9    C     C_2   0.655627 0.927644 0.150769 0.278600
C10   C     C_2   0.036953 0.705477 0.341436 0.239591
C11   C     C_2   0.280498 0.338734 0.154755 0.280548
C12   C     C_3   0.172946 0.776180 0.049853 -0.008717
C13   C     C_R   0.434820 0.879692 0.309847 0.575543
C14   C     C_3   0.189280 0.868977 0.020566 -0.367163
C15   C     C_3   0.579797 0.817806 0.454509 -0.011067
C16   C     C_3   0.654671 0.797214 0.483143 -0.372272
C17   C     C_3   0.221805 0.389549 0.051658 0.032476
C18   C     C_3   0.131424 0.314131 0.021274 -0.363386
C19   C     C_3   0.140921 0.796704 0.438284 0.016171
C20   C     C_3   0.191236 0.784158 0.478885 -0.409148
C21   C     C_3   0.599168 0.827295 0.049407 -0.008291
C22   C     C_3   0.673985 0.809672 0.019686 -0.368455
C23   C     C_3   0.228227 0.389655 0.449043 0.033756
C24   C     C_R   0.121341 0.555554 0.189814 0.557532
C25   C     C_3   0.138320 0.314573 0.479510 -0.368351
C26   C     C_3   0.766917 0.109547 0.549893 0.024324
C27   C     C_3   0.851684 0.093592 0.525748 -0.373548
C28   C     C_3   0.898246 0.677748 0.943815 -0.017933
C29   C     C_3   0.912925 0.791135 0.953224 -0.375804
C30   C     C_3   0.326697 0.216394 0.553787 -0.020099
C31   C     C_3   0.213617 0.113817 0.547795 -0.374862
C32   C     C_3   0.780061 0.098656 0.940743 0.001122
C33   C     C_3   0.873599 0.078993 0.953774 -0.381367
C34   C     C_3   0.907195 0.691582 0.556968 -0.025645
C35   C     C_1   0.999598 0.521048 0.019203 0.007152
C36   C     C_3   0.932248 0.807536 0.545535 -0.371339
C37   C     C_3   0.319862 0.219781 0.944020 -0.019937
C38   C     C_3   0.205575 0.119383 0.950484 -0.375105
C39   C     C_3   0.912499 0.291489 0.171022 0.013111
C40   C     C_3   0.914070 0.201629 0.197321 -0.318018
C41   C     C_3   0.291595 0.050729 0.360856 0.012080
C42   C     C_3   0.216172 0.056275 0.327721 -0.321511
C43   C     C_3   0.712857 0.635422 0.168745 0.004559
C44   C     C_3   0.806147 0.733287 0.191454 -0.337233
C45   C     C_3   0.932784 0.281026 0.335706 0.018695
C46   C     C_1   0.506496 0.999830 0.480212 0.010059
C47   C     C_3   0.941656 0.186969 0.315743 -0.322306
C48   C     C_3   0.384095 0.094450 0.171114 0.011520
C49   C     C_3   0.294525 0.098364 0.196860 -0.343609
C50   C     C_3   0.719186 0.643907 0.333060 0.006774
C51   C     C_3   0.808749 0.743609 0.309871 -0.331384
C52   C     C_3   0.267856 0.959462 0.656424 0.007538
C53   C     C_3   0.182863 0.980630 0.677804 -0.362137
C54   C     C_3   0.039249 0.298827 0.856877 0.014697
C55   C     C_3   0.018855 0.191576 0.836680 -0.320345
C56   C     C_3   0.689843 0.724876 0.653931 0.005617
C57   C     C_1   0.476116 0.476698 0.019308 -0.001971
C58   C     C_3   0.796509 0.810518 0.674907 -0.346080
C59   C     C_3   0.271308 0.967379 0.848154 0.008201
C60   C     C_3   0.185029 0.987673 0.827379 -0.364763
C61   C     C_3   0.030051 0.299608 0.645230 0.032683
C62   C     C_3   0.048274 0.229180 0.613279 -0.375555
C63   C     C_3   0.699353 0.729544 0.849173 -0.002513
C64   C     C_3   0.808750 0.814044 0.829522 -0.370940
C65   C     C_1   0.993496 0.525558 0.480042 0.003759
C66   C     C_1   0.519573 0.002050 0.019772 0.009341
C67   C     C_1   0.481072 0.473508 0.480026 -0.003632
C68   C     C_1   0.510279 0.005775 0.517726 -0.000440
C69   C     C_R   0.877898 0.433026 0.689576 0.589815
C70   C     C_1   0.992994 0.518284 0.981714 0.009574
C71   C     C_1   0.483635 0.469663 0.517521 0.003168
C72   C     C_1   0.522872 0.008178 0.982293 0.010771
C73   C     C_1   0.986111 0.522453 0.517544 -0.001129
C74   C     C_1   0.479243 0.473617 0.981800 0.006641
C75   C     C_R   0.938873 0.472198 0.850973 -0.002274
C76   C     C_R   0.531875 0.062694 0.648497 -0.067889
C77   C     C_R   0.528771 0.465624 0.851286 -0.007942
C78   C     C_R   0.935246 0.471453 0.648426 -0.006797
C79   C     C_R   0.534383 0.065267 0.851752 -0.034944
C80   C     C_R   0.554923 0.122094 0.810441 0.544759
C81   C     C_R   0.528898 0.464156 0.648462 -0.010576
C82   C     C_R   0.479341 0.942732 0.349620 0.009402
C83   C     C_R   0.059776 0.538608 0.149716 -0.026450
C84   C     C_R   0.463527 0.521593 0.350019 -0.075934
C85   C     C_R   0.479305 0.941619 0.150155 -0.023651
C86   C     C_R   0.058035 0.536437 0.350023 -0.080563
C87   C     C_R   0.462078 0.521230 0.149798 -0.080177
C88   C     C_R   0.964805 0.576008 0.868717 -0.022431
C89   C     C_R   0.609700 0.039037 0.629281 -0.027369
C90   C     C_R   0.424756 0.387645 0.868793 -0.021994
C91   C     C_R   0.567064 0.444851 0.689564 0.576811
C92   C     C_R   0.963584 0.576903 0.631631 -0.016845
C93   C     C_R   0.609530 0.036104 0.869642 -0.023054
C94   C     C_R   0.426524 0.383824 0.630467 -0.021399
C95   C     C_R   0.561843 0.934315 0.372960 -0.044394
C96   C     C_R   0.059956 0.629224 0.128818 -0.038150
C97   C     C_R   0.375445 0.426700 0.369813 -0.035662
C98   C     C_R   0.569145 0.941161 0.128937 -0.039004
C99   C     C_R   0.044166 0.621968 0.368305 -0.042155
C100  C     C_R   0.372842 0.427191 0.129917 -0.042473
C101  C     C_R   0.981107 0.591710 0.912512 0.226641
C102  C     C_R   0.878561 0.433251 0.810292 0.589866
C103  C     C_R   0.604232 0.021776 0.585243 0.281873
C104  C     C_R   0.407685 0.388619 0.912428 0.228189
C105  C     C_R   0.978894 0.594534 0.587889 0.226044
C106  C     C_R   0.606810 0.017118 0.913211 0.238389
C107  C     C_R   0.410902 0.383831 0.586714 0.230139
C108  C     C_R   0.565794 0.947864 0.416632 0.221176
C109  C     C_R   0.045275 0.624655 0.085052 0.224495
C110  C     C_R   0.379520 0.414536 0.413648 0.273077
C111  C     C_R   0.578415 0.956008 0.085192 0.225166
C112  C     C_R   0.029317 0.621628 0.412339 0.299477
C113  C     C_R   0.554614 0.121921 0.689530 0.519148
C114  C     C_R   0.375509 0.416223 0.085928 0.277149
C115  C     C_R   0.983899 0.509840 0.937068 -0.010303
C116  C     C_R   0.514753 0.014337 0.562455 -0.032141
C117  C     C_R   0.488807 0.473531 0.937177 -0.011398
C118  C     C_R   0.976393 0.511713 0.562182 -0.014272
C119  C     C_R   0.523454 0.016969 0.937684 -0.016399
C120  C     C_R   0.492000 0.469439 0.562171 -0.012538
C121  C     C_R   0.503125 0.988452 0.435577 -0.011943
C122  C     C_R   0.010699 0.525049 0.063833 -0.024943
C123  C     C_R   0.477763 0.481716 0.435408 -0.040887
C124  C     C_R   0.444824 0.565833 0.310128 0.519989
C125  C     C_R   0.513475 0.991270 0.064382 -0.023397
C126  C     C_R   0.005716 0.527208 0.435440 -0.029883
C127  C     C_R   0.473357 0.483742 0.063999 -0.040863
C128  C     C_R   0.975555 0.416151 0.918558 -0.171589
C129  C     C_R   0.429712 0.019102 0.582692 -0.164983
C130  C     C_R   0.583666 0.558357 0.918959 -0.165279
C131  C     C_R   0.963967 0.415192 0.579580 -0.160537
C132  C     C_R   0.440228 0.028795 0.919113 -0.166179
C133  C     C_R   0.585082 0.555945 0.580733 -0.161423
C134  C     C_R   0.438414 0.017878 0.411461 -0.186990
C135  C     C_R   0.434426 0.879065 0.189972 0.558733
C136  C     C_R   0.991901 0.430747 0.085546 -0.169561
C137  C     C_R   0.570561 0.562198 0.414474 -0.164713
C138  C     C_R   0.439030 0.010864 0.086480 -0.169134
C139  C     C_R   0.998793 0.435112 0.415776 -0.174337
C140  C     C_R   0.567340 0.562282 0.085011 -0.167159
C141  C     C_R   0.955980 0.397377 0.875667 0.215794
C142  C     C_R   0.436582 0.042873 0.625228 0.227333
C143  C     C_R   0.604283 0.556334 0.876376 0.213167
C144  C     C_R   0.946004 0.395015 0.622385 0.219104
C145  C     C_R   0.443390 0.051022 0.876471 0.217098
C146  C     C_R   0.120930 0.555108 0.310106 0.527839
C147  C     C_R   0.603888 0.555316 0.623510 0.212874
C148  C     C_R   0.425174 0.995060 0.367917 0.235243
C149  C     C_R   0.016891 0.436527 0.128140 0.218004
C150  C     C_R   0.564148 0.584247 0.372278 0.220354
C151  C     C_R   0.420607 0.985721 0.129083 0.209833
C152  C     C_R   0.025870 0.438932 0.373559 0.223103
C153  C     C_R   0.562498 0.583112 0.127436 0.220156
C154  C     C_2   0.979217 0.670394 0.842682 0.260798
C155  C     C_2   0.691564 0.026739 0.655202 0.273199
C156  C     C_2   0.332262 0.305240 0.842729 0.268765
Cr1   Cr    Cr6+3 0.504240 0.249200 0.750000 1.099228
Cr2   Cr    Cr6+3 0.744960 0.495760 0.750000 1.100853
Cr3   Cr    Cr6+3 0.750800 0.255040 0.750000 1.085961
Cr4   Cr    Cr6+3 0.249200 0.504240 0.250000 1.013529
Cr5   Cr    Cr6+3 0.495760 0.744960 0.250000 1.105169
Cr6   Cr    Cr6+3 0.255040 0.750800 0.250000 1.066491
H1    H     H_    0.963178 0.353374 0.069002 0.139193
H2    H     H_    0.374097 0.024848 0.938122 0.114875
H3    H     H_    0.917540 0.326484 0.310262 0.115844
H4    H     H_    0.861369 0.245166 0.357762 0.133820
H5    H     H_    0.947999 0.134441 0.340466 0.185910
H6    H     H_    0.867491 0.135681 0.296264 0.141094
H7    H     H_    0.016057 0.220646 0.295421 0.161681
H8    H     H_    0.420221 0.166012 0.149143 0.127639
H9    H     H_    0.449389 0.101884 0.193192 0.131503
H10   H     H_    0.330745 0.176742 0.214934 0.066122
H11   H     H_    0.228902 0.093620 0.175849 0.183837
H12   H     H_    0.257380 0.027898 0.219170 0.177953
H13   H     H_    0.964526 0.353094 0.559444 0.111699
H14   H     H_    0.670286 0.578442 0.309458 0.114523
H15   H     H_    0.759284 0.613279 0.355315 0.145467
H16   H     H_    0.861440 0.809372 0.332578 0.197413
H17   H     H_    0.860868 0.719353 0.291666 0.090921
H18   H     H_    0.770482 0.776646 0.288008 0.171518
H19   H     H_    0.297218 0.920382 0.679724 0.150261
H20   H     H_    0.226971 0.901584 0.629732 0.146621
H21   H     H_    0.146277 0.012622 0.654704 0.123645
H22   H     H_    0.115870 0.902844 0.691436 0.141038
H23   H     H_    0.222611 0.042040 0.703418 0.178480
H24   H     H_    0.645121 0.624377 0.938289 0.115434
H25   H     H_    0.075110 0.304364 0.888578 0.129156
H26   H     H_    0.099758 0.369094 0.837205 0.156716
H27   H     H_    0.097336 0.190719 0.834002 0.102967
H28   H     H_    0.960605 0.119971 0.856111 0.158508
H29   H     H_    0.983737 0.183529 0.804764 0.197548
H30   H     H_    0.622188 0.695238 0.677598 0.135026
H31   H     H_    0.671392 0.765135 0.627449 0.158337
H32   H     H_    0.864250 0.847628 0.651450 0.146424
H33   H     H_    0.785166 0.876788 0.688967 0.130693
H34   H     H_    0.819673 0.771186 0.700172 0.166785
H35   H     H_    0.967729 0.734871 0.856384 0.131480
H36   H     H_    0.232749 0.912904 0.875886 0.142225
H37   H     H_    0.296825 0.924491 0.825043 0.149046
H38   H     H_    0.222553 0.046173 0.800780 0.178339
H39   H     H_    0.116054 0.908800 0.815244 0.135471
H40   H     H_    0.151399 0.022636 0.850457 0.117248
H41   H     H_    0.026008 0.264516 0.676864 0.178187
H42   H     H_    0.103460 0.384926 0.645462 0.131658
H43   H     H_    0.061437 0.265994 0.581532 0.140271
H44   H     H_    0.122308 0.224306 0.621977 0.132272
H45   H     H_    0.976235 0.144159 0.612688 0.194217
H46   H     H_    0.679987 0.014411 0.688788 0.100287
H47   H     H_    0.683674 0.768110 0.876956 0.135271
H48   H     H_    0.632771 0.707307 0.825479 0.135713
H49   H     H_    0.829884 0.775733 0.803246 0.179622
H50   H     H_    0.802945 0.885090 0.817114 0.106549
H51   H     H_    0.875520 0.845045 0.853369 0.127419
H52   H     H_    0.273519 0.225672 0.855837 0.135479
H53   H     H_    0.970268 0.736801 0.646075 0.129197
H54   H     H_    0.668787 0.929245 0.842689 0.079250
H55   H     H_    0.280794 0.217608 0.643546 0.141448
H56   H     H_    0.684049 0.875416 0.370460 0.177154
H57   H     H_    0.397395 0.055981 0.427212 0.096489
H58   H     H_    0.112334 0.808447 0.135569 0.168603
H59   H     H_    0.292775 0.328739 0.312013 0.085755
H60   H     H_    0.696568 0.889477 0.134846 0.170877
H61   H     H_    0.023191 0.691836 0.307976 0.117482
H62   H     H_    0.291804 0.328847 0.187789 0.087480
H63   H     H_    0.197437 0.722521 0.032492 0.133608
H64   H     H_    0.228572 0.812825 0.077360 0.136569
H65   H     H_    0.164992 0.924279 0.036475 0.162981
H66   H     H_    0.277281 0.917893 0.011087 0.086606
H67   H     H_    0.138717 0.833901 0.991880 0.197291
H68   H     H_    0.643380 0.612737 0.067927 0.136439
H69   H     H_    0.555483 0.760090 0.427391 0.134902
H70   H     H_    0.504217 0.799272 0.472578 0.139076
H71   H     H_    0.676819 0.850719 0.511317 0.200249
H72   H     H_    0.611163 0.709859 0.493580 0.092926
H73   H     H_    0.731221 0.814845 0.466217 0.157709
H74   H     H_    0.274264 0.469906 0.035398 0.107342
H75   H     H_    0.182795 0.404237 0.079427 0.187066
H76   H     H_    0.077008 0.232506 0.036030 0.176942
H77   H     H_    0.081021 0.351911 0.012227 0.079328
H78   H     H_    0.169033 0.302919 0.992454 0.190957
H79   H     H_    0.977900 0.361427 0.433742 0.133479
H80   H     H_    0.138886 0.874888 0.440560 0.155267
H81   H     H_    0.196082 0.805992 0.411436 0.144331
H82   H     H_    0.207035 0.714075 0.476416 0.139344
H83   H     H_    0.270954 0.860704 0.484929 0.097469
H84   H     H_    0.135088 0.770506 0.505577 0.216608
H85   H     H_    0.520838 0.803931 0.032338 0.132717
H86   H     H_    0.579952 0.771442 0.076816 0.143031
H87   H     H_    0.753365 0.831919 0.035394 0.159115
H88   H     H_    0.632963 0.721861 0.009790 0.087166
H89   H     H_    0.690291 0.861090 0.991240 0.200645
H90   H     H_    0.390496 0.040155 0.070231 0.138042
H91   H     H_    0.189127 0.406196 0.421769 0.194295
H92   H     H_    0.282222 0.469266 0.465566 0.108807
H93   H     H_    0.176149 0.300406 0.507626 0.193856
H94   H     H_    0.090663 0.354379 0.489775 0.077558
H95   H     H_    0.081580 0.234265 0.464270 0.171852
H96   H     H_    0.809421 0.166305 0.576561 0.200646
H97   H     H_    0.733781 0.148954 0.528459 0.123257
H98   H     H_    0.814172 0.045705 0.496666 0.194520
H99   H     H_    0.922265 0.175326 0.516985 0.076138
H100  H     H_    0.882448 0.048934 0.545328 0.160594
H101  H     H_    0.646467 0.613539 0.431559 0.139385
H102  H     H_    0.868616 0.626567 0.972732 0.156492
H103  H     H_    0.833790 0.638656 0.919091 0.167666
H104  H     H_    0.949609 0.846482 0.925737 0.142916
H105  H     H_    0.831540 0.783259 0.960272 0.098030
H106  H     H_    0.967688 0.828496 0.980789 0.161809
H107  H     H_    0.374408 0.194953 0.576130 0.153497
H108  H     H_    0.370090 0.238793 0.523064 0.160983
H109  H     H_    0.162995 0.130883 0.525555 0.156576
H110  H     H_    0.223095 0.045286 0.534885 0.099196
H111  H     H_    0.169822 0.087506 0.578324 0.144489
H112  H     H_    0.359582 0.009908 0.564914 0.121028
H113  H     H_    0.763553 0.141284 0.966861 0.143506
H114  H     H_    0.808618 0.153947 0.912898 0.198428
H115  H     H_    0.886002 0.028862 0.929651 0.149166
H116  H     H_    0.951388 0.159370 0.957139 0.092583
H117  H     H_    0.854449 0.035275 0.984325 0.165676
H118  H     H_    0.842636 0.659462 0.581787 0.169739
H119  H     H_    0.874201 0.638275 0.528662 0.158044
H120  H     H_    0.994311 0.841294 0.519907 0.167759
H121  H     H_    0.855480 0.805188 0.534850 0.102828
H122  H     H_    0.965155 0.862634 0.573322 0.144883
H123  H     H_    0.979191 0.354238 0.937890 0.108668
H124  H     H_    0.365459 0.240092 0.974291 0.159623
H125  H     H_    0.364264 0.196753 0.920739 0.161804
H126  H     H_    0.155714 0.101595 0.921415 0.143089
H127  H     H_    0.213158 0.046165 0.958383 0.100102
H128  H     H_    0.162170 0.134286 0.976559 0.157087
H129  H     H_    0.838782 0.252813 0.150107 0.135778
H130  H     H_    0.905490 0.349983 0.192886 0.110478
H131  H     H_    0.988949 0.238056 0.217461 0.155583
H132  H     H_    0.839750 0.162101 0.217678 0.136211
H133  H     H_    0.914754 0.138071 0.176617 0.195973
H134  H     H_    0.646407 0.622693 0.561621 0.117223
H135  H     H_    0.238765 0.984917 0.383404 0.143004
H136  H     H_    0.336331 0.132230 0.376926 0.145827
H137  H     H_    0.265016 0.125761 0.305829 0.126410
H138  H     H_    0.174821 0.977962 0.309561 0.186779
H139  H     H_    0.151891 0.068765 0.342972 0.155614
H140  H     H_    0.749135 0.597867 0.147891 0.138773
H141  H     H_    0.659686 0.573766 0.192807 0.116925
H142  H     H_    0.772513 0.776712 0.210214 0.170803
H143  H     H_    0.848644 0.703974 0.212835 0.134937
H144  H     H_    0.866536 0.792019 0.168406 0.177109
O1    O     O_R   0.480350 0.140770 0.796330 -0.470602
O2    O     O_R   0.140770 0.480350 0.203670 -0.470791
O3    O     O_R   0.519650 0.660420 0.296330 -0.452932
O4    O     O_R   0.339580 0.859230 0.203670 -0.467135
O5    O     O_R   0.514930 0.348530 0.793250 -0.454558
O6    O     O_R   0.833600 0.485070 0.706750 -0.456365
O7    O     O_R   0.651470 0.166400 0.793250 -0.453065
O8    O     O_R   0.514930 0.348530 0.706750 -0.455497
O9    O     O_R   0.833600 0.485070 0.793250 -0.457588
O10   O     O_R   0.651470 0.166400 0.706750 -0.516320
O11   O     O_R   0.348530 0.514930 0.293250 -0.522851
O12   O     O_R   0.660420 0.519650 0.703670 -0.476367
O13   O     O_R   0.485070 0.833600 0.206750 -0.453507
O14   O     O_R   0.166400 0.651470 0.293250 -0.519963
O15   O     O_R   0.348530 0.514930 0.206750 -0.526759
O16   O     O_R   0.485070 0.833600 0.293250 -0.454807
O17   O     O_R   0.166400 0.651470 0.206750 -0.462789
O18   O     O_3   0.666667 0.333333 0.750000 -0.289790
O19   O     O_3   0.333333 0.666667 0.250000 -0.264805
O20   O     O_2   0.010583 0.680725 0.806365 -0.499642
O21   O     O_2   0.771027 0.026520 0.639517 -0.507918
O22   O     O_2   0.317642 0.327426 0.807109 -0.498112
O23   O     O_R   0.859230 0.339580 0.796330 -0.435505
O24   O     O_2   0.014730 0.679186 0.694646 -0.501435
O25   O     O_2   0.763271 0.086368 0.825887 -0.475377
O26   O     O_2   0.315147 0.321915 0.690992 -0.496908
O27   O     O_2   0.685441 0.954486 0.318724 -0.518006
O28   O     O_2   0.033871 0.721159 0.185871 -0.544872
O29   O     O_2   0.194234 0.274340 0.361410 -0.471213
O30   O     O_2   0.687461 0.965751 0.185775 -0.524713
O31   O     O_2   0.041271 0.788069 0.356198 -0.527189
O32   O     O_2   0.192165 0.273562 0.138700 -0.452752
O33   O     O_3   0.061336 0.716838 0.062931 -0.562882
O34   O     O_R   0.480350 0.140770 0.703670 -0.457651
O35   O     O_3   0.637062 0.928780 0.440730 -0.571561
O36   O     O_3   0.283283 0.338991 0.064088 -0.508241
O37   O     O_3   0.030479 0.709643 0.432913 -0.515722
O38   O     O_3   0.653236 0.938863 0.062648 -0.561162
O39   O     O_3   0.287551 0.337639 0.435623 -0.515230
O40   O     O_3   0.682487 0.006143 0.564631 -0.525685
O41   O     O_3   0.000362 0.689660 0.930865 -0.582183
O42   O     O_3   0.312993 0.304116 0.568608 -0.586028
O43   O     O_3   0.684403 0.996447 0.931690 -0.574537
O44   O     O_3   0.005196 0.695985 0.570935 -0.590247
O45   O     O_R   0.660420 0.519650 0.796330 -0.474112
O46   O     O_3   0.308935 0.310054 0.930341 -0.584106
O47   O     O_3   0.010178 0.344350 0.146930 -0.503825
O48   O     O_3   0.367143 0.026762 0.340896 -0.542048
O49   O     O_3   0.653093 0.673134 0.145042 -0.550665
O50   O     O_3   0.032031 0.350715 0.357205 -0.499899
O51   O     O_3   0.336813 0.994172 0.148524 -0.545318
O52   O     O_3   0.652668 0.676587 0.354951 -0.550187
O53   O     O_3   0.355961 0.061001 0.642121 -0.556498
O54   O     O_3   0.937944 0.297919 0.859383 -0.515632
O55   O     O_3   0.703644 0.637400 0.639206 -0.562439
O56   O     O_R   0.859230 0.339580 0.703670 -0.467472
O57   O     O_3   0.362279 0.069676 0.860404 -0.557479
O58   O     O_3   0.927779 0.294610 0.637626 -0.532679
O59   O     O_3   0.705954 0.635868 0.861117 -0.555329
O60   O     O_R   0.140770 0.480350 0.296330 -0.457239
O61   O     O_R   0.519650 0.660420 0.203670 -0.456163
O62   O     O_R   0.339580 0.859230 0.296330 -0.467592

loop_
_geom_bond_atom_site_label_1
_geom_bond_atom_site_label_2
_ccdc_geom_bond_type
C63   O59   S    
Cr4   O19   S    
C15   H70   S    
C1    C77   S    
C19   C20   S    
C150  O52   S    
C23   H91   S    
C49   H11   S    
C69   C78   S    
C21   H85   S    
C52   H20   S    
C50   O52   S    
C53   H21   S    
C89   C155  S    
C42   H137  S    
C144  O58   S    
C3    H53   S    
C134  H57   S    
C139  C152  A    
Cr1   O8    S    
C120  C133  A    
C118  C131  A    
C5    H55   S    
C26   H97   S    
C81   C147  A    
C45   O50   S    
C111  C125  A    
C69   O56   A    
C87   C153  A    
C51   H16   S    
C114  O36   S    
C10   O31   D    
C19   H81   S    
C59   C60   S    
C21   C22   S    
C29   H104  S    
C129  H112  S    
C30   H107  S    
C25   H94   S    
C5    C94   S    
C45   C47   S    
C56   O55   S    
C39   H129  S    
C110  O39   S    
Cr4   O2    S    
C129  C142  A    
C13   C82   S    
C3    C92   S    
C55   H29   S    
C44   H143  S    
C37   H124  S    
C43   C44   S    
C85   C151  A    
C37   C38   S    
Cr5   O61   S    
C86   C152  A    
C110  C123  A    
C41   H136  S    
Cr5   O19   S    
C142  O53   S    
C124  O3    A    
C86   C99   A    
C122  C136  A    
C68   C116  S    
C54   O54   S    
C54   H25   S    
C125  C138  A    
C105  C118  A    
C39   O47   S    
C63   H48   S    
C107  O42   S    
C80   O1    A    
C107  C120  A    
Cr1   O34   S    
C104  C117  A    
C61   O58   S    
C28   C29   S    
C4    O25   D    
C35   C122  S    
C67   C123  S    
C70   C115  S    
C96   C109  A    
Cr2   O9    S    
C103  C116  A    
Cr6   O19   S    
C16   H71   S    
Cr6   O4    S    
C10   C99   S    
C95   C108  A    
C60   H38   S    
Cr1   O1    S    
C31   H110  S    
C29   H106  S    
C64   H50   S    
C152  O50   S    
C62   H44   S    
C12   O33   S    
C9    O30   D    
C9    C98   S    
C4    H54   S    
C58   H33   S    
C40   H132  S    
Cr3   O7    S    
C38   H126  S    
C14   H66   S    
C146  O14   A    
C151  O51   S    
C132  C145  A    
C55   H27   S    
C22   H88   S    
C138  H90   S    
C91   O12   A    
C148  O48   S    
C75   C141  A    
C9    H60   S    
C104  O46   S    
Cr4   O15   S    
C133  C147  A    
Cr6   O62   S    
C45   H4    S    
C76   C89   A    
C25   H95   S    
C89   C103  A    
C51   H17   S    
C47   H7    S    
C18   H78   S    
C76   C113  S    
C33   H116  S    
C43   H140  S    
C66   C72   T    
C126  C139  A    
C106  O43   S    
C64   H51   S    
C100  C114  A    
C79   C80   S    
C39   C40   S    
C16   H73   S    
C78   C92   A    
C27   H100  S    
C38   H127  S    
C115  C128  A    
C88   C154  S    
C77   C143  A    
C46   C68   T    
C130  C143  A    
C78   C144  A    
C93   C106  A    
C48   H9    S    
C92   C105  A    
C12   H64   S    
C2    O15   A    
C17   C18   S    
C2    C87   S    
C156  O22   D    
C7    H58   S    
C138  C151  A    
C20   H83   S    
C43   O49   S    
Cr5   O16   S    
C19   O37   S    
C137  C150  A    
C127  C140  A    
C90   C156  S    
C52   C53   S    
C87   C100  A    
C17   H74   S    
C3    O24   D    
C143  O59   S    
C54   C55   S    
C82   C95   A    
C15   H69   S    
C36   H121  S    
C57   C127  S    
C49   H10   S    
C82   C148  A    
Cr2   O45   S    
C123  C137  A    
Cr5   O13   S    
C65   C126  S    
Cr6   O14   S    
C141  O54   S    
C156  H52   S    
C81   C94   A    
C135  O13   A    
C42   H138  S    
C83   C96   A    
C147  O55   S    
C58   H34   S    
C102  O23   A    
C56   C58   S    
C34   C36   S    
Cr2   O12   S    
C61   C62   S    
C139  H79   S    
C2    O61   A    
C63   C64   S    
C6    C95   S    
C6    O27   D    
C18   H76   S    
C42   H139  S    
C56   H30   S    
C140  H68   S    
C106  C119  A    
C41   C42   S    
C108  O35   S    
C30   H108  S    
C108  C121  A    
C136  C149  A    
C25   H93   S    
C7    C96   S    
C26   C27   S    
C7    O28   D    
C84   C97   A    
C124  O11   A    
C24   C83   S    
C128  H123  S    
C61   H42   S    
C30   C31   S    
C59   H36   S    
C133  H134  S    
C44   H144  S    
C6    H56   S    
C41   H135  S    
Cr2   O18   S    
C34   O44   S    
C73   C118  S    
C121  C134  A    
C26   O40   S    
C128  C141  A    
C112  C126  A    
C140  C153  A    
C145  O57   S    
C54   H26   S    
C37   H125  S    
Cr4   O60   S    
C63   H47   S    
C23   H92   S    
C86   C146  S    
C49   H12   S    
C91   O8    A    
C21   H86   S    
C77   C90   A    
C50   H15   S    
C52   H19   S    
C155  H46   S    
C53   H22   S    
C41   O48   S    
C11   H62   S    
C43   H141  S    
C58   H32   S    
C44   H142  S    
C80   O7    A    
C132  H2    S    
C52   O53   S    
C102  O9    A    
C26   H96   S    
C16   H72   S    
C50   C51   S    
C10   H61   S    
C48   H8    S    
C137  H101  S    
C48   C49   S    
C13   O62   A    
C31   H109  S    
Cr3   O18   S    
C29   H105  S    
C103  O40   S    
C31   H111  S    
C62   H45   S    
C134  C148  A    
C20   H82   S    
C24   O17   A    
C39   H130  S    
Cr3   O10   S    
C23   O39   S    
C101  O41   S    
C15   O35   S    
C32   C33   S    
C36   H120  S    
C22   H89   S    
C32   H113  S    
C114  C127  A    
C131  H13   S    
C153  O49   S    
C67   C71   T    
C11   O32   D    
C154  O20   D    
C81   C91   S    
C60   H39   S    
C34   H119  S    
C45   H3    S    
C59   O57   S    
C131  C144  A    
C146  O60   A    
C37   O46   S    
C83   C149  A    
C136  H1    S    
C84   C150  A    
Cr6   O17   S    
C47   H6    S    
C27   H98   S    
C1    O45   A    
C88   C101  A    
C79   C145  A    
C33   H115  S    
C71   C120  S    
C32   H114  S    
C79   C93   A    
C109  C122  A    
C15   C16   S    
C27   H99   S    
C38   H128  S    
C65   C73   T    
C111  O38   S    
C50   H14   S    
C53   H23   S    
C14   H67   S    
C85   C98   A    
C28   H103  S    
C135  O4    A    
C109  O33   S    
C116  C129  A    
C35   C70   T    
C59   H37   S    
C75   C102  S    
C64   H49   S    
C62   H43   S    
C19   H80   S    
C5    O26   D    
C20   H84   S    
C1    O5    A    
C40   H131  S    
C48   O51   S    
Cr4   O11   S    
C28   O41   S    
Cr3   O23   S    
C105  O44   S    
C55   H28   S    
C36   H122  S    
C22   H87   S    
C112  O37   S    
C154  H35   S    
C28   H102  S    
C4    C93   S    
C11   C100  S    
C57   C74   T    
C24   O2    A    
C8    C97   S    
C47   H5    S    
C90   C104  A    
C119  C132  A    
C46   C121  S    
C117  C130  A    
C85   C135  S    
C12   C14   S    
C94   C107  A    
Cr5   O3    S    
C51   H18   S    
C18   H77   S    
C33   H117  S    
C60   H40   S    
C74   C117  S    
C34   H118  S    
C98   C111  A    
Cr1   O5    S    
C113  O10   A    
Cr2   O6    S    
C8    O29   D    
C130  H24   S    
C84   C124  S    
Cr1   O18   S    
C149  O47   S    
C66   C125  S    
C56   H31   S    
C32   O43   S    
C21   O38   S    
C14   H65   S    
C61   H41   S    
C97   C110  A    
C12   H63   S    
C101  C115  A    
C99   C112  A    
C72   C119  S    
C13   O16   A    
C23   C25   S    
Cr3   O56   S    
C17   O36   S    
C75   C88   A    
C155  O21   D    
C30   O42   S    
C40   H133  S    
C69   O6    A    
C8    H59   S    
C113  O34   A    
C17   H75   S    
C76   C142  A    
