data_mof_unit_15299.cif
_audit_creation_date              2012-12-11T14:08:21-0500
_audit_creation_method            fapswitch 2.2
_symmetry_space_group_name_H-M    P1
_symmetry_Int_Tables_number       1
_space_group_crystal_system       triclinic
_cell_length_a                    27.977772
_cell_length_b                    7.197249
_cell_length_c                    17.334203
_cell_angle_alpha                 89.57192
_cell_angle_beta                  101.710092
_cell_angle_gamma                 90.048852
_cell_volume                      3417.7239716

loop_
_atom_site_label
_atom_site_type_symbol
_atom_type_description
_atom_site_fract_x
_atom_site_fract_y
_atom_site_fract_z
_atom_type_partial_charge
O1    O     O_R   0.000700 0.436510 0.857920 -0.526728
O2    O     O_R   0.999300 0.563490 0.142080 -0.534982
O3    O     O_R   0.999300 0.936510 0.642080 -0.529707
O4    O     O_R   0.000700 0.063490 0.357920 -0.530549
O5    O     O_R   0.930080 0.766380 0.721890 -0.538067
O6    O     O_R   0.069920 0.233620 0.278110 -0.531836
O7    O     O_R   0.069920 0.266380 0.778110 -0.531189
O8    O     O_R   0.930080 0.733620 0.221890 -0.526432
C1    C     C_R   0.910350 0.597154 0.713167 0.747849
C2    C     C_R   0.089457 0.402072 0.291962 0.752193
C3    C     C_R   0.089509 0.097440 0.788579 0.747457
C4    C     C_R   0.910598 0.902535 0.207902 0.753448
O9    O     O_R   0.996180 0.766230 0.862310 -0.525880
O10   O     O_R   0.003820 0.233770 0.137690 -0.519284
O11   O     O_R   0.003820 0.266230 0.637690 -0.532184
O12   O     O_R   0.996180 0.733770 0.362310 -0.533574
O13   O     O_R   0.065870 0.936460 0.783500 -0.537728
O14   O     O_R   0.934130 0.063540 0.216500 -0.540613
O15   O     O_R   0.934130 0.436460 0.716500 -0.530798
O16   O     O_R   0.065870 0.563540 0.283500 -0.540685
C5    C     C_R   0.997697 0.595340 0.893958 0.749720
C6    C     C_R   0.002059 0.404559 0.105960 0.746400
C7    C     C_R   0.001059 0.096511 0.605604 0.734137
C8    C     C_R   0.998840 0.903492 0.394369 0.712592
O17   O     O_3   0.022790 0.603020 0.723980 -0.375136
O18   O     O_3   0.977210 0.396980 0.276020 -0.375048
O19   O     O_3   0.977210 0.103020 0.776020 -0.377307
O20   O     O_3   0.022790 0.896980 0.223980 -0.377959
V1    V     V_3+5 0.995770 0.877900 0.754830 1.548572
V2    V     V_3+5 0.004230 0.122100 0.245170 1.549157
V3    V     V_3+5 0.004230 0.377900 0.745170 1.559078
V4    V     V_3+5 0.995770 0.622100 0.254830 1.546992
C9    C     C_2   0.998438 0.083185 0.519182 -0.262875
C10   C     C_2   0.001869 0.916910 0.480895 -0.256509
C11   C     C_2   0.989851 0.573730 0.976044 -0.241464
C12   C     C_2   0.009411 0.425685 0.023629 -0.250239
C13   C     C_R   0.681544 0.845810 0.015474 0.603217
C14   C     C_R   0.323470 0.160279 0.935147 0.593659
C15   C     C_R   0.317739 0.344395 0.489392 0.600168
C16   C     C_R   0.674761 0.647878 0.567869 0.582598
O21   O     O_2   0.705424 0.697159 0.995026 -0.497869
O22   O     O_2   0.297409 0.249274 0.981100 -0.513859
O23   O     O_2   0.293709 0.197023 0.511415 -0.506290
O24   O     O_2   0.700291 0.705463 0.513933 -0.520190
N1    N     N_R   0.706013 0.971272 0.068340 -0.563642
N2    N     N_R   0.299777 0.068863 0.869299 -0.557300
N3    N     N_R   0.293538 0.468353 0.434636 -0.559986
N4    N     N_R   0.698724 0.578484 0.639481 -0.549605
C17   C     C_R   0.682541 0.123646 0.089876 0.612253
C18   C     C_R   0.325633 0.978388 0.821530 0.603988
C19   C     C_R   0.317177 0.619498 0.411545 0.607068
C20   C     C_R   0.672311 0.508057 0.692104 0.597684
C21   C     C_R   0.772389 0.815680 0.162628 -0.104004
C22   C     C_R   0.223776 0.175951 0.782118 -0.104291
C23   C     C_R   0.226777 0.296450 0.348975 -0.113951
C24   C     C_R   0.778569 0.424907 0.692992 -0.126147
C25   C     C_R   0.821946 0.801293 0.200691 -0.062693
C26   C     C_R   0.172517 0.181949 0.759944 -0.061519
C27   C     C_R   0.177493 0.280941 0.309922 -0.072339
C28   C     C_R   0.829814 0.430258 0.716684 -0.070932
C29   C     C_R   0.841429 0.042082 0.112614 -0.174613
C30   C     C_R   0.167438 0.985543 0.872940 -0.176678
C31   C     C_R   0.159200 0.556979 0.379167 -0.143458
C32   C     C_R   0.828926 0.742312 0.661921 -0.135203
C33   C     C_R   0.792131 0.057690 0.076929 -0.046690
C34   C     C_R   0.218527 0.979128 0.893634 -0.056548
C35   C     C_R   0.208159 0.571861 0.416081 -0.029242
C36   C     C_R   0.777947 0.741566 0.646078 -0.047337
C37   C     C_R   0.757273 0.944867 0.101562 0.339743
C38   C     C_R   0.247031 0.074448 0.848376 0.337957
C39   C     C_R   0.242348 0.442566 0.401150 0.331067
C40   C     C_R   0.751913 0.581302 0.659324 0.323468
C41   C     C_R   0.606792 0.025968 0.004617 -0.054665
C42   C     C_R   0.401996 0.072259 0.906244 -0.033693
C43   C     C_R   0.392309 0.524818 0.499611 -0.053981
C44   C     C_R   0.596297 0.577892 0.601008 -0.035497
C45   C     C_R   0.631607 0.871819 0.981956 -0.048230
C46   C     C_R   0.374890 0.164300 0.954662 -0.036470
C47   C     C_R   0.367524 0.371060 0.523397 -0.044349
C48   C     C_R   0.623466 0.657571 0.549282 -0.032322
C49   C     C_R   0.605804 0.745956 0.927571 -0.149395
C50   C     C_R   0.399695 0.256248 0.021938 -0.127332
C51   C     C_R   0.393230 0.246418 0.579385 -0.148634
C52   C     C_R   0.598832 0.741423 0.479211 -0.125926
C53   C     C_R   0.632475 0.152883 0.059018 -0.029238
C54   C     C_R   0.377199 0.977633 0.839353 -0.029240
C55   C     C_R   0.366936 0.649994 0.443228 -0.027799
C56   C     C_R   0.620857 0.497694 0.671956 -0.022476
C57   C     C_R   0.857235 0.914682 0.174608 -0.098735
C58   C     C_R   0.143746 0.087916 0.806742 -0.101691
C59   C     C_R   0.142851 0.412892 0.325636 -0.126719
C60   C     C_R   0.855853 0.588002 0.697133 -0.129706
H1    H     H_    0.867507 0.129893 0.091252 0.136097
H2    H     H_    0.146269 0.912319 0.909380 0.132751
H3    H     H_    0.133828 0.658535 0.393415 0.152425
H4    H     H_    0.847373 0.865670 0.646915 0.164920
H5    H     H_    0.780921 0.158775 0.030182 0.149324
H6    H     H_    0.235984 0.899910 0.944979 0.143332
H7    H     H_    0.219683 0.685529 0.456161 0.154224
H8    H     H_    0.758770 0.866654 0.622496 0.152772
H9    H     H_    0.623448 0.623144 0.910693 0.171409
H10   H     H_    0.379918 0.322739 0.061802 0.168737
H11   H     H_    0.375626 0.123663 0.597078 0.167241
H12   H     H_    0.618669 0.799799 0.437226 0.170734
C61   C     C_R   0.480870 0.964610 0.881197 0.041018
C62   C     C_R   0.530355 0.193628 0.004405 0.018338
C63   C     C_R   0.517455 0.470588 0.626568 0.035288
C64   C     C_R   0.468516 0.692327 0.499206 0.020996
C65   C     C_R   0.478452 0.182116 0.989167 0.078394
C66   C     C_R   0.531241 0.931770 0.914273 0.068266
C67   C     C_R   0.520230 0.679913 0.514738 0.080751
C68   C     C_R   0.467422 0.434174 0.592534 0.062554
C69   C     C_R   0.453870 0.073623 0.925264 0.067358
C70   C     C_R   0.556120 0.051410 0.973928 0.013159
C71   C     C_R   0.544561 0.576921 0.581125 0.068798
C72   C     C_R   0.442716 0.551518 0.531042 0.017368
C73   C     C_R   0.455580 0.889662 0.808125 0.011343
C74   C     C_R   0.557915 0.334684 0.051188 -0.031777
C75   C     C_R   0.542367 0.402600 0.701734 0.009321
C76   C     C_R   0.441294 0.832131 0.450483 -0.033236
C77   C     C_R   0.404303 0.891029 0.790036 -0.181564
C78   C     C_R   0.608089 0.309017 0.079709 -0.207007
C79   C     C_R   0.593528 0.415212 0.722547 -0.185637
C80   C     C_R   0.391308 0.805769 0.421295 -0.208890
O25   O     O_2   0.301588 0.888786 0.757117 -0.504810
O26   O     O_2   0.707470 0.245866 0.141616 -0.497697
O27   O     O_2   0.695411 0.450704 0.764324 -0.514270
O28   O     O_2   0.292711 0.739163 0.357296 -0.501463
C81   C     C_R   0.556569 0.775306 0.894506 -0.037028
C82   C     C_R   0.450525 0.263313 0.039299 -0.094178
C83   C     C_R   0.442306 0.277196 0.613110 -0.040850
C84   C     C_R   0.548098 0.753822 0.462548 -0.097892
H13   H     H_    0.246000 0.246806 0.746637 0.165444
H14   H     H_    0.744955 0.732747 0.182904 0.161701
H15   H     H_    0.759131 0.300479 0.704012 0.171224
H16   H     H_    0.253717 0.199415 0.336276 0.167585
H17   H     H_    0.385493 0.829970 0.735207 0.159584
H18   H     H_    0.628461 0.414949 0.116735 0.164688
H19   H     H_    0.612039 0.362404 0.779557 0.156228
H20   H     H_    0.371103 0.910647 0.382727 0.162734
H21   H     H_    0.537988 0.668784 0.856315 0.155888
H22   H     H_    0.467699 0.327737 0.094055 0.126047
H23   H     H_    0.460900 0.171872 0.652682 0.158702
H24   H     H_    0.530854 0.814899 0.406656 0.124145
C85   C     C_2   0.988435 0.260140 0.475461 0.855122
O29   O     O_2   0.022352 0.352679 0.461398 -0.562987
O30   O     O_R   0.940200 0.315688 0.447432 -0.643335
H25   H     H_    0.938015 0.433599 0.414681 0.310516
C86   C     C_2   0.012876 0.740646 0.524832 0.860526
O31   O     O_2   0.979502 0.645760 0.539358 -0.553833
O32   O     O_R   0.061453 0.688565 0.552502 -0.639576
H26   H     H_    0.064524 0.571105 0.585688 0.314179
C87   C     C_2   0.952150 0.698928 0.997439 0.805135
O33   O     O_2   0.919597 0.634745 0.027274 -0.560400
O34   O     O_R   0.952766 0.888984 0.980469 -0.636778
H27   H     H_    0.925217 0.958974 0.997374 0.282484
C88   C     C_2   0.046373 0.298427 0.001548 0.811616
O35   O     O_2   0.080098 0.361456 0.974260 -0.562965
O36   O     O_R   0.043390 0.107185 0.014319 -0.632564
H28   H     H_    0.070431 0.035400 0.996773 0.281334
C89   C     C_2   0.150616 0.275378 0.684632 0.783982
O37   O     O_2   0.169174 0.416739 0.664330 -0.534311
O38   O     O_R   0.110327 0.196473 0.634824 -0.671027
H29   H     H_    0.100639 0.266487 0.583097 0.302479
C90   C     C_2   0.834665 0.679809 0.271316 0.799305
O39   O     O_2   0.812203 0.535223 0.275051 -0.522812
O40   O     O_R   0.870650 0.734920 0.335334 -0.667711
H30   H     H_    0.873622 0.646840 0.381916 0.303821
C91   C     C_2   0.853817 0.277682 0.768423 0.789680
O41   O     O_2   0.839211 0.118097 0.757277 -0.570553
O42   O     O_R   0.891067 0.317878 0.833090 -0.654757
H31   H     H_    0.903687 0.203033 0.864990 0.307378
C92   C     C_2   0.164579 0.133154 0.250110 0.795331
O43   O     O_2   0.184373 0.981046 0.261128 -0.534007
O44   O     O_R   0.131327 0.169448 0.179776 -0.655923
H32   H     H_    0.125951 0.057865 0.143705 0.305282
C93   C     C_2   0.479910 0.833863 0.743283 0.329102
H33   H     H_    0.460814 0.744963 0.696818 0.092378
O45   O     O_2   0.519755 0.895710 0.737864 -0.542668
C94   C     C_2   0.538189 0.521129 0.063705 0.339058
H34   H     H_    0.556174 0.605452 0.112782 0.053397
O46   O     O_2   0.503581 0.587035 0.017197 -0.523829
C95   C     C_2   0.517476 0.340712 0.765406 0.329268
H35   H     H_    0.536756 0.252139 0.812427 0.088807
O47   O     O_2   0.476879 0.396934 0.769262 -0.542780
C96   C     C_2   0.461267 0.017944 0.436689 0.345663
H36   H     H_    0.443667 0.101714 0.386613 0.050741
O48   O     O_2   0.495653 0.083909 0.483203 -0.521564

loop_
_geom_bond_atom_site_label_1
_geom_bond_atom_site_label_2
_ccdc_geom_bond_type
C84   H24   S    
O42   H31   S    
O1    C5    A    
C88   O35   D    
C23   C27   A    
O19   V1    S    
O13   V1    S    
C91   O41   D    
C64   C76   A    
O3    C7    A    
O38   H29   S    
C61   C66   A    
C21   C37   A    
C89   O37   D    
C49   H9    S    
C92   O43   D    
O7    C3    A    
C17   O26   S    
C90   O39   D    
C25   C57   A    
C62   C70   A    
C28   C91   S    
C32   C36   A    
O9    V1    S    
O10   V2    S    
C14   O22   S    
N4    C20   A    
C86   O32   S    
C74   C78   A    
C55   C80   A    
O4    C8    A    
C29   H1    S    
C25   C90   S    
C23   H16   S    
C31   H3    S    
O1    V3    S    
C44   C71   A    
C66   C81   A    
O2    V4    S    
C1    O15   A    
C63   C68   A    
C77   H17   S    
O3    V1    S    
C73   C77   A    
C85   O30   S    
C76   C80   A    
C20   O27   S    
O30   H25   S    
C73   C93   S    
C24   C40   A    
O2    C6    A    
O32   H26   S    
C16   C48   A    
O14   V2    S    
N1    C17   A    
C87   O34   S    
C44   C56   A    
C65   C69   A    
O11   C7    A    
O15   V3    S    
O12   C8    A    
C62   C74   A    
C91   O42   S    
C61   C73   A    
N4    C40   S    
C56   C79   A    
C1    C60   S    
C63   C75   A    
C89   O38   S    
C10   C86   S    
C29   C57   A    
C85   O29   D    
O5    V1    S    
C28   C60   A    
C31   C35   A    
O34   H27   S    
O7    V3    S    
C30   C34   A    
N1    C37   S    
C48   C52   A    
O8    V4    S    
C19   C55   A    
C4    C57   S    
C20   C56   A    
C78   H18   S    
C2    O16   A    
O40   H30   S    
C21   C25   A    
O18   V4    S    
C15   O23   S    
C14   C46   A    
C7    C9    S    
C42   C69   A    
C13   C45   A    
C52   C84   A    
C8    C10   S    
C41   C70   A    
C24   C28   A    
C36   C40   A    
C11   C12   D    
C15   C47   A    
C88   O36   S    
C95   H35   S    
C36   H8    S    
O5    C1    A    
C17   C53   A    
C11   C87   S    
C46   C50   A    
C49   C81   A    
O36   H28   S    
C22   C38   A    
C45   C49   A    
O8    C4    A    
C63   C71   A    
C54   C77   A    
C22   C26   A    
C9    C10   D    
C50   H10   S    
O9    C5    A    
C53   C78   A    
C18   O25   S    
C75   C95   S    
C42   C54   A    
C26   C58   A    
N3    C39   S    
C92   O44   S    
C51   H11   S    
C12   C88   S    
C43   C55   A    
O6    V2    S    
C2    C59   S    
C75   C79   A    
C30   H2    S    
O10   C6    A    
C52   H12   S    
C79   H19   S    
C27   C59   A    
C50   C82   A    
C19   O28   S    
C13   N1    A    
C68   C72   A    
C24   H15   S    
C83   H23   S    
C94   H34   S    
C15   N3    A    
O16   V4    S    
C61   C69   A    
C16   N4    A    
C66   C70   A    
C3    O13   A    
C94   O46   D    
N2    C38   S    
O17   V3    S    
C80   H20   S    
C21   H14   S    
C44   C48   A    
C27   C92   S    
C76   C96   S    
O6    C2    A    
N3    C19   A    
O11   V3    S    
C5    C11   S    
C35   H7    S    
O12   V4    S    
C6    C12   S    
N2    C18   A    
C64   C67   A    
C34   H6    S    
C95   O47   D    
C51   C83   A    
C96   H36   S    
C33   H5    S    
C41   C53   A    
O44   H32   S    
C86   O31   D    
C47   C51   A    
C22   H13   S    
C3    C58   S    
C64   C72   A    
C34   C38   A    
C43   C47   A    
C33   C37   A    
C30   C58   A    
O20   V2    S    
C93   O45   D    
C32   H4    S    
C35   C39   A    
C68   C83   A    
C13   O21   S    
C82   H22   S    
O4    V2    S    
C14   N2    A    
C18   C54   A    
C29   C33   A    
C67   C84   A    
C16   O24   S    
C81   H21   S    
C31   C59   A    
C90   O40   S    
C93   H33   S    
C42   C46   A    
C4    O14   A    
C65   C82   A    
C41   C45   A    
C67   C71   A    
C43   C72   A    
C32   C60   A    
C87   O33   D    
C26   C89   S    
C96   O48   D    
C23   C39   A    
C9    C85   S    
C62   C65   A    
C74   C94   S    
