data_mof_unit_49487.cif
_audit_creation_date              2012-12-11T14:24:54-0500
_audit_creation_method            fapswitch 2.2
_symmetry_space_group_name_H-M    P1
_symmetry_Int_Tables_number       1
_space_group_crystal_system       triclinic
_cell_length_a                    18.950367
_cell_length_b                    11.032308
_cell_length_c                    18.675399
_cell_angle_alpha                 89.642353
_cell_angle_beta                  90.765631
_cell_angle_gamma                 89.358449
_cell_volume                      3903.72320787

loop_
_atom_site_label
_atom_site_type_symbol
_atom_type_description
_atom_site_fract_x
_atom_site_fract_y
_atom_site_fract_z
_atom_type_partial_charge
C1    C     C_R   0.727338 0.367635 0.142605 0.566370
C2    C     C_R   0.238271 0.881284 0.064923 0.032700
C3    C     C_R   0.603430 0.467426 0.439370 -0.090223
C4    C     C_R   0.943632 0.024521 0.517059 -0.149442
C5    C     C_R   0.126643 0.195755 0.415422 -0.108680
C6    C     C_R   0.398211 0.622937 0.578950 -0.106311
C7    C     C_R   0.589754 0.589845 0.442157 -0.134145
C8    C     C_R   0.942178 0.982091 0.447345 -0.116527
C9    C     C_R   0.114161 0.199699 0.488240 -0.155402
C10   C     C_R   0.414771 0.581032 0.511030 -0.159484
C11   C     C_R   0.630102 0.660623 0.486720 -0.131611
C12   C     C_R   0.880943 0.930864 0.419960 -0.078427
C13   C     C_R   0.250416 0.404604 0.928292 0.022682
C14   C     C_R   0.162029 0.146102 0.536626 -0.103174
C15   C     C_R   0.361675 0.546415 0.463115 -0.113762
C16   C     C_R   0.682216 0.608845 0.530252 -0.082106
C17   C     C_R   0.750961 0.928165 0.427936 0.004280
C18   C     C_R   0.266765 0.005536 0.558606 -0.000363
C19   C     C_R   0.232584 0.500265 0.443815 -0.002725
C20   C     C_R   0.743866 0.421023 0.572518 0.011628
C21   C     C_R   0.707941 0.323654 0.360302 0.574790
C22   C     C_R   0.264867 0.390900 0.652016 0.536438
C23   C     C_R   0.233186 0.885793 0.350467 0.530025
C24   C     C_R   0.738277 0.381304 0.064933 0.030276
C25   C     C_R   0.770239 0.882785 0.646506 0.535993
C26   C     C_R   0.528138 0.157775 0.350601 0.517600
C27   C     C_R   0.466316 0.156850 0.645297 0.539028
C28   C     C_R   0.031879 0.658617 0.352166 0.518164
C29   C     C_R   0.965645 0.654622 0.645493 0.552973
C30   C     C_R   0.742831 0.969454 0.355521 0.525009
C31   C     C_R   0.271427 0.024838 0.636062 0.570161
C32   C     C_R   0.229487 0.519039 0.364815 0.560878
C33   C     C_R   0.758115 0.473127 0.642333 0.540276
C34   C     C_3   0.511062 0.253309 0.969530 -0.127521
C35   C     C_R   0.701634 0.836391 0.970202 0.043424
C36   C     C_3   0.460720 0.270077 0.034201 -0.096200
C37   C     C_3   0.011056 0.753312 0.969536 -0.127226
C38   C     C_3   0.960715 0.770084 0.034210 -0.096655
C39   C     C_3   0.548802 0.149069 0.009939 0.228089
C40   C     C_3   0.411577 0.174144 0.001382 0.210488
C41   C     C_3   0.048793 0.649068 0.009942 0.228343
C42   C     C_3   0.911567 0.674158 0.001392 0.210469
C43   C     C_3   0.499766 0.165389 0.073631 0.042327
C44   C     C_3   0.460740 0.157652 0.937925 0.014073
C45   C     C_3   0.999760 0.665393 0.073636 0.042417
C46   C     C_R   0.299739 0.839474 0.028607 0.008153
C47   C     C_3   0.960729 0.657659 0.937930 0.013985
C48   C     C_R   0.201676 0.336264 0.970246 0.044094
C49   C     C_R   0.799755 0.339518 0.028629 0.007901
C50   C     C_R   0.707912 0.839804 0.045961 0.048238
C51   C     C_R   0.298232 0.837781 0.952784 -0.012903
C52   C     C_R   0.207963 0.339711 0.046006 0.048147
C53   C     C_R   0.269391 0.373996 0.854399 0.539722
C54   C     C_R   0.798261 0.337832 0.952807 -0.011697
C55   C     C_R   0.801044 0.987533 0.035665 -0.104794
C56   C     C_R   0.180501 0.922017 0.950438 -0.154855
C57   C     C_R   0.301060 0.487490 0.035678 -0.105438
C58   C     C_R   0.680514 0.422032 0.950446 -0.153985
C59   C     C_R   0.797988 0.980795 0.962769 -0.122717
C60   C     C_R   0.177688 0.911009 0.023845 -0.098821
C61   C     C_R   0.297997 0.480733 0.962784 -0.122364
C62   C     C_R   0.677697 0.411023 0.023851 -0.099715
C63   C     C_R   0.648332 0.762471 0.940604 -0.132533
C64   C     C_R   0.227339 0.867636 0.142602 0.555879
C65   C     C_R   0.362149 0.797941 0.063723 -0.171413
C66   C     C_R   0.148384 0.262290 0.940676 -0.132342
C67   C     C_R   0.862160 0.297993 0.063760 -0.171582
C68   C     C_R   0.108861 0.186372 0.984187 -0.068066
C69   C     C_R   0.917131 0.245399 0.025168 -0.095815
C70   C     C_R   0.608818 0.686497 0.984081 -0.068071
C71   C     C_R   0.417103 0.745324 0.025114 -0.095583
C72   C     C_R   0.617706 0.685399 0.057918 0.220874
C73   C     C_R   0.410783 0.729903 0.951333 0.229731
C74   C     C_R   0.117764 0.185320 0.058026 0.220797
C75   C     C_R   0.769385 0.874023 0.854387 0.542299
C76   C     C_R   0.910832 0.229998 0.951385 0.229770
C77   C     C_R   0.668477 0.759898 0.088534 -0.064886
C78   C     C_R   0.351441 0.776366 0.915592 -0.086183
C79   C     C_R   0.168553 0.259810 0.088608 -0.065637
C80   C     C_R   0.851491 0.276445 0.915631 -0.085880
C81   C     C_R   0.530308 0.156394 0.145855 0.583288
C82   C     C_R   0.437453 0.151041 0.862623 0.581821
C83   C     C_R   0.030302 0.656395 0.145860 0.581939
C84   C     C_R   0.937451 0.651042 0.862624 0.580205
C85   C     C_R   0.754266 0.922553 0.077795 0.041810
C86   C     C_3   0.449516 0.070499 0.042149 -0.143238
C87   C     C_R   0.243049 0.897576 0.915430 -0.014733
C88   C     C_R   0.254293 0.422508 0.077819 0.040235
C89   C     C_R   0.743067 0.397598 0.915443 -0.013484
C90   C     C_R   0.487887 0.162384 0.569375 -0.006635
C91   C     C_R   0.488077 0.163644 0.418396 -0.008302
C92   C     C_R   0.988618 0.651365 0.570923 0.005733
C93   C     C_R   0.002158 0.671099 0.422848 -0.003851
C94   C     C_R   0.494288 0.052973 0.530219 0.031638
C95   C     C_R   0.479865 0.054924 0.456321 0.041026
C96   C     C_R   0.968583 0.552804 0.524803 0.034149
C97   C     C_3   0.499900 0.053298 0.978026 -0.127065
C98   C     C_R   0.963693 0.575019 0.450858 0.019534
C99   C     C_R   0.479424 0.272152 0.455740 -0.161647
C100  C     C_R   0.478174 0.271525 0.530714 -0.144168
C101  C     C_R   0.031891 0.757916 0.468732 -0.144743
C102  C     C_R   0.020095 0.753192 0.541688 -0.148635
C103  C     C_R   0.511568 0.940205 0.562069 -0.106010
C104  C     C_R   0.462863 0.946485 0.421306 -0.077528
C105  C     C_R   0.955821 0.431844 0.547691 -0.093990
C106  C     C_R   0.928492 0.492293 0.405644 -0.082050
C107  C     C_R   0.927955 0.346622 0.500914 -0.149976
C108  C     C_3   0.949504 0.570512 0.042156 -0.142406
C109  C     C_R   0.911340 0.378073 0.430774 -0.108044
C110  C     C_R   0.500657 0.833606 0.525144 -0.155169
C111  C     C_R   0.473676 0.836509 0.455566 -0.136469
C112  C     C_R   0.760532 0.932734 0.575164 0.003702
C113  C     C_R   0.259313 0.948895 0.413439 -0.009953
C114  C     C_R   0.235183 0.468588 0.592869 -0.006951
C115  C     C_R   0.707384 0.328774 0.439227 -0.007138
C116  C     C_R   0.821260 0.960134 0.532865 0.042844
C117  C     C_R   0.222228 0.051512 0.438183 0.031582
C118  C     C_R   0.281021 0.550340 0.560649 0.037397
C119  C     C_3   0.999887 0.553303 0.978031 -0.127089
C120  C     C_R   0.665400 0.419313 0.471265 0.038709
C121  C     C_R   0.818179 0.932684 0.460226 0.016572
C122  C     C_R   0.217828 0.069935 0.512649 0.026386
C123  C     C_R   0.291404 0.536779 0.486742 0.031954
C124  C     C_R   0.696433 0.483208 0.526555 0.034931
C125  C     C_R   0.689931 0.934186 0.469788 -0.162351
C126  C     C_R   0.312994 0.919734 0.529315 -0.140178
C127  C     C_R   0.171413 0.462688 0.479967 -0.142943
C128  C     C_R   0.772225 0.308865 0.551370 -0.149854
C129  C     C_R   0.742921 0.968566 0.149604 0.546887
C130  C     C_R   0.750398 0.904690 0.928266 0.021327
C131  C     C_R   0.256591 0.963473 0.848675 0.543295
C132  C     C_R   0.242927 0.468554 0.149615 0.554810
C133  C     C_R   0.756596 0.463482 0.848683 0.534343
C134  C     C_R   0.695061 0.926131 0.543153 -0.191551
C135  C     C_R   0.306024 0.886535 0.458711 -0.156256
C136  C     C_R   0.174750 0.437478 0.553922 -0.150175
C137  C     C_R   0.758301 0.267764 0.481714 -0.157042
C138  C     C_R   0.883894 0.015182 0.559373 -0.086919
C139  C     C_R   0.182594 0.126696 0.390581 -0.070716
C140  C     C_R   0.329579 0.615510 0.602146 -0.075406
Cr1   Cr    Cr6+3 0.772820 0.169820 0.252640 1.000617
Cr2   Cr    Cr6+3 0.383280 0.011130 0.749340 0.994649
Cr3   Cr    Cr6+3 0.116720 0.511130 0.250660 1.009756
Cr4   Cr    Cr6+3 0.883280 0.511130 0.749340 0.993449
Cr5   Cr    Cr6+3 0.227180 0.169820 0.747360 0.985379
Cr6   Cr    Cr6+3 0.272820 0.669820 0.252640 0.999976
Cr7   Cr    Cr6+3 0.727180 0.669820 0.747360 1.000654
Cr8   Cr    Cr6+3 0.615040 0.323610 0.249150 1.013179
Cr9   Cr    Cr6+3 0.384960 0.323610 0.750850 1.016265
Cr10  Cr    Cr6+3 0.115040 0.823610 0.249150 1.015478
Cr11  Cr    Cr6+3 0.884960 0.823610 0.750850 1.017360
Cr12  Cr    Cr6+3 0.616720 0.011130 0.250660 1.013728
H1    H     H_    0.472385 0.356438 0.426941 0.104776
H2    H     H_    0.888623 0.311977 0.395007 0.145481
H3    H     H_    0.515044 0.749259 0.550753 0.115288
H4    H     H_    0.461924 0.754830 0.426807 0.104380
H5    H     H_    0.637690 0.943074 0.445869 0.164506
H6    H     H_    0.350691 0.869781 0.562292 0.166405
H7    H     H_    0.123198 0.444372 0.450524 0.152064
H8    H     H_    0.808661 0.259280 0.586074 0.116234
H9    H     H_    0.886640 0.058205 0.611152 0.129800
H10   H     H_    0.191412 0.125081 0.333400 0.123133
H11   H     H_    0.318440 0.637533 0.657389 0.119712
H12   H     H_    0.468651 0.355863 0.558368 0.155878
H13   H     H_    0.573904 0.417739 0.400791 0.157547
H14   H     H_    0.648875 0.912864 0.575055 0.118506
H15   H     H_    0.333740 0.806370 0.440781 0.152105
H16   H     H_    0.132301 0.390598 0.579961 0.113948
H17   H     H_    0.788775 0.193260 0.460320 0.145843
H18   H     H_    0.990854 0.066102 0.538286 0.106604
H19   H     H_    0.092614 0.245314 0.378245 0.121421
H20   H     H_    0.438793 0.651486 0.616155 0.104199
H21   H     H_    0.550167 0.629564 0.407018 0.099156
H22   H     H_    0.988192 0.990500 0.414055 0.122120
H23   H     H_    0.065250 0.828987 0.448335 0.149600
H24   H     H_    0.069685 0.251564 0.507615 0.103834
H25   H     H_    0.468825 0.574445 0.495700 0.110228
H26   H     H_    0.619378 0.754558 0.488033 0.132165
H27   H     H_    0.881268 0.898667 0.365285 0.126020
H28   H     H_    0.151572 0.165060 0.591648 0.163292
H29   H     H_    0.378798 0.515335 0.411630 0.146830
H30   H     H_    0.713550 0.668141 0.563052 0.161159
H31   H     H_    0.536615 0.326247 0.938553 0.127370
H32   H     H_    0.443633 0.357119 0.058303 0.140764
H33   H     H_    0.036610 0.826249 0.938560 0.127458
H34   H     H_    0.038219 0.826175 0.575594 0.133539
H35   H     H_    0.943634 0.857127 0.058315 0.140218
H36   H     H_    0.423720 0.002047 0.075792 0.124925
H37   H     H_    0.517401 0.965479 0.955125 0.152485
H38   H     H_    0.923710 0.502077 0.075809 0.125895
H39   H     H_    0.017385 0.465480 0.955133 0.152486
H40   H     H_    0.839121 0.048301 0.058924 0.152185
H41   H     H_    0.134776 0.956087 0.921171 0.128684
H42   H     H_    0.339127 0.548282 0.058929 0.152086
H43   H     H_    0.634788 0.456095 0.921177 0.128646
H44   H     H_    0.634267 0.763394 0.884573 0.158293
H45   H     H_    0.534979 0.932732 0.615025 0.135660
H46   H     H_    0.371166 0.808222 0.120412 0.142798
H47   H     H_    0.134326 0.263141 0.884644 0.158207
H48   H     H_    0.871169 0.308280 0.120450 0.144017
H49   H     H_    0.836464 0.031222 0.933265 0.163648
H50   H     H_    0.127060 0.925967 0.048240 0.205406
H51   H     H_    0.336458 0.531174 0.933272 0.163710
H52   H     H_    0.627065 0.425966 0.048240 0.204808
H53   H     H_    0.072613 0.124087 0.960280 0.197081
H54   H     H_    0.963593 0.212593 0.053399 0.189349
H55   H     H_    0.572587 0.624215 0.960145 0.197208
H56   H     H_    0.442486 0.946678 0.366806 0.127360
H57   H     H_    0.463565 0.712500 0.053336 0.189378
H58   H     H_    0.678097 0.752349 0.145613 0.108617
H59   H     H_    0.345565 0.759262 0.858824 0.113129
H60   H     H_    0.178191 0.252287 0.145689 0.103404
H61   H     H_    0.845634 0.259341 0.858863 0.113029
H62   H     H_    0.639534 0.128102 0.967120 0.318030
H63   H     H_    0.321669 0.110547 0.973541 0.323942
H64   H     H_    0.139522 0.628078 0.967120 0.318007
H65   H     H_    0.821724 0.611065 0.972877 0.324114
H66   H     H_    0.087678 0.123110 0.150263 0.323918
H67   H     H_    0.971652 0.396153 0.599294 0.141596
H68   H     H_    0.949275 0.162633 0.863853 0.314851
H69   H     H_    0.587593 0.623121 0.150126 0.327217
H70   H     H_    0.449176 0.662464 0.863795 0.315279
H71   H     H_    0.918145 0.513241 0.349708 0.126796
H72   H     H_    0.918541 0.256096 0.519700 0.110218
O1    O     O_R   0.788190 0.043000 0.172520 -0.528671
O2    O     O_R   0.454170 0.051610 0.669840 -0.533047
O3    O     O_R   0.045830 0.551610 0.330160 -0.538605
O4    O     O_R   0.954170 0.551610 0.669840 -0.539246
O5    O     O_R   0.681920 0.959720 0.327070 -0.510115
O6    O     O_R   0.318080 0.959720 0.672930 -0.512585
O7    O     O_R   0.181920 0.459720 0.327070 -0.510910
O8    O     O_R   0.818080 0.459720 0.672930 -0.508355
O9    O     O_3   0.668190 0.168190 0.250820 -0.266898
O10   O     O_3   0.331810 0.168190 0.749180 -0.276887
O11   O     O_3   0.168190 0.668190 0.250820 -0.255571
O12   O     O_R   0.211810 0.043000 0.827480 -0.514667
O13   O     O_3   0.831810 0.668190 0.749180 -0.261054
O14   O     O_R   0.766240 0.292300 0.176860 -0.507081
O15   O     O_R   0.233760 0.292300 0.823140 -0.518013
O16   O     O_R   0.266240 0.792300 0.176860 -0.512944
O17   O     O_R   0.733760 0.792300 0.823140 -0.515278
O18   O     O_R   0.670310 0.409160 0.168720 -0.504549
O19   O     O_R   0.329690 0.409160 0.831280 -0.525180
O20   O     O_R   0.170310 0.909160 0.168720 -0.512674
O21   O     O_R   0.829690 0.909160 0.831280 -0.523205
O22   O     O_R   0.556160 0.251900 0.173380 -0.491668
O23   O     O_R   0.288190 0.543000 0.172520 -0.523474
O24   O     O_R   0.443840 0.251900 0.826620 -0.490688
O25   O     O_R   0.056160 0.751900 0.173380 -0.490891
O26   O     O_R   0.943840 0.751900 0.826620 -0.492680
O27   O     O_R   0.545410 0.050140 0.168240 -0.505147
O28   O     O_R   0.454590 0.050140 0.831760 -0.525133
O29   O     O_R   0.045410 0.550140 0.168240 -0.505967
O30   O     O_R   0.954590 0.550140 0.831760 -0.525189
O31   O     O_R   0.681530 0.958350 0.176970 -0.490903
O32   O     O_R   0.318470 0.958350 0.823030 -0.520231
O33   O     O_R   0.181530 0.458350 0.176970 -0.490432
O34   O     O_R   0.711810 0.543000 0.827480 -0.516985
O35   O     O_R   0.818470 0.458350 0.823030 -0.524400
O36   O     O_R   0.788610 0.044480 0.334450 -0.541071
O37   O     O_R   0.211390 0.044480 0.665550 -0.537093
O38   O     O_R   0.288610 0.544480 0.334450 -0.537034
O39   O     O_R   0.711390 0.544480 0.665550 -0.526583
O40   O     O_R   0.766630 0.293670 0.326970 -0.512041
O41   O     O_R   0.233370 0.293670 0.673030 -0.530873
O42   O     O_R   0.266630 0.793670 0.326970 -0.523775
O43   O     O_R   0.733370 0.793670 0.673030 -0.514335
O44   O     O_R   0.670730 0.410640 0.330640 -0.523266
O45   O     O_R   0.556550 0.253260 0.323480 -0.544506
O46   O     O_R   0.329270 0.410640 0.669360 -0.514936
O47   O     O_R   0.170730 0.910640 0.330640 -0.530563
O48   O     O_R   0.829270 0.910640 0.669360 -0.534573
O49   O     O_3   0.622087 0.135680 0.016706 -0.689349
O50   O     O_3   0.338343 0.186502 0.995737 -0.706774
O51   O     O_3   0.122078 0.635671 0.016706 -0.689211
O52   O     O_3   0.838329 0.686496 0.995792 -0.706621
O53   O     O_3   0.076010 0.111000 0.098900 -0.739207
O54   O     O_3   0.961656 0.165388 0.915581 -0.749296
O55   O     O_3   0.575954 0.611025 0.098758 -0.739061
O56   O     O_R   0.443450 0.253260 0.676520 -0.493410
O57   O     O_3   0.461576 0.665232 0.915519 -0.749022
O58   O     O_R   0.056550 0.753260 0.323480 -0.514781
O59   O     O_R   0.943450 0.753260 0.676520 -0.489194
O60   O     O_R   0.545830 0.051610 0.330160 -0.529306

loop_
_geom_bond_atom_site_label_1
_geom_bond_atom_site_label_2
_ccdc_geom_bond_type
H65   O52   S    
C74   O53   S    
C55   C59   A    
C140  H11   S    
C28   O58   A    
C69   H54   S    
C102  H34   S    
C16   H30   S    
C58   H43   S    
C9    H24   S    
C103  H45   S    
Cr9   O56   S    
C40   C86   S    
C110  C111  A    
C38   C45   S    
C25   C112  S    
C85   C129  S    
C37   H33   S    
C33   O8    A    
C40   C44   S    
C45   C108  S    
C92   C102  A    
C42   O52   S    
Cr5   O10   S    
C83   O25   A    
C17   C30   S    
C117  C139  A    
C81   O27   A    
H70   O57   S    
C118  C140  A    
C19   C32   S    
C25   O43   A    
C79   H60   S    
C116  C121  A    
C127  C136  A    
C46   C65   A    
C67   H48   S    
C93   C101  A    
C71   C73   A    
Cr6   O23   S    
Cr11  O21   S    
C37   C38   S    
C75   O17   A    
C23   C113  S    
C26   O45   A    
Cr9   O19   S    
C109  H2    S    
C18   C122  A    
C20   C33   S    
C60   H50   S    
C133  O34   A    
Cr6   O16   S    
C74   C79   A    
Cr7   O39   S    
C50   C77   A    
C139  H10   S    
Cr3   O3    S    
C132  O23   A    
C57   C61   A    
C3    C7    A    
C98   C106  A    
C82   O24   A    
C31   O37   A    
Cr7   O34   S    
C16   C124  A    
C51   C78   A    
Cr1   O36   S    
C125  H5    S    
C58   C89   A    
C64   O16   A    
C48   C52   A    
Cr1   O9    S    
C113  C135  A    
Cr5   O12   S    
C41   C45   S    
C63   H44   S    
C35   C63   A    
C18   C31   S    
C14   H28   S    
H63   O50   S    
C6    H20   S    
C105  C107  A    
C19   C123  A    
C4    H18   S    
C27   C90   S    
C103  C110  A    
C30   O36   A    
C82   O28   A    
Cr9   O46   S    
C8    H22   S    
Cr2   O6    S    
Cr7   O17   S    
C68   C74   A    
C99   H1    S    
C92   C96   A    
Cr2   O32   S    
C69   C76   A    
Cr8   O9    S    
C87   C131  S    
C86   C97   S    
C110  H3    S    
C12   C121  A    
C115  C137  A    
C71   H57   S    
C96   C98   A    
C37   C47   S    
C52   C79   A    
C26   O60   A    
C50   C85   A    
C97   H37   S    
Cr8   O18   S    
C108  H38   S    
C45   C83   S    
C5    C139  A    
Cr11  O26   S    
C89   C133  S    
C34   C39   S    
C52   C88   A    
C70   H55   S    
Cr4   O30   S    
C46   C51   A    
C117  C122  A    
C5    C9    A    
C106  H71   S    
C8    C12   A    
C34   H31   S    
C35   C130  A    
C62   H52   S    
C77   H58   S    
C113  C117  A    
Cr9   O24   S    
Cr5   O37   S    
C43   C81   S    
C101  H23   S    
C112  C116  A    
C3    H13   S    
C107  H72   S    
C73   O57   S    
Cr6   O11   S    
C24   C62   A    
C10   H25   S    
C81   O22   A    
C76   C80   A    
C80   H61   S    
C57   H42   S    
C91   C99   A    
C18   C126  A    
H68   O54   S    
C34   C36   S    
C37   C41   S    
C20   C124  A    
C1    O18   A    
C91   C95   A    
C65   H46   S    
C22   C114  S    
C1    C24   S    
Cr3   O29   S    
C129  O1    A    
C135  H15   S    
Cr5   O41   S    
C29   O4    A    
Cr3   O7    S    
Cr12  O60   S    
C106  C109  A    
C125  C134  A    
C58   C62   A    
C96   C105  A    
C86   H36   S    
C101  C102  A    
C14   C122  A    
Cr3   O33   S    
C21   C115  S    
C53   O15   A    
C23   O47   A    
C30   O5    A    
C44   C82   S    
C2    C60   A    
Cr11  O48   S    
C39   C97   S    
Cr10  O11   S    
Cr4   O35   S    
C21   O44   A    
C129  O31   A    
C134  H14   S    
Cr2   O2    S    
C54   C80   A    
C75   C130  S    
C39   O49   S    
Cr10  O20   S    
C107  C109  A    
C108  C119  S    
Cr8   O45   S    
C28   O3    A    
C90   C94   A    
C13   C53   S    
Cr7   O13   S    
Cr2   O28   S    
C84   O26   A    
C53   O19   A    
C131  O32   A    
Cr12  O9    S    
C26   C91   S    
C56   C60   A    
C28   C93   S    
C55   C85   A    
C9    C14   A    
C104  C111  A    
C11   C16   A    
C21   O40   A    
Cr1   O14   S    
Cr8   O22   S    
C100  H12   S    
C47   C84   S    
C41   C119  S    
C27   O56   A    
C17   C121  A    
C126  C135  A    
C43   C86   S    
Cr4   O8    S    
Cr10  O47   S    
C6    C10   A    
Cr12  O31   S    
C20   C128  A    
C132  O33   A    
C64   O20   A    
C131  O12   A    
C33   O39   A    
C55   H40   S    
Cr8   O44   S    
C22   O41   A    
H66   O53   S    
C15   H29   S    
C112  C134  A    
H64   O51   S    
Cr4   O13   S    
Cr6   O38   S    
C138  H9    S    
C118  C123  A    
C104  H56   S    
C6    C140  A    
C94   C95   A    
C4    C138  A    
C133  O35   A    
C36   C43   S    
C78   H59   S    
C29   C92   S    
C49   C54   A    
C66   C68   A    
C31   O6    A    
C59   C130  A    
C4    C8    A    
C2    C46   A    
C7    C11   A    
C15   C123  A    
C83   O29   A    
C119  H39   S    
C38   C42   S    
C10   C15   A    
C38   H35   S    
H62   O49   S    
C7    H21   S    
Cr10  O58   S    
Cr3   O11   S    
Cr6   O42   S    
C73   C78   A    
C36   H32   S    
C111  H4    S    
C137  H17   S    
C66   H47   S    
C75   O21   A    
C22   O46   A    
C47   C119  S    
C32   O7    A    
C114  C136  A    
C90   C100  A    
C2    C64   S    
C116  C138  A    
C126  H6    S    
Cr1   O1    S    
Cr11  O13   S    
C36   C40   S    
C34   C44   S    
C54   C89   A    
Cr7   O43   S    
C51   C87   A    
C56   C87   A    
C39   C43   S    
C136  H16   S    
C105  H67   S    
C65   C71   A    
C67   C69   A    
C128  C137  A    
C72   C77   A    
Cr11  O59   S    
C44   C97   S    
C59   H49   S    
C99   C100  A    
C63   C70   A    
C40   O50   S    
C29   O59   A    
C35   C50   A    
C5    H19   S    
C11   H26   S    
C32   O38   A    
C114  C118  A    
C84   O30   A    
Cr1   O40   S    
H69   O55   S    
C88   C132  S    
C127  H7    S    
C95   C104  A    
C128  H8    S    
Cr10  O25   S    
Cr12  O5    S    
C24   C49   A    
C49   C67   A    
C41   O51   S    
C94   C103  A    
C13   C48   A    
C27   O2    A    
C1    O14   A    
C23   O42   A    
Cr9   O10   S    
C57   C88   A    
C76   O54   S    
C72   O55   S    
C48   C66   A    
C61   H51   S    
C17   C125  A    
Cr5   O15   S    
C19   C127  A    
C42   C47   S    
C25   O48   A    
C3    C120  A    
C56   H41   S    
Cr2   O10   S    
C12   H27   S    
C13   C61   A    
C115  C120  A    
C68   H53   S    
Cr4   O4    S    
C70   C72   A    
C42   C108  S    
C93   C98   A    
Cr12  O27   S    
C120  C124  A    
