data_mof_unit_34700.cif
_audit_creation_date              2012-12-10T19:11:30-0500
_audit_creation_method            fapswitch 2.2
_symmetry_space_group_name_H-M    P1
_symmetry_Int_Tables_number       1
_space_group_crystal_system       triclinic
_cell_length_a                    10.693711
_cell_length_b                    9.879459
_cell_length_c                    10.509481
_cell_angle_alpha                 90.941679
_cell_angle_beta                  89.867434
_cell_angle_gamma                 90.005379
_cell_volume                      1110.15355382

loop_
_atom_site_label
_atom_site_type_symbol
_atom_type_description
_atom_site_fract_x
_atom_site_fract_y
_atom_site_fract_z
_atom_type_partial_charge
C1    C     C_R   0.257851 0.500367 0.503889 0.854939
C2    C     C_3   0.498640 0.495221 0.123724 -0.104237
C3    C     C_3   0.068752 0.637758 0.564136 0.137768
C4    C     C_3   0.070402 0.386598 0.594782 0.194170
C5    C     C_3   0.926447 0.639317 0.553688 -0.481903
C6    C     C_3   0.926671 0.392955 0.602657 -0.459013
C7    C     C_3   0.069022 0.479383 0.365825 0.838909
C8    C     C_3   0.120177 0.501093 0.505265 0.010121
C9    C     C_3   0.877403 0.499527 0.508940 -0.045537
C10   C     C_3   0.924676 0.466636 0.372513 -0.421306
C11   C     C_3   0.371603 0.078939 0.469755 -0.068529
C12   C     C_3   0.376287 0.917657 0.453721 -0.110112
C13   C     C_3   0.588045 0.079890 0.396049 0.439771
C14   C     C_3   0.601198 0.916961 0.410141 0.438597
C15   C     C_3   0.533437 0.081756 0.626788 0.552622
C16   C     C_3   0.518145 0.918597 0.629694 0.703247
C17   C     C_R   0.498627 0.498600 0.258123 0.901458
C18   C     C_R   0.741460 0.499997 0.506316 0.894789
C19   C     C_R   0.501832 0.501015 0.742263 0.882383
C20   C     C_3   0.406780 0.578912 0.045613 -0.205096
C21   C     C_3   0.480140 0.369139 0.037880 -0.180759
C22   C     C_3   0.389283 0.453771 0.956149 -0.291322
C23   C     C_3   0.501747 0.502269 0.877666 -0.028248
C24   C     C_3   0.519645 0.623590 0.966817 0.489216
C25   C     C_3   0.590676 0.419969 0.958541 0.414272
C26   C     C_3   0.612033 0.543003 0.046886 -0.313741
H1    H     H_    0.299234 0.418015 0.915320 0.173017
H2    H     H_    0.878858 0.533937 0.302531 0.129258
H3    H     H_    0.895438 0.361818 0.345514 0.212931
H4    H     H_    0.312008 0.097984 0.555240 0.209159
H5    H     H_    0.303445 0.879486 0.518293 0.236353
H6    H     H_    0.332290 0.645492 0.085604 0.186531
H7    H     H_    0.465034 0.264112 0.070411 0.181949
H8    H     H_    0.702297 0.579013 0.087047 0.154227
H9    H     H_    0.095743 0.643598 0.666694 0.113970
H10   H     H_    0.109664 0.404033 0.692139 0.073591
H11   H     H_    0.884727 0.669791 0.647071 0.197253
H12   H     H_    0.897328 0.420338 0.701513 0.177046
H13   H     H_    0.899269 0.715319 0.482794 0.235638
H14   H     H_    0.886568 0.291606 0.581047 0.230430
N1    N     N_3   0.499750 0.138610 0.497240 -0.101770
N2    N     N_3   0.499750 0.861390 0.497240 -0.093341
O1    O     O_R   0.314910 0.616040 0.499970 -0.552803
O2    O     O_R   0.314910 0.383960 0.499970 -0.558851
O3    O     O_R   0.500080 0.616020 0.313900 -0.541199
O4    O     O_R   0.500080 0.383980 0.313900 -0.576438
O5    O     O_R   0.685320 0.616040 0.499930 -0.572088
O6    O     O_R   0.685320 0.383960 0.499930 -0.635458
O7    O     O_R   0.500150 0.616060 0.686000 -0.524707
O8    O     O_R   0.500150 0.383940 0.686000 -0.585898
Zn1   Zn    Zn3+2 0.500150 0.654960 0.499940 1.079017
Zn2   Zn    Zn3+2 0.500150 0.345040 0.499940 1.018872
N3    N     N_3   0.302982 0.148917 0.368789 -0.319479
H15   H     H_    0.209222 0.119556 0.374567 0.226719
H16   H     H_    0.328742 0.122688 0.276416 0.222771
N4    N     N_3   0.339544 0.863798 0.327771 -0.330610
H17   H     H_    0.243116 0.876407 0.316537 0.196107
H18   H     H_    0.381454 0.915621 0.253614 0.241593
O9    O     O_3   0.536663 0.107511 0.275542 -0.767492
H19   H     H_    0.599465 0.092581 0.207126 0.318829
O10   O     O_3   0.587730 0.854102 0.289422 -0.726581
H20   H     H_    0.659085 0.879202 0.234076 0.301247
O11   O     O_3   0.657172 0.116037 0.659858 -0.852310
H21   H     H_    0.661638 0.215148 0.673063 0.409460
O12   O     O_3   0.623002 0.856379 0.685118 -0.707372
H22   H     H_    0.639859 0.902237 0.767959 0.367990
O13   O     O_3   0.452909 0.139179 0.719943 -0.757068
H23   H     H_    0.492465 0.128759 0.804703 0.351264
O14   O     O_3   0.412858 0.883101 0.704192 -0.760691
H24   H     H_    0.428238 0.909791 0.793956 0.367594
N5    N     N_3   0.710573 0.149441 0.397723 -0.407275
H25   H     H_    0.765821 0.116730 0.320949 0.130485
H26   H     H_    0.764821 0.134032 0.477468 0.194361
N6    N     N_3   0.726375 0.877729 0.456056 -0.413687
H27   H     H_    0.794125 0.893203 0.385882 0.125543
H28   H     H_    0.756926 0.933092 0.534778 0.213579
O15   O     O_3   0.541450 0.756056 0.929748 -0.773007
H29   H     H_    0.544627 0.810463 0.009782 0.331453
O16   O     O_3   0.685799 0.338059 0.908164 -0.782814
H30   H     H_    0.725221 0.295082 0.982592 0.333974
O17   O     O_3   0.115778 0.752416 0.503282 -0.761418
H31   H     H_    0.091519 0.832222 0.556616 0.333304
O18   O     O_3   0.106499 0.257345 0.550934 -0.719813
H32   H     H_    0.096184 0.194899 0.623316 0.330798
O19   O     O_3   0.105433 0.587486 0.286758 -0.789463
H33   H     H_    0.046746 0.664389 0.298256 0.350056
O20   O     O_3   0.115758 0.358019 0.312014 -0.738942
H34   H     H_    0.198772 0.377206 0.273747 0.351750

loop_
_geom_bond_atom_site_label_1
_geom_bond_atom_site_label_2
_ccdc_geom_bond_type
C7    C10   S    
O20   H34   S    
C4    H10   S    
C5    H11   S    
C1    C8    S    
C10   H3    S    
C4    C8    S    
C18   O5    A    
C6    C9    S    
C13   N1    S    
O17   H31   S    
C7    C8    S    
N3    H15   S    
N6    H28   S    
C14   N6    S    
C24   C26   S    
C21   H7    S    
O3    Zn1   S    
C15   C16   S    
O4    Zn2   S    
N4    H17   S    
C12   N2    S    
C26   H8    S    
C7    O20   S    
C20   C24   S    
C11   H4    S    
O7    Zn1   S    
C3    O17   S    
O8    Zn2   S    
C23   C24   S    
C6    H12   S    
C9    C10   S    
N1    Zn2   S    
C11   N3    S    
O15   H29   S    
N2    Zn1   S    
C14   N2    S    
O2    Zn2   S    
O9    H19   S    
C21   C22   S    
C2    C17   S    
O14   H24   S    
C1    O1    A    
N3    H16   S    
N6    H27   S    
C2    C20   S    
O13   H23   S    
C17   O4    A    
C15   N1    S    
C4    C6    S    
C3    C8    S    
N5    H26   S    
O5    Zn1   S    
C13   N5    S    
C25   C26   S    
O19   H33   S    
C14   O10   S    
O16   H30   S    
C19   C23   S    
C5    C9    S    
C19   O7    A    
C1    O2    A    
O18   H32   S    
C3    H9    S    
C15   O13   S    
C2    C21   S    
C2    C26   S    
C12   N4    S    
C20   C22   S    
C22   H1    S    
C5    H13   S    
C12   H5    S    
C6    H14   S    
C16   N2    S    
C20   H6    S    
C10   H2    S    
C21   C25   S    
C25   O16   S    
C16   O14   S    
C17   O3    A    
C3    C5    S    
C18   O6    A    
C11   C12   S    
C13   O9    S    
N5    H25   S    
C19   O8    A    
O1    Zn1   S    
C7    O19   S    
C4    O18   S    
N4    H18   S    
C11   N1    S    
C23   C25   S    
O10   H20   S    
O11   H21   S    
C9    C18   S    
O6    Zn2   S    
O12   H22   S    
C24   O15   S    
C15   O11   S    
C22   C23   S    
C16   O12   S    
C13   C14   S    
