data_mof_unit_61904.cif
_audit_creation_date              2013-03-05T16:20:33-0500
_audit_creation_method            fapswitch 2.2
_symmetry_space_group_name_H-M    P1
_symmetry_Int_Tables_number       1
_space_group_crystal_system       triclinic
_cell_length_a                    38.906098
_cell_length_b                    38.905959
_cell_length_c                    18.243034
_cell_angle_alpha                 90.000218
_cell_angle_beta                  90.000738
_cell_angle_gamma                 90.000274
_cell_volume                      27614.0984378

loop_
_atom_site_label
_atom_site_type_symbol
_atom_site_description
_atom_site_fract_x
_atom_site_fract_y
_atom_site_fract_z
_atom_type_partial_charge
O1    O     O_R   0.550910 0.028770 0.500030 -0.591916
O2    O     O_R   0.971230 0.550910 0.500030 -0.591908
O3    O     O_R   0.449090 0.971230 0.500030 -0.591978
O4    O     O_R   0.028770 0.449090 0.500030 -0.591923
O5    O     O_R   0.449090 0.028770 0.499970 -0.591997
O6    O     O_R   0.028770 0.550910 0.499970 -0.591913
O7    O     O_R   0.550910 0.971230 0.499970 -0.591946
O8    O     O_R   0.971230 0.449090 0.499970 -0.591928
O9    O     O_R   0.050910 0.528770 0.000030 -0.591958
O10   O     O_R   0.471230 0.050910 0.000030 -0.591983
O11   O     O_R   0.949090 0.471230 0.000030 -0.591955
O12   O     O_R   0.528770 0.949090 0.000030 -0.591944
O13   O     O_R   0.949090 0.528770 0.999970 -0.591956
O14   O     O_R   0.528770 0.050910 0.999970 -0.592019
O15   O     O_R   0.050910 0.471230 0.999970 -0.591964
O16   O     O_R   0.471230 0.949090 0.999970 -0.591922
C1    C     C_R   0.567090 0.000000 0.500000 0.983684
C2    C     C_R   0.000000 0.567090 0.500000 0.983803
C3    C     C_R   0.432913 1.000000 0.500000 0.984502
C4    C     C_R   1.000000 0.432911 0.500001 0.983915
C5    C     C_R   0.067089 0.500000 1.000000 0.984093
C6    C     C_R   0.500000 0.067087 0.000001 0.984492
C7    C     C_R   0.932911 0.500000 0.000000 0.984030
C8    C     C_R   0.500000 0.932910 0.999999 0.983700
O17   O     O_R   0.499990 0.028770 0.607330 -0.595874
O18   O     O_R   0.971230 0.499990 0.607330 -0.596031
O19   O     O_R   0.500010 0.971230 0.607330 -0.596285
O20   O     O_R   0.028770 0.500010 0.607330 -0.596067
O21   O     O_R   0.500010 0.028770 0.392670 -0.596182
O22   O     O_R   0.028770 0.499990 0.392670 -0.596017
O23   O     O_R   0.499990 0.971230 0.392670 -0.596012
O24   O     O_R   0.971230 0.500010 0.392670 -0.596085
O25   O     O_R   0.999990 0.528770 0.107330 -0.596129
O26   O     O_R   0.471230 0.999990 0.107330 -0.596188
O27   O     O_R   0.000010 0.471230 0.107330 -0.596081
O28   O     O_R   0.528770 0.000010 0.107330 -0.596008
O29   O     O_R   0.000010 0.528770 0.892670 -0.596107
O30   O     O_R   0.528770 0.999990 0.892670 -0.596331
O31   O     O_R   0.999990 0.471230 0.892670 -0.596104
O32   O     O_R   0.471230 0.000010 0.892670 -0.595869
C9    C     C_R   0.500007 1.000000 0.641030 0.986716
C10   C     C_R   0.000000 0.500001 0.641029 0.986399
C11   C     C_R   0.500006 1.000000 0.358971 0.986640
C12   C     C_R   1.000000 0.500001 0.358971 0.986395
C13   C     C_R   1.000000 0.500000 0.141030 0.986661
C14   C     C_R   0.500000 0.999994 0.141029 0.986696
C15   C     C_R   0.999999 0.500000 0.858970 0.986665
C16   C     C_R   0.500000 0.999994 0.858970 0.986711
Zn1   Zn    Zn3+2 0.500000 0.038410 0.500000 1.159249
Zn2   Zn    Zn3+2 0.961590 0.500000 0.500000 1.159211
Zn3   Zn    Zn3+2 0.500000 0.961590 0.500000 1.159065
Zn4   Zn    Zn3+2 0.038410 0.500000 0.500000 1.159235
Zn5   Zn    Zn3+2 0.000000 0.538410 0.000000 1.159096
Zn6   Zn    Zn3+2 0.461590 0.000000 0.000000 1.159234
Zn7   Zn    Zn3+2 0.000000 0.461590 0.000000 1.159127
Zn8   Zn    Zn3+2 0.538410 0.000000 0.000000 1.159038
C17   C     C_1   0.500004 0.999999 0.717577 -0.034369
C18   C     C_1   0.000000 0.500001 0.717577 -0.034577
C19   C     C_1   0.500004 0.999998 0.282423 -0.034382
C20   C     C_1   0.999999 0.500000 0.282423 -0.034581
C21   C     C_1   0.999999 0.500000 0.217577 -0.034449
C22   C     C_1   0.500002 0.999995 0.217577 -0.034355
C23   C     C_1   1.000000 0.500000 0.782423 -0.034443
C24   C     C_1   0.500001 0.999996 0.782423 -0.034355
C25   C     C_R   0.876841 0.978641 0.450372 0.283105
C26   C     C_R   0.021373 0.876845 0.450395 0.283069
C27   C     C_R   0.123158 0.021324 0.450317 0.283193
C28   C     C_R   0.978641 0.123159 0.450381 0.283131
C29   C     C_R   0.123154 0.978685 0.549720 0.283192
C30   C     C_R   0.978637 0.876841 0.549611 0.283117
C31   C     C_R   0.876843 0.021361 0.549622 0.283100
C32   C     C_R   0.021367 0.123154 0.549620 0.283081
C33   C     C_R   0.376846 0.478641 0.950363 0.283104
C34   C     C_R   0.521324 0.376845 0.950305 0.283189
C35   C     C_R   0.623158 0.521354 0.950372 0.283139
C36   C     C_R   0.478635 0.623157 0.950384 0.283094
C37   C     C_R   0.623154 0.478638 0.049627 0.283096
C38   C     C_R   0.478674 0.376844 0.049686 0.283184
C39   C     C_R   0.376841 0.521349 0.049635 0.283150
C40   C     C_R   0.521362 0.623158 0.049620 0.283099
C41   C     C_R   0.840999 0.979181 0.450713 -0.174829
C42   C     C_R   0.020833 0.841003 0.450726 -0.174847
C43   C     C_R   0.158999 0.020783 0.450661 -0.174984
C44   C     C_R   0.979182 0.159000 0.450726 -0.174882
C45   C     C_R   0.158994 0.979239 0.549416 -0.174981
C46   C     C_R   0.979177 0.840999 0.549266 -0.174854
C47   C     C_R   0.841001 0.020823 0.549281 -0.174826
C48   C     C_R   0.020824 0.158996 0.549296 -0.174871
C49   C     C_R   0.341004 0.479184 0.950686 -0.174892
C50   C     C_R   0.520776 0.341004 0.950625 -0.174984
C51   C     C_R   0.659000 0.520812 0.950714 -0.174894
C52   C     C_R   0.479173 0.658999 0.950725 -0.174833
C53   C     C_R   0.658996 0.479180 0.049301 -0.174886
C54   C     C_R   0.479221 0.341003 0.049360 -0.174984
C55   C     C_R   0.341000 0.520806 0.049292 -0.174904
C56   C     C_R   0.520823 0.659000 0.049280 -0.174836
C57   C     C_R   0.823174 0.000002 0.499997 0.022116
C58   C     C_R   0.000004 0.823175 0.499991 0.022163
C59   C     C_R   0.176826 0.000014 0.500049 0.022455
C60   C     C_R   0.000002 0.176825 0.500018 0.022220
C61   C     C_R   0.323174 0.499996 0.999983 0.022271
C62   C     C_R   0.499999 0.323174 0.999991 0.022455
C63   C     C_R   0.676825 0.499997 0.000012 0.022253
C64   C     C_R   0.499998 0.676825 0.000003 0.022131
C65   C     C_R   0.895059 0.000001 0.499998 -0.254130
C66   C     C_R   0.000003 0.895060 0.500002 -0.254145
C67   C     C_R   0.104939 0.000002 0.500008 -0.254076
C68   C     C_R   0.000002 0.104939 0.499999 -0.254140
C69   C     C_R   0.395060 0.499997 1.000000 -0.254129
C70   C     C_R   0.500000 0.395061 0.999998 -0.254089
C71   C     C_R   0.604939 0.499998 1.000000 -0.254134
C72   C     C_R   0.499999 0.604940 0.000001 -0.254139
C73   C     C_R   0.767833 0.030948 0.492782 -0.195165
C74   C     C_R   0.969055 0.767832 0.492818 -0.195182
C75   C     C_R   0.232179 0.969038 0.493528 -0.195225
C76   C     C_R   0.030956 0.232170 0.492971 -0.195197
C77   C     C_R   0.232175 0.030998 0.506632 -0.195304
C78   C     C_R   0.030954 0.767832 0.507153 -0.195183
C79   C     C_R   0.767833 0.969055 0.507217 -0.195162
C80   C     C_R   0.969047 0.232169 0.507083 -0.195202
C81   C     C_R   0.267829 0.530956 0.993027 -0.195219
C82   C     C_R   0.469020 0.267823 0.993425 -0.195277
C83   C     C_R   0.732171 0.469038 0.993031 -0.195213
C84   C     C_R   0.530945 0.732167 0.992799 -0.195167
C85   C     C_R   0.732171 0.530955 0.007003 -0.195211
C86   C     C_R   0.530978 0.267823 0.006553 -0.195266
C87   C     C_R   0.267828 0.469036 0.006921 -0.195213
C88   C     C_R   0.469051 0.732167 0.007206 -0.195174
C89   C     C_R   0.731989 0.031323 0.491032 0.283201
C90   C     C_R   0.968679 0.731989 0.491070 0.283208
C91   C     C_R   0.268020 0.968659 0.491816 0.283338
C92   C     C_R   0.031333 0.268013 0.491228 0.283230
C93   C     C_R   0.268019 0.031384 0.508367 0.283253
C94   C     C_R   0.031329 0.731988 0.508903 0.283208
C95   C     C_R   0.731990 0.968679 0.508971 0.283198
C96   C     C_R   0.968669 0.268013 0.508828 0.283224
C97   C     C_R   0.231985 0.531336 0.991288 0.283230
C98   C     C_R   0.468637 0.231979 0.991702 0.283266
C99   C     C_R   0.768014 0.468660 0.991286 0.283229
C100  C     C_R   0.531321 0.768011 0.991046 0.283203
C101  C     C_R   0.768014 0.531334 0.008742 0.283235
C102  C     C_R   0.531361 0.231981 0.008278 0.283277
C103  C     C_R   0.231984 0.468658 0.008662 0.283236
C104  C     C_R   0.468675 0.768011 0.008956 0.283201
C105  C     C_R   0.713874 0.000001 0.500003 -0.134450
C106  C     C_R   0.000004 0.713873 0.499987 -0.134447
C107  C     C_R   0.286135 0.000022 0.500075 -0.134309
C108  C     C_R   0.000001 0.286128 0.500026 -0.134420
C109  C     C_R   0.213870 0.499997 0.999977 -0.134428
C110  C     C_R   0.499999 0.213865 0.999994 -0.134343
C111  C     C_R   0.786130 0.499997 0.000014 -0.134426
C112  C     C_R   0.499998 0.786126 0.999998 -0.134448
C113  C     C_R   0.785657 0.000002 0.499999 0.017963
C114  C     C_R   0.000005 0.785656 0.499985 0.018013
C115  C     C_R   0.214349 0.000017 0.500066 0.018355
C116  C     C_R   0.000002 0.214345 0.500025 0.018079
C117  C     C_R   0.285654 0.499996 0.999975 0.018134
C118  C     C_R   0.499999 0.285650 0.999990 0.018349
C119  C     C_R   0.714346 0.499997 0.000018 0.018118
C120  C     C_R   0.499998 0.714343 0.000002 0.017980
C121  C     C_R   0.658480 0.982120 0.445642 -0.097697
C122  C     C_R   0.017865 0.658478 0.445607 -0.097687
C123  C     C_R   0.341526 0.017705 0.445408 -0.097684
C124  C     C_R   0.982167 0.341520 0.445586 -0.097702
C125  C     C_R   0.341533 0.982318 0.554679 -0.097715
C126  C     C_R   0.982140 0.658481 0.554377 -0.097688
C127  C     C_R   0.658480 0.017880 0.554363 -0.097702
C128  C     C_R   0.017833 0.341525 0.554446 -0.097676
C129  C     C_R   0.158473 0.482209 0.945492 -0.097660
C130  C     C_R   0.517683 0.158470 0.945347 -0.097660
C131  C     C_R   0.841521 0.517802 0.945535 -0.097668
C132  C     C_R   0.482124 0.841520 0.945630 -0.097700
C133  C     C_R   0.841525 0.482195 0.054482 -0.097680
C134  C     C_R   0.482317 0.158471 0.054649 -0.097671
C135  C     C_R   0.158479 0.517788 0.054482 -0.097669
C136  C     C_R   0.517875 0.841520 0.054365 -0.097695
C137  C     C_R   0.622636 0.982075 0.444538 0.264163
C138  C     C_R   0.017910 0.622633 0.444508 0.264151
C139  C     C_R   0.377370 0.017749 0.444299 0.264061
C140  C     C_R   0.982120 0.377364 0.444478 0.264136
C141  C     C_R   0.377377 0.982259 0.555753 0.264028
C142  C     C_R   0.982093 0.622636 0.555483 0.264145
C143  C     C_R   0.622636 0.017926 0.555465 0.264155
C144  C     C_R   0.017880 0.377369 0.555539 0.264133
C145  C     C_R   0.122629 0.482163 0.944398 0.264124
C146  C     C_R   0.517733 0.122626 0.944256 0.264074
C147  C     C_R   0.877366 0.517850 0.944431 0.264123
C148  C     C_R   0.482078 0.877365 0.944528 0.264153
C149  C     C_R   0.877369 0.482149 0.055578 0.264131
C150  C     C_R   0.482265 0.122627 0.055741 0.264066
C151  C     C_R   0.122634 0.517836 0.055587 0.264121
C152  C     C_R   0.517921 0.877364 0.055468 0.264161
C153  C     C_R   0.604534 0.000000 0.500001 -0.269973
C154  C     C_R   0.000001 0.604533 0.499997 -0.269983
C155  C     C_R   0.395473 0.000001 0.500015 -0.269855
C156  C     C_R   1.000000 0.395468 0.500006 -0.269961
C157  C     C_R   0.104531 0.500000 0.999995 -0.269915
C158  C     C_R   0.500000 0.104527 1.000000 -0.269833
C159  C     C_R   0.895468 0.499999 0.000003 -0.269925
C160  C     C_R   0.500000 0.895466 0.999998 -0.269969
C161  C     C_R   0.676270 0.000000 0.500003 0.067097
C162  C     C_R   0.000003 0.676269 0.499990 0.067080
C163  C     C_R   0.323739 0.000016 0.500054 0.066741
C164  C     C_R   0.000000 0.323732 0.500020 0.067012
C165  C     C_R   0.176266 0.499998 0.999984 0.067004
C166  C     C_R   0.500000 0.176261 0.999998 0.066822
C167  C     C_R   0.823734 0.499998 0.000011 0.067008
C168  C     C_R   0.499999 0.823730 0.999997 0.067093
O33   O     O_R   1.000000 0.949040 0.560460 -0.581823
O34   O     O_R   0.050960 0.000000 0.560460 -0.581815
O35   O     O_R   1.000000 0.050960 0.560460 -0.581825
O36   O     O_R   0.949040 0.000000 0.560460 -0.581815
O37   O     O_R   0.000000 0.949040 0.439540 -0.581827
O38   O     O_R   0.949040 0.000000 0.439540 -0.581815
O39   O     O_R   0.000000 0.050960 0.439540 -0.581819
O40   O     O_R   0.050960 0.000000 0.439540 -0.581792
O41   O     O_R   0.500000 0.449040 0.060460 -0.581805
O42   O     O_R   0.550960 0.500000 0.060460 -0.581823
O43   O     O_R   0.500000 0.550960 0.060460 -0.581819
O44   O     O_R   0.449040 0.500000 0.060460 -0.581815
O45   O     O_R   0.500000 0.449040 0.939540 -0.581810
O46   O     O_R   0.449040 0.500000 0.939540 -0.581821
O47   O     O_R   0.500000 0.550960 0.939540 -0.581816
O48   O     O_R   0.550960 0.500000 0.939540 -0.581816
C169  C     C_R   0.000000 0.932632 0.500000 1.013316
C170  C     C_R   0.067367 0.000000 0.500001 1.013271
C171  C     C_R   0.000000 0.067367 0.500000 1.013302
C172  C     C_R   0.932632 1.000000 0.499999 1.013375
C173  C     C_R   0.500000 0.432632 1.000000 1.013253
C174  C     C_R   0.567368 0.500000 1.000000 1.013305
C175  C     C_R   0.500000 0.567368 0.000000 1.013353
C176  C     C_R   0.432632 0.500000 0.000000 1.013294
Zn9   Zn    Zn3+2 0.000000 0.000000 0.580910 1.211857
Zn10  Zn    Zn3+2 1.000000 0.000000 0.419090 1.211860
Zn11  Zn    Zn3+2 0.500000 0.500000 0.080910 1.211866
Zn12  Zn    Zn3+2 0.500000 0.500000 0.919090 1.211867
N1    N     N_R   0.894092 0.955589 0.400875 0.232231
O49   O     O_R   0.918954 0.936076 0.424149 -0.346929
O50   O     O_R   0.881496 0.950090 0.335839 -0.309261
N2    N     N_R   0.044440 0.894100 0.400935 0.232221
O51   O     O_R   0.063944 0.918963 0.424244 -0.347052
O52   O     O_R   0.049961 0.881507 0.335905 -0.309249
N3    N     N_R   0.105908 0.044346 0.400757 0.232236
O53   O     O_R   0.081069 0.063898 0.424000 -0.346834
O54   O     O_R   0.118490 0.049786 0.335687 -0.309203
N4    N     N_R   0.955588 0.105909 0.400885 0.232233
O55   O     O_R   0.936075 0.081046 0.424158 -0.346942
O56   O     O_R   0.950088 0.118505 0.335850 -0.309245
N5    N     N_R   0.105900 0.955658 0.599264 0.232236
O57   O     O_R   0.081070 0.936101 0.576000 -0.346828
O58   O     O_R   0.118470 0.950222 0.664346 -0.309199
N6    N     N_R   0.955580 0.894091 0.599097 0.232231
O59   O     O_R   0.936070 0.918955 0.575817 -0.346953
O60   O     O_R   0.950075 0.881495 0.664130 -0.309249
N7    N     N_R   0.894095 0.044414 0.599116 0.232229
O61   O     O_R   0.918957 0.063926 0.575840 -0.346946
O62   O     O_R   0.881500 0.049915 0.664152 -0.309259
N8    N     N_R   0.044431 0.105899 0.599084 0.232221
O63   O     O_R   0.063942 0.081042 0.575774 -0.347057
O64   O     O_R   0.049944 0.118487 0.664122 -0.309237
N9    N     N_R   0.394101 0.455585 0.900883 0.232222
O65   O     O_R   0.418953 0.436065 0.924184 -0.347013
O66   O     O_R   0.381516 0.450088 0.835836 -0.309227
N10   N     N_R   0.544354 0.394098 0.900767 0.232235
O67   O     O_R   0.563904 0.418933 0.924030 -0.346861
O68   O     O_R   0.549800 0.381522 0.835693 -0.309202
N11   N     N_R   0.605909 0.544406 0.900872 0.232236
O69   O     O_R   0.581048 0.563921 0.924144 -0.346923
O70   O     O_R   0.618505 0.549903 0.835836 -0.309240
N12   N     N_R   0.455578 0.605905 0.900899 0.232227
O71   O     O_R   0.436069 0.581041 0.924183 -0.346970
O72   O     O_R   0.450071 0.618500 0.835865 -0.309253
N13   N     N_R   0.605900 0.455579 0.099103 0.232222
O73   O     O_R   0.581045 0.436064 0.075800 -0.347021
O74   O     O_R   0.618487 0.450075 0.164144 -0.309233
N14   N     N_R   0.455644 0.394095 0.099225 0.232236
O75   O     O_R   0.436096 0.418933 0.075963 -0.346868
O76   O     O_R   0.450193 0.381516 0.164294 -0.309202
N15   N     N_R   0.394091 0.544397 0.099143 0.232235
O77   O     O_R   0.418948 0.563918 0.075876 -0.346911
O78   O     O_R   0.381497 0.549884 0.164185 -0.309235
N16   N     N_R   0.544419 0.605907 0.099107 0.232228
O79   O     O_R   0.563929 0.581043 0.075825 -0.346956
O80   O     O_R   0.549925 0.618502 0.164141 -0.309256
H1    H     H_    0.826871 0.962959 0.412956 0.199947
H2    H     H_    0.037061 0.826877 0.412978 0.199933
H3    H     H_    0.173123 0.036968 0.412827 0.199829
H4    H     H_    0.962962 0.173128 0.412967 0.199916
H5    H     H_    0.173115 0.963059 0.587266 0.199846
H6    H     H_    0.962952 0.826870 0.587013 0.199933
H7    H     H_    0.826873 0.037045 0.587037 0.199947
H8    H     H_    0.037046 0.173121 0.587058 0.199917
H9    H     H_    0.326881 0.462970 0.912907 0.199896
H10   H     H_    0.536962 0.326882 0.912790 0.199835
H11   H     H_    0.673127 0.537028 0.912945 0.199908
H12   H     H_    0.462949 0.673127 0.912973 0.199943
H13   H     H_    0.673120 0.462962 0.087070 0.199901
H14   H     H_    0.463035 0.326880 0.087192 0.199836
H15   H     H_    0.326872 0.537018 0.087068 0.199898
H16   H     H_    0.537046 0.673128 0.087033 0.199943
H17   H     H_    0.781992 0.054715 0.485810 0.204581
H18   H     H_    0.945286 0.781992 0.485886 0.204557
H19   H     H_    0.218031 0.945232 0.487061 0.204305
H20   H     H_    0.054732 0.218013 0.486121 0.204514
H21   H     H_    0.218020 0.054798 0.513108 0.204422
H22   H     H_    0.054723 0.781991 0.514087 0.204557
H23   H     H_    0.781994 0.945288 0.514187 0.204581
H24   H     H_    0.945271 0.218011 0.513933 0.204524
H25   H     H_    0.281986 0.554737 0.986260 0.204502
H26   H     H_    0.445219 0.281975 0.986944 0.204390
H27   H     H_    0.718013 0.445259 0.986232 0.204507
H28   H     H_    0.554713 0.718007 0.985840 0.204570
H29   H     H_    0.718014 0.554735 0.013800 0.204501
H30   H     H_    0.554779 0.281976 0.013030 0.204376
H31   H     H_    0.281984 0.445254 0.013688 0.204494
H32   H     H_    0.445283 0.718007 0.014168 0.204577
N17   N     N_R   0.714548 0.063429 0.478352 0.225300
O81   O     O_R   0.687872 0.064818 0.435414 -0.325115
O82   O     O_R   0.727926 0.092048 0.501809 -0.304456
N18   N     N_R   0.936567 0.714548 0.478448 0.225292
O83   O     O_R   0.935160 0.687874 0.435507 -0.325101
O84   O     O_R   0.907958 0.727924 0.501967 -0.304455
N19   N     N_R   0.285466 0.936495 0.479909 0.225062
O85   O     O_R   0.312035 0.934856 0.436709 -0.324864
O86   O     O_R   0.272195 0.908024 0.504450 -0.304422
N20   N     N_R   0.063454 0.285454 0.478730 0.225262
O87   O     O_R   0.064900 0.312114 0.435756 -0.325056
O88   O     O_R   0.092041 0.272093 0.502410 -0.304445
N21   N     N_R   0.285459 0.063548 0.520366 0.225232
O89   O     O_R   0.312115 0.065142 0.563327 -0.324959
O90   O     O_R   0.272097 0.092053 0.496241 -0.304429
N22   N     N_R   0.063441 0.714548 0.521531 0.225299
O91   O     O_R   0.064846 0.687873 0.564469 -0.325098
O92   O     O_R   0.092051 0.727925 0.498026 -0.304454
N23   N     N_R   0.714550 0.936572 0.521652 0.225299
O93   O     O_R   0.687875 0.935182 0.564593 -0.325114
O94   O     O_R   0.727927 0.907953 0.498191 -0.304458
N24   N     N_R   0.936548 0.285453 0.521334 0.225271
O95   O     O_R   0.935105 0.312116 0.564300 -0.325061
O96   O     O_R   0.907960 0.272087 0.497679 -0.304451
N25   N     N_R   0.214545 0.563468 0.978903 0.225274
O97   O     O_R   0.187877 0.564946 0.935956 -0.325055
O98   O     O_R   0.227915 0.592037 0.002656 -0.304447
N26   N     N_R   0.436472 0.214537 0.979731 0.225197
O99   O     O_R   0.434867 0.187897 0.936725 -0.324956
O100  O     O_R   0.407975 0.227880 0.003950 -0.304425
N27   N     N_R   0.785455 0.436533 0.978852 0.225277
O101  O     O_R   0.812121 0.435069 0.935898 -0.325059
O102  O     O_R   0.772086 0.407955 0.002561 -0.304445
N28   N     N_R   0.563429 0.785451 0.978384 0.225293
O103  O     O_R   0.564824 0.812123 0.935437 -0.325108
O104  O     O_R   0.592044 0.772077 0.001872 -0.304457
N29   N     N_R   0.785455 0.563462 0.021160 0.225263
O105  O     O_R   0.812118 0.564931 0.064124 -0.325056
O106  O     O_R   0.772092 0.592036 0.997415 -0.304447
N30   N     N_R   0.563526 0.214539 0.020239 0.225178
O107  O     O_R   0.565138 0.187910 0.063275 -0.324946
O108  O     O_R   0.592019 0.227871 0.995970 -0.304428
N31   N     N_R   0.214543 0.436526 0.021046 0.225269
O109  O     O_R   0.187880 0.435047 0.064005 -0.325051
O110  O     O_R   0.227908 0.407958 0.997279 -0.304443
N32   N     N_R   0.436567 0.785451 0.021624 0.225305
O111  O     O_R   0.435176 0.812130 0.064554 -0.325120
O112  O     O_R   0.407950 0.772070 0.998168 -0.304452
H33   H     H_    0.672676 0.968799 0.403143 0.192986
H34   H     H_    0.031174 0.672672 0.403089 0.192983
H35   H     H_    0.327330 0.030884 0.402709 0.193033
H36   H     H_    0.968882 0.327323 0.403037 0.193003
H37   H     H_    0.327341 0.969145 0.597392 0.193128
H38   H     H_    0.968832 0.672678 0.596893 0.192991
H39   H     H_    0.672676 0.031201 0.596862 0.192980
H40   H     H_    0.031119 0.327331 0.597000 0.193001
H41   H     H_    0.172667 0.468957 0.902891 0.193008
H42   H     H_    0.530851 0.172664 0.902629 0.193059
H43   H     H_    0.827325 0.531064 0.902953 0.193013
H44   H     H_    0.468805 0.827325 0.903126 0.192980
H45   H     H_    0.827331 0.468933 0.097067 0.193002
H46   H     H_    0.469148 0.172665 0.097365 0.193043
H47   H     H_    0.172677 0.531039 0.097078 0.193010
H48   H     H_    0.531193 0.827324 0.096868 0.192988
N33   N     N_R   0.605195 0.964716 0.385659 0.230775
O113  O     O_R   0.618331 0.936960 0.357368 -0.285259
O114  O     O_R   0.579217 0.979154 0.353001 -0.389086
N34   N     N_R   0.035253 0.605191 0.385612 0.230760
O115  O     O_R   0.062999 0.618328 0.357280 -0.285240
O116  O     O_R   0.020808 0.579209 0.352980 -0.389113
N35   N     N_R   0.394810 0.034932 0.385184 0.230631
O117  O     O_R   0.381654 0.062581 0.356457 -0.285127
O118  O     O_R   0.420818 0.020420 0.352787 -0.389703
N36   N     N_R   0.964806 0.394803 0.385537 0.230741
O119  O     O_R   0.937080 0.381658 0.357128 -0.285221
O120  O     O_R   0.979261 0.420791 0.352949 -0.389193
N37   N     N_R   0.394823 0.965069 0.614853 0.230665
O121  O     O_R   0.381641 0.937448 0.643653 -0.285108
O122  O     O_R   0.420867 0.979554 0.647173 -0.389729
N38   N     N_R   0.964749 0.605197 0.614384 0.230766
O123  O     O_R   0.937008 0.618340 0.642725 -0.285241
O124  O     O_R   0.979190 0.579212 0.647010 -0.389104
N39   N     N_R   0.605195 0.035286 0.614341 0.230777
O125  O     O_R   0.618332 0.063042 0.642630 -0.285233
O126  O     O_R   0.579217 0.020849 0.646999 -0.389124
N40   N     N_R   0.035197 0.394813 0.614470 0.230736
O127  O     O_R   0.062928 0.381675 0.642868 -0.285205
O128  O     O_R   0.020740 0.420799 0.647061 -0.389206
N41   N     N_R   0.105185 0.464892 0.885405 0.230706
O129  O     O_R   0.118332 0.437194 0.856881 -0.285209
O130  O     O_R   0.079187 0.479367 0.852891 -0.389395
N42   N     N_R   0.534904 0.105182 0.885131 0.230628
O131  O     O_R   0.562537 0.118346 0.856348 -0.285143
O132  O     O_R   0.520391 0.079163 0.852773 -0.389734
N43   N     N_R   0.894806 0.535135 0.885453 0.230720
O133  O     O_R   0.881655 0.562839 0.856962 -0.285218
O134  O     O_R   0.920802 0.520670 0.852916 -0.389334
N44   N     N_R   0.464723 0.894806 0.885646 0.230775
O135  O     O_R   0.436969 0.881669 0.857344 -0.285222
O136  O     O_R   0.479162 0.920785 0.852995 -0.389133
N45   N     N_R   0.894813 0.464864 0.114552 0.230717
O137  O     O_R   0.881667 0.437156 0.143038 -0.285217
O138  O     O_R   0.920807 0.479332 0.147091 -0.389349
N46   N     N_R   0.465089 0.105184 0.114860 0.230630
O139  O     O_R   0.437452 0.118346 0.143623 -0.285123
O140  O     O_R   0.479598 0.079165 0.147225 -0.389749
N47   N     N_R   0.105196 0.535108 0.114584 0.230711
O141  O     O_R   0.118350 0.562802 0.143113 -0.285220
O142  O     O_R   0.079195 0.520639 0.147097 -0.389375
N48   N     N_R   0.535276 0.894805 0.114351 0.230770
O143  O     O_R   0.563029 0.881668 0.142654 -0.285253
O144  O     O_R   0.520837 0.920784 0.147004 -0.389108

loop_
_geom_bond_atom_site_label_1
_geom_bond_atom_site_label_2
_geom_bond_distance
_ccdc_geom_bond_type
C136  H48   1.083854 S    
N7    O62   1.301380 A    
C46   H6    1.083915 S    
C90   C106  1.417233 A    
O25   C13   1.277047 A    
C145  C157  1.416373 A    
C77   C93   1.394986 A    
C10   C18   1.396460 S    
C35   N11   1.438819 S    
C50   H10   1.083907 S    
C40   N16   1.438818 S    
C123  C163  1.395134 A    
N16   O79   1.300880 A    
C128  H40   1.083865 S    
C137  C153  1.416388 A    
C14   C22   1.396464 S    
N46   O139  1.301451 A    
N38   O124  1.300773 A    
O18   Zn2   1.993616 S    
C129  C165  1.395132 A    
C100  C112  1.417233 A    
N43   O134  1.300771 A    
C67   C170  1.461772 S    
C99   N27   1.440227 S    
C74   H18   1.083827 S    
N39   O126  1.300778 A    
C126  C162  1.395133 A    
C65   C172  1.461803 S    
C134  H46   1.083851 S    
C124  C164  1.395137 A    
O19   Zn3   1.993619 S    
O3    C3    1.284151 A    
N20   O87   1.301400 A    
C142  C154  1.416389 A    
C87   C117  1.395685 A    
C89   C105  1.417236 A    
C140  C156  1.416371 A    
C29   N5    1.438801 S    
C49   C61   1.394870 A    
C44   H4    1.083911 S    
C79   C113  1.395648 A    
C101  C111  1.417216 A    
N44   O136  1.300777 A    
C74   C90   1.394983 A    
C53   H13   1.083913 S    
C126  H38   1.083854 S    
N29   O106  1.301472 A    
C84   C100  1.394984 A    
C94   C106  1.417235 A    
C39   C69   1.418625 A    
N19   O85   1.301430 A    
C44   C60   1.394858 A    
C37   N13   1.438813 S    
O17   C9    1.277050 A    
N23   O94   1.301457 A    
C132  H44   1.083860 S    
N36   O120  1.300771 A    
C28   N4    1.438818 S    
O40   C170  1.274394 A    
O23   Zn3   1.993624 S    
C26   C42   1.394642 A    
O46   Zn12  2.017454 S    
C40   C72   1.418641 A    
C82   C118  1.395734 A    
C87   C103  1.394975 A    
C88   C104  1.394995 A    
N42   O132  1.300758 A    
O26   Zn6   1.993616 S    
C56   C64   1.394833 A    
O45   Zn12  2.017443 S    
C152  N48   1.438833 S    
N33   O113  1.301425 A    
N12   O72   1.301381 A    
C135  C165  1.395135 A    
C121  C137  1.394716 A    
N35   O117  1.301453 A    
O27   C13   1.277046 A    
O8    Zn2   2.015900 S    
C86   H30   1.083823 S    
C45   H5    1.083908 S    
O31   C15   1.277050 A    
O32   C16   1.277054 A    
C26   N2    1.438816 S    
C48   H8    1.083913 S    
C5    C157  1.456734 S    
N34   O116  1.300775 A    
C34   C70   1.418596 A    
C42   H2    1.083915 S    
N37   O121  1.301477 A    
C135  H47   1.083854 S    
C136  C168  1.395131 A    
C107  C163  1.463037 S    
N41   O129  1.301444 A    
C101  N29   1.440218 S    
C37   C53   1.394629 A    
C34   C50   1.394596 A    
C83   C119  1.395685 A    
C38   C54   1.394596 A    
C149  N45   1.438849 S    
C84   C120  1.395650 A    
O11   C7    1.284179 A    
C148  N44   1.438834 S    
C127  H39   1.083861 S    
N15   O78   1.301382 A    
O48   Zn12  2.017440 S    
N28   O103  1.301405 A    
O16   Zn6   2.015900 S    
C76   C116  1.395672 A    
C52   C64   1.394830 A    
C33   C49   1.394629 A    
N23   O93   1.301404 A    
O4    C4    1.284182 A    
O35   Zn9   2.017439 S    
C103  C109  1.417214 A    
C8    C160  1.456795 S    
C95   N23   1.440230 S    
N31   O109  1.301404 A    
C134  C166  1.395141 A    
O6    Zn4   2.015896 S    
C74   C114  1.395657 A    
N18   O84   1.301458 A    
N6    O59   1.300877 A    
C87   H31   1.083824 S    
C58   C114  1.459697 S    
C27   C43   1.394602 A    
C2    C154  1.456783 S    
C126  C142  1.394716 A    
C38   N14   1.438801 S    
O9    C5    1.284175 A    
C62   C118  1.459876 S    
C29   C67   1.418599 A    
O21   Zn1   1.993621 S    
N5    O57   1.300886 A    
C72   C175  1.461790 S    
O23   C11   1.277039 A    
C122  C162  1.395131 A    
O42   Zn11  2.017450 S    
C93   N21   1.440219 S    
N9    O65   1.300884 A    
C69   C176  1.461780 S    
N32   O111  1.301401 A    
C148  C160  1.416387 A    
N39   O125  1.301426 A    
C83   C99   1.394980 A    
O13   C7    1.284177 A    
C37   C71   1.418619 A    
O34   Zn9   2.017450 S    
C81   C97   1.394969 A    
C147  N43   1.438857 S    
C50   C62   1.394912 A    
O2    Zn2   2.015893 S    
C103  N31   1.440218 S    
C32   C68   1.418618 A    
C85   C101  1.394969 A    
N10   O67   1.300884 A    
O7    C1    1.284193 A    
C77   C115  1.395762 A    
C91   C107  1.417128 A    
O26   C14   1.277054 A    
O29   C15   1.277043 A    
O30   C16   1.277044 A    
C78   C94   1.394984 A    
C35   C51   1.394630 A    
O29   Zn5   1.993621 S    
C149  C159  1.416372 A    
C92   N20   1.440208 S    
O46   C176  1.274391 A    
N1    O49   1.300878 A    
N21   O90   1.301477 A    
C46   C58   1.394842 A    
C25   C65   1.418648 A    
N45   O138  1.300769 A    
C33   N9    1.438807 S    
N25   O98   1.301454 A    
O24   C12   1.277051 A    
C9    C17   1.396462 S    
C125  H37   1.083840 S    
C42   C58   1.394844 A    
O43   Zn11  2.017439 S    
N22   O91   1.301400 A    
C110  C166  1.463016 S    
N31   O110  1.301455 A    
C152  C160  1.416387 A    
C97   N25   1.440225 S    
C128  C164  1.395134 A    
C36   N12   1.438816 S    
N19   O86   1.301546 A    
O15   Zn7   2.015899 S    
C124  H36   1.083854 S    
C45   C59   1.394909 A    
C76   C92   1.394973 A    
C31   N7    1.438815 S    
N30   O108  1.301498 A    
C66   C169  1.461779 S    
C54   H14   1.083907 S    
C100  N28   1.440228 S    
C96   C108  1.417210 A    
C39   N15   1.438813 S    
O32   Zn6   1.993628 S    
C144  N40   1.438838 S    
C41   H1    1.083917 S    
C131  C167  1.395134 A    
C30   N6    1.438819 S    
C29   C45   1.394583 A    
C108  C164  1.463020 S    
N40   O127  1.301435 A    
O22   Zn4   1.993618 S    
N4    O55   1.300878 A    
C112  C168  1.463016 S    
O43   C175  1.274386 A    
N35   O118  1.300767 A    
N11   O69   1.300880 A    
O12   C8    1.284193 A    
O1    C1    1.284195 A    
C139  C155  1.416331 A    
C111  C167  1.463013 S    
O14   C6    1.284153 A    
N46   O140  1.300764 A    
N8    O63   1.300884 A    
C106  C162  1.463012 S    
C123  C139  1.394694 A    
C141  N37   1.438901 S    
C99   C111  1.417224 A    
N2    O51   1.300883 A    
N13   O74   1.301380 A    
C78   C114  1.395659 A    
O39   C171  1.274374 A    
C122  H34   1.083858 S    
C91   N19   1.440080 S    
C122  C138  1.394710 A    
O37   C169  1.274391 A    
O47   Zn12  2.017437 S    
O30   Zn8   1.993618 S    
N26   O99   1.301416 A    
C81   H25   1.083824 S    
C83   H27   1.083825 S    
C55   C61   1.394872 A    
C34   N10   1.438801 S    
C94   N22   1.440231 S    
C32   N8    1.438813 S    
O40   Zn10  2.017440 S    
O44   Zn11  2.017444 S    
C98   N26   1.440203 S    
C151  N47   1.438857 S    
N29   O105  1.301405 A    
C43   H3    1.083912 S    
N47   O142  1.300775 A    
O10   C6    1.284151 A    
C102  N30   1.440186 S    
C138  C154  1.416387 A    
O18   C10   1.277047 A    
C146  N42   1.438879 S    
C130  C166  1.395144 A    
C15   C23   1.396464 S    
C16   C24   1.396462 S    
C143  N39   1.438833 S    
N48   O143  1.301427 A    
N3    O53   1.300887 A    
C80   C116  1.395678 A    
N17   O82   1.301452 A    
C139  N35   1.438870 S    
O42   C174  1.274391 A    
C129  H41   1.083856 S    
O31   Zn7   1.993624 S    
C131  H43   1.083855 S    
C95   C105  1.417232 A    
C59   C115  1.459877 S    
C47   H7    1.083917 S    
N15   O77   1.300879 A    
C57   C113  1.459671 S    
C124  C140  1.394716 A    
C133  H45   1.083857 S    
C60   C116  1.459736 S    
C61   C117  1.459772 S    
C43   C59   1.394913 A    
O21   C11   1.277052 A    
O22   C12   1.277047 A    
O38   Zn10  2.017454 S    
O39   Zn10  2.017437 S    
O33   C169  1.274372 A    
C64   C120  1.459674 S    
C96   N24   1.440215 S    
O47   C175  1.274389 A    
N45   O137  1.301440 A    
O13   Zn5   2.015903 S    
C28   C44   1.394632 A    
N38   O123  1.301425 A    
C82   C98   1.394940 A    
C30   C66   1.418634 A    
C109  C165  1.463013 S    
N27   O101  1.301405 A    
C27   N3    1.438799 S    
C73   C113  1.395647 A    
C144  C156  1.416375 A    
C86   C102  1.394930 A    
C79   C95   1.394990 A    
C147  C159  1.416375 A    
C20   C21   1.182979 T    
C80   C96   1.394974 A    
C39   C55   1.394627 A    
O28   Zn8   1.993626 S    
C70   C173  1.461763 S    
O48   C174  1.274375 A    
C25   C41   1.394640 A    
N10   O68   1.301381 A    
C130  C146  1.394692 A    
N28   O104  1.301458 A    
C48   C60   1.394853 A    
C79   H23   1.083829 S    
C134  C150  1.394697 A    
C31   C47   1.394643 A    
C77   H21   1.083829 S    
C31   C65   1.418643 A    
N44   O135  1.301426 A    
O9    Zn5   2.015903 S    
O37   Zn10  2.017443 S    
O11   Zn7   2.015907 S    
C150  C158  1.416337 A    
N6    O60   1.301382 A    
C130  H42   1.083848 S    
O3    Zn3   2.015907 S    
N16   O80   1.301380 A    
C6    C158  1.456639 S    
C85   C119  1.395681 A    
C33   C69   1.418615 A    
N36   O119  1.301432 A    
O5    C3    1.284149 A    
C68   C171  1.461771 S    
C140  N36   1.438843 S    
C52   H12   1.083916 S    
C35   C71   1.418625 A    
C102  C110  1.417178 A    
C125  C163  1.395136 A    
O7    Zn3   2.015899 S    
N11   O70   1.301379 A    
C49   H9    1.083912 S    
N32   O112  1.301452 A    
C12   C20   1.396462 S    
C13   C21   1.396464 S    
O41   Zn11  2.017440 S    
C143  C153  1.416385 A    
C84   H28   1.083828 S    
C127  C161  1.395134 A    
C141  C155  1.416364 A    
O17   Zn1   1.993622 S    
O5    Zn1   2.015903 S    
C138  N34   1.438837 S    
O34   C170  1.274372 A    
O36   C172  1.274392 A    
C123  H35   1.083857 S    
N42   O131  1.301460 A    
C73   H17   1.083829 S    
O45   C173  1.274376 A    
N43   O133  1.301443 A    
N33   O114  1.300774 A    
C76   H20   1.083827 S    
N12   O71   1.300880 A    
C146  C158  1.416336 A    
C75   H19   1.083844 S    
C150  N46   1.438873 S    
C104  C112  1.417240 A    
C89   N17   1.440230 S    
O14   Zn8   2.015896 S    
C3    C155  1.456644 S    
O2    C2    1.284195 A    
C137  N33   1.438837 S    
N21   O89   1.301406 A    
C1    C153  1.456804 S    
C27   C67   1.418597 A    
N34   O115  1.301435 A    
O36   Zn9   2.017444 S    
C75   C91   1.394877 A    
N25   O97   1.301403 A    
C98   C110  1.417193 A    
N37   O122  1.300772 A    
O8    C4    1.284184 A    
C73   C89   1.394991 A    
O4    Zn4   2.015896 S    
N24   O96   1.301443 A    
C121  C161  1.395134 A    
C25   N1    1.438819 S    
N22   O92   1.301442 A    
N41   O130  1.300769 A    
C135  C151  1.394721 A    
C136  C152  1.394715 A    
C7    C159  1.456745 S    
C82   H26   1.083822 S    
C56   H16   1.083914 S    
C133  C149  1.394710 A    
O41   C173  1.274383 A    
C127  C143  1.394720 A    
C128  C144  1.394708 A    
C40   C56   1.394636 A    
O38   C172  1.274389 A    
C51   C63   1.394864 A    
O16   C8    1.284195 A    
C81   C117  1.395684 A    
C97   C109  1.417218 A    
C26   C66   1.418629 A    
C32   C48   1.394632 A    
N40   O128  1.300772 A    
C86   C118  1.395731 A    
O25   Zn5   1.993622 S    
O6    C2    1.284190 A    
N4    O56   1.301382 A    
N5    O58   1.301381 A    
O44   C176  1.274375 A    
O27   Zn7   1.993619 S    
C92   C108  1.417218 A    
C132  C168  1.395133 A    
C85   H29   1.083824 S    
N47   O141  1.301438 A    
N9    O66   1.301380 A    
N3    O54   1.301380 A    
C88   H32   1.083828 S    
N8    O64   1.301377 A    
N27   O102  1.301465 A    
O19   C9    1.277043 A    
C104  N32   1.440239 S    
C36   C72   1.418637 A    
C51   H11   1.083913 S    
N2    O52   1.301382 A    
N13   O73   1.300882 A    
C80   H24   1.083822 S    
C38   C70   1.418595 A    
N14   O75   1.300885 A    
O28   C14   1.277044 A    
O24   Zn2   1.993628 S    
O12   Zn8   2.015896 S    
C36   C52   1.394642 A    
C93   C107  1.417200 A    
N14   O76   1.301380 A    
N1    O50   1.301379 A    
N7    O61   1.300880 A    
C30   C46   1.394636 A    
C88   C120  1.395651 A    
C17   C24   1.182980 T    
C18   C23   1.182980 T    
C19   C22   1.182979 T    
C75   C115  1.395725 A    
C55   H15   1.083913 S    
C151  C157  1.416373 A    
C90   N18   1.440228 S    
N20   O88   1.301474 A    
C11   C19   1.396464 S    
C131  C147  1.394713 A    
C125  C141  1.394685 A    
N18   O83   1.301401 A    
C129  C145  1.394709 A    
C105  C161  1.463021 S    
O20   Zn4   1.993626 S    
C63   C119  1.459765 S    
C41   C57   1.394826 A    
C132  C148  1.394719 A    
C78   H22   1.083825 S    
O20   C10   1.277051 A    
N30   O107  1.301419 A    
N17   O81   1.301403 A    
O10   Zn6   2.015893 S    
N48   O144  1.300778 A    
O33   Zn9   2.017440 S    
C121  H33   1.083859 S    
C133  C167  1.395133 A    
O15   C5    1.284174 A    
N24   O95   1.301405 A    
N26   O100  1.301505 A    
C71   C174  1.461780 S    
O35   C171  1.274389 A    
C28   C68   1.418629 A    
O1    Zn1   2.015903 S    
C4    C156  1.456756 S    
C142  N38   1.438844 S    
C54   C62   1.394915 A    
C53   C63   1.394864 A    
C47   C57   1.394826 A    
C145  N41   1.438852 S    
