data_mof_unit_5076.cif
_audit_creation_date              2012-12-10T19:21:59-0500
_audit_creation_method            fapswitch 2.2
_symmetry_space_group_name_H-M    P1
_symmetry_Int_Tables_number       1
_space_group_crystal_system       triclinic
_cell_length_a                    8.726013
_cell_length_b                    17.722176
_cell_length_c                    16.547965
_cell_angle_alpha                 90.763337
_cell_angle_beta                  99.126107
_cell_angle_gamma                 91.954161
_cell_volume                      2524.72478973

loop_
_atom_site_label
_atom_site_type_symbol
_atom_type_description
_atom_site_fract_x
_atom_site_fract_y
_atom_site_fract_z
_atom_type_partial_charge
C1    C     C_R   0.500341 0.355347 0.499601 0.842981
C2    C     C_R   0.499658 0.644653 0.500399 0.842989
C3    C     C_1   0.499937 0.966218 0.500852 0.125154
C4    C     C_1   0.500079 0.033782 0.499141 0.125126
C5    C     C_R   0.605363 0.537905 0.842022 -0.269814
C6    C     C_R   0.394636 0.462095 0.157978 -0.269819
C7    C     C_R   0.612288 0.539259 0.757504 0.588663
C8    C     C_R   0.387712 0.460741 0.242496 0.588671
C9    C     C_R   0.383766 0.460342 0.731197 0.011258
C10   C     C_R   0.616233 0.539658 0.268803 0.011258
C11   C     C_R   0.376163 0.458704 0.816391 -0.212065
C12   C     C_R   0.623836 0.541296 0.183609 -0.212061
C13   C     C_R   0.489082 0.498169 0.872863 0.052233
C14   C     C_R   0.510917 0.501831 0.127137 0.052231
C15   C     C_1   0.494299 0.498667 0.962529 0.035520
C16   C     C_1   0.505701 0.501333 0.037471 0.035521
C17   C     C_R   0.203104 0.500077 0.478776 0.907432
C18   C     C_R   0.796895 0.499923 0.521224 0.907433
C19   C     C_2   0.036618 0.500351 0.467312 -0.359255
C20   C     C_2   0.963382 0.499649 0.532688 -0.359254
C21   C     C_R   0.497375 0.846763 0.576296 0.438456
C22   C     C_R   0.502698 0.153240 0.423707 0.438557
C23   C     C_R   0.497413 0.767784 0.574990 -0.200151
C24   C     C_R   0.502652 0.232219 0.425015 -0.200203
C25   C     C_R   0.499646 0.727620 0.501421 -0.110111
C26   C     C_R   0.500355 0.272380 0.498578 -0.110114
C27   C     C_R   0.501955 0.767285 0.428762 -0.184453
C28   C     C_R   0.497988 0.232712 0.571229 -0.184379
C29   C     C_R   0.502001 0.845771 0.429562 -0.172431
C30   C     C_R   0.497946 0.154226 0.570427 -0.172566
C31   C     C_R   0.499712 0.885584 0.502771 -0.011772
C32   C     C_R   0.500301 0.114416 0.497224 -0.011747
Cu1   Cu    Cu3+1 0.499990 0.499980 0.580420 1.020127
Cu2   Cu    Cu3+1 0.500010 0.500020 0.419580 1.020127
H1    H     H_    0.974044 0.501286 0.405147 0.213534
H2    H     H_    0.025956 0.498714 0.594853 0.213534
H3    H     H_    0.495735 0.737608 0.631307 0.219405
H4    H     H_    0.504377 0.262398 0.368704 0.219400
H5    H     H_    0.503835 0.737747 0.371228 0.175224
H6    H     H_    0.496057 0.262248 0.628758 0.175205
H7    H     H_    0.503878 0.875542 0.372898 0.186705
H8    H     H_    0.496023 0.124453 0.627085 0.186502
H9    H     H_    0.694740 0.566738 0.885550 0.199675
H10   H     H_    0.305259 0.433262 0.114450 0.199674
H11   H     H_    0.295995 0.428996 0.689250 0.152881
H12   H     H_    0.704004 0.571004 0.310750 0.152887
H13   H     H_    0.283253 0.426495 0.837711 0.171867
H14   H     H_    0.716746 0.573506 0.162289 0.171870
N1    N     N_R   0.499960 0.499970 0.701210 -0.233897
N2    N     N_R   0.500040 0.500030 0.298790 -0.233901
O1    O     O_R   0.499990 0.391240 0.567930 -0.605553
O2    O     O_R   0.500010 0.608760 0.432070 -0.605550
O3    O     O_R   0.500000 0.391270 0.432120 -0.534506
O4    O     O_R   0.500000 0.608730 0.567880 -0.534508
O5    O     O_R   0.274830 0.499990 0.552240 -0.605791
O6    O     O_R   0.725170 0.500010 0.447760 -0.605792
O7    O     O_R   0.274840 0.500020 0.416420 -0.509349
O8    O     O_R   0.725160 0.499980 0.583580 -0.509347
S1    S     S_3+6 0.495008 0.895872 0.669888 0.032409
O9    O     O_2   0.482375 0.841708 0.737875 -0.235745
O10   O     O_2   0.642464 0.943351 0.690580 -0.270018
O11   O     O_3   0.342511 0.952448 0.659089 -0.528410
H15   H     H_    0.359125 0.985203 0.708902 0.384074
S2    S     S_3+6 0.505161 0.104136 0.330124 0.032310
O12   O     O_2   0.357740 0.056639 0.309394 -0.269812
O13   O     O_2   0.517829 0.158310 0.262152 -0.236081
O14   O     O_3   0.657679 0.047575 0.340955 -0.528549
H16   H     H_    0.641608 0.015126 0.290911 0.384253
S3    S     S_3+6 0.785242 0.586097 0.735144 0.033915
O15   O     O_2   0.850699 0.639057 0.804831 -0.268362
O16   O     O_2   0.902956 0.527241 0.728763 -0.324704
O17   O     O_3   0.762405 0.637746 0.650246 -0.522136
H17   H     H_    0.869037 0.653288 0.642285 0.367230
S4    S     S_3+6 0.214759 0.413902 0.264856 0.033910
O18   O     O_2   0.097044 0.472758 0.271238 -0.324705
O19   O     O_2   0.149302 0.360942 0.195169 -0.268384
O20   O     O_3   0.237597 0.362252 0.349754 -0.522123
H18   H     H_    0.130966 0.346711 0.357716 0.367220

loop_
_geom_bond_atom_site_label_1
_geom_bond_atom_site_label_2
_ccdc_geom_bond_type
Cu1   O5    S    
C5    C13   A    
Cu2   O6    S    
Cu1   O8    S    
C27   C29   A    
C11   H13   S    
C19   C20   D    
C12   H14   S    
O20   H18   S    
C9    H11   S    
C21   C31   A    
C22   C32   A    
C24   C26   A    
C21   S1    S    
C28   H6    S    
Cu1   N1    S    
C15   C16   T    
S3    O16   D    
C1    O3    A    
C18   O8    A    
C27   H5    S    
S4    O20   S    
C10   H12   S    
Cu2   O7    S    
C24   H4    S    
C17   O5    A    
C18   C20   S    
C18   O6    A    
C5    H9    S    
S1    O9    D    
C6    H10   S    
C10   C12   A    
C21   C23   A    
Cu2   N2    S    
S1    O10   D    
S4    O18   D    
O14   H16   S    
S2    O14   S    
C9    N1    A    
C7    N1    A    
C2    O4    A    
C5    C7    A    
C6    C8    A    
C23   H3    S    
S2    O13   D    
S3    O17   S    
O11   H15   S    
C6    C14   A    
C1    O1    A    
C8    S4    S    
Cu1   Cu2   S    
C3    C31   S    
C9    C11   A    
C4    C32   S    
C2    O2    A    
C12   C14   A    
C13   C15   S    
C1    C26   S    
C22   C24   A    
C25   C27   A    
S4    O19   D    
C3    C4    T    
C10   N2    A    
C8    N2    A    
Cu1   O4    S    
S1    O11   S    
C29   H7    S    
Cu2   O2    S    
O17   H17   S    
C7    S3    S    
Cu1   O1    S    
C26   C28   A    
S2    O12   D    
C28   C30   A    
C29   C31   A    
C19   H1    S    
C30   C32   A    
C11   C13   A    
C17   C19   S    
C2    C25   S    
C14   C16   S    
C23   C25   A    
S3    O15   D    
C22   S2    S    
C20   H2    S    
Cu2   O3    S    
C30   H8    S    
C17   O7    A    
