data_mof_unit_40349.cif
_audit_creation_date              2012-12-10T20:31:58-0500
_audit_creation_method            fapswitch 2.2
_symmetry_space_group_name_H-M    P1
_symmetry_Int_Tables_number       1
_space_group_crystal_system       triclinic
_cell_length_a                    9.874934
_cell_length_b                    10.691588
_cell_length_c                    15.554634
_cell_angle_alpha                 90.473017
_cell_angle_beta                  69.396493
_cell_angle_gamma                 89.667011
_cell_volume                      1537.07853731

loop_
_atom_site_label
_atom_site_type_symbol
_atom_type_description
_atom_site_fract_x
_atom_site_fract_y
_atom_site_fract_z
_atom_type_partial_charge
C1    C     C_R   0.501574 0.740169 0.497244 0.879131
C2    C     C_R   0.744454 0.508614 0.033170 0.043096
C3    C     C_R   0.595134 0.494391 0.085046 0.046590
C4    C     C_R   0.410830 0.496693 0.675211 0.883175
C5    C     C_R   0.842438 0.537219 0.079116 0.227666
C6    C     C_R   0.791552 0.526472 0.175358 -0.252888
C7    C     C_R   0.545464 0.526113 0.177985 0.127015
C8    C     C_R   0.405441 0.936355 0.461452 0.088554
C9    C     C_R   0.512760 0.871411 0.481682 -0.101108
C10   C     C_R   0.636875 0.934722 0.481771 -0.218123
C11   C     C_R   0.637605 0.063829 0.480716 -0.213970
C12   C     C_R   0.434873 0.448843 0.905670 0.029566
C13   C     C_R   0.514983 0.128663 0.478695 -0.131967
C14   C     C_R   0.407434 0.064240 0.458483 0.064387
C15   C     C_3   0.246190 0.074672 0.500013 0.033868
C16   C     C_R   0.502861 0.259983 0.495798 0.876158
C17   C     C_3   0.244838 0.932955 0.505711 -0.497210
C18   C     C_R   0.885995 0.535319 0.576837 0.173318
C19   C     C_R   0.968152 0.451827 0.427914 -0.136735
C20   C     C_R   0.111686 0.450827 0.428355 -0.135685
C21   C     C_R   0.028507 0.535345 0.576698 0.134187
C22   C     C_3   0.006641 0.659412 0.624061 0.000306
C23   C     C_R   0.296763 0.399782 0.956064 0.151111
C24   C     C_3   0.851757 0.658864 0.625069 -0.552727
C25   C     C_R   0.589064 0.506835 0.324894 0.888918
C26   C     C_R   0.361527 0.473743 0.773593 -0.043307
C27   C     C_R   0.642874 0.519362 0.225050 -0.166278
C28   C     C_R   0.195332 0.382732 0.911988 -0.166393
C29   C     C_R   0.227926 0.419135 0.820974 -0.242377
C30   C     C_R   0.461493 0.490736 0.816970 -0.241921
C31   C     C_3   0.123241 0.184492 0.094872 -0.807415
C32   C     C_3   0.063692 0.648196 0.077728 -0.775041
C33   C     C_3   0.028639 0.127970 0.467591 -0.800958
C34   C     C_R   0.540993 0.461394 0.946471 0.066212
C35   C     C_3   0.987324 0.764606 0.768369 -0.775198
C36   C     C_3   0.414924 0.720923 0.235409 -0.726783
C37   C     C_R   0.497486 0.455724 0.042282 0.075836
C38   C     C_R   0.360878 0.404828 0.092452 -0.303037
C39   C     C_R   0.262934 0.372148 0.049530 0.196051
C40   C     C_R   0.689508 0.475732 0.894585 -0.214475
C41   C     C_R   0.790050 0.493475 0.937626 -0.237667
H1    H     H_    0.727881 0.886194 0.490238 0.163746
H2    H     H_    0.087991 0.349601 0.169786 0.217304
H3    H     H_    0.012092 0.151597 0.133460 0.243189
H4    H     H_    0.199296 0.140589 0.124327 0.242408
H5    H     H_    0.152612 0.154583 0.021959 0.246060
H6    H     H_    0.004212 0.612986 0.965703 0.224353
H7    H     H_    0.169522 0.678928 0.028226 0.241937
H8    H     H_    0.087148 0.590234 0.129664 0.242682
H9    H     H_    0.999345 0.732422 0.110774 0.238205
H10   H     H_    0.727972 0.111848 0.489549 0.175994
H11   H     H_    0.233492 0.199281 0.400440 0.239063
H12   H     H_    0.206297 0.125020 0.567375 0.150795
H13   H     H_    0.991967 0.155928 0.410681 0.234626
H14   H     H_    0.990139 0.199086 0.523646 0.239586
H15   H     H_    0.980656 0.035845 0.493446 0.243577
H16   H     H_    0.193358 0.885078 0.461474 0.212442
H17   H     H_    0.946842 0.414555 0.369111 0.137642
H18   H     H_    0.968544 0.572911 0.751077 0.221361
H19   H     H_    0.012075 0.750402 0.831912 0.231430
H20   H     H_    0.871372 0.791128 0.787865 0.241571
H21   H     H_    0.055920 0.841566 0.729200 0.236028
H22   H     H_    0.328827 0.541852 0.265606 0.235394
H23   H     H_    0.211232 0.900650 0.577737 0.171382
H24   H     H_    0.304741 0.762571 0.255377 0.229422
H25   H     H_    0.486453 0.769360 0.173206 0.240669
H26   H     H_    0.455740 0.735614 0.292732 0.235959
H27   H     H_    0.768183 0.651460 0.694626 0.197233
H28   H     H_    0.150368 0.402615 0.787369 0.150720
H29   H     H_    0.560339 0.539330 0.780800 0.148221
H30   H     H_    0.332068 0.383664 0.164519 0.143165
H31   H     H_    0.731088 0.465484 0.820654 0.137476
H32   H     H_    0.197274 0.410376 0.370698 0.124604
H33   H     H_    0.075525 0.732495 0.580794 0.162486
H34   H     H_    0.830314 0.732925 0.581664 0.195833
H35   H     H_    0.865745 0.530290 0.212377 0.173962
H36   H     H_    0.903055 0.493876 0.895330 0.136850
H37   H     H_    0.090148 0.342934 0.947771 0.177548
N1    N     N_R   0.856900 0.500860 0.500610 -0.096304
N2    N     N_R   0.142540 0.500820 0.500610 -0.112017
N3    N     N_2   0.127415 0.319207 0.102272 -0.302266
N4    N     N_2   0.987823 0.576439 0.029528 -0.300963
N5    N     N_2   0.184742 0.119772 0.433929 -0.273197
N6    N     N_2   0.017293 0.650298 0.714468 -0.269467
N7    N     N_2   0.408856 0.588836 0.216238 -0.303100
O1    O     O_R   0.385310 0.683210 0.499990 -0.613956
O2    O     O_R   0.614650 0.683240 0.500000 -0.622055
O3    O     O_R   0.319830 0.499970 0.632240 -0.601275
O4    O     O_R   0.549170 0.500000 0.632250 -0.616570
O5    O     O_R   0.385350 0.316760 0.500000 -0.630243
O6    O     O_R   0.614690 0.316790 0.500010 -0.614803
O7    O     O_R   0.450830 0.500000 0.367750 -0.625048
O8    O     O_R   0.680170 0.500030 0.367760 -0.624891
Zn1   Zn    Zn3+2 0.346870 0.499980 0.499990 0.938201
Zn2   Zn    Zn3+2 0.653130 0.500020 0.500010 0.939147

loop_
_geom_bond_atom_site_label_1
_geom_bond_atom_site_label_2
_ccdc_geom_bond_type
C33   H14   S    
C25   O8    A    
C10   H1    S    
C18   C21   A    
C19   C20   A    
C36   H26   S    
C16   O5    A    
C12   C23   A    
C18   C24   S    
C5    C6    A    
C15   H12   S    
C28   C29   A    
C3    C7    A    
C17   H23   S    
C41   H36   S    
C38   C39   A    
C36   H25   S    
C2    C41   A    
C34   C37   A    
C33   H13   S    
C7    C27   A    
H6    N4    S    
C1    O2    A    
O1    Zn1   S    
C18   N1    A    
C31   H5    S    
O2    Zn2   S    
C28   H37   S    
C9    C10   A    
C33   H15   S    
O8    Zn2   S    
C13   C14   A    
H22   N7    S    
C32   H7    S    
C30   H29   S    
O5    Zn1   S    
C29   H28   S    
C19   H17   S    
O3    Zn1   S    
C31   H3    S    
C20   N2    A    
C1    C9    S    
H18   N6    S    
C39   N3    S    
C36   H24   S    
C8    C9    A    
C15   N5    S    
C35   H19   S    
C22   N6    S    
O4    Zn2   S    
H11   N5    S    
N1    Zn2   S    
C37   C38   A    
C6    C27   A    
O7    Zn1   S    
C35   H20   S    
C23   C28   A    
C19   N1    A    
C33   N5    S    
C32   H9    S    
C16   O6    A    
C40   C41   A    
C26   C30   A    
H2    N3    S    
C34   C40   A    
C2    C5    A    
C22   H33   S    
N2    Zn1   S    
C4    O4    A    
C1    O1    A    
C15   C17   S    
C38   H30   S    
C25   O7    A    
C8    C14   A    
C40   H31   S    
C12   C30   A    
C4    C26   S    
C35   N6    S    
C24   H34   S    
C6    H35   S    
C4    O3    A    
C36   N7    S    
C25   C27   S    
C32   N4    S    
C8    C17   S    
C31   N3    S    
C2    C3    A    
C5    N4    S    
C11   C13   A    
C7    N7    S    
C23   C39   A    
C21   N2    A    
C20   H32   S    
C35   H21   S    
C22   C24   S    
C32   H8    S    
C11   H10   S    
C10   C11   A    
C24   H27   S    
O6    Zn2   S    
C3    C37   A    
C26   C29   A    
C31   H4    S    
C13   C16   S    
C14   C15   S    
C21   C22   S    
C12   C34   A    
C17   H16   S    
