data_mof_unit_67839.cif
_audit_creation_date              2013-03-05T15:41:50-0500
_audit_creation_method            fapswitch 2.2
_symmetry_space_group_name_H-M    P1
_symmetry_Int_Tables_number       1
_space_group_crystal_system       triclinic
_cell_length_a                    7.780442
_cell_length_b                    8.562516
_cell_length_c                    10.473663
_cell_angle_alpha                 90.332481
_cell_angle_beta                  85.56052
_cell_angle_gamma                 93.686956
_cell_volume                      694.223516384

loop_
_atom_site_label
_atom_site_type_symbol
_atom_site_description
_atom_site_fract_x
_atom_site_fract_y
_atom_site_fract_z
_atom_type_partial_charge
O1    O     O_R   0.389250 0.738570 0.508410 -0.610695
O2    O     O_R   0.610750 0.261430 0.491590 -0.614015
O3    O     O_R   0.678390 0.711620 0.486450 -0.633209
O4    O     O_R   0.321610 0.288380 0.513550 -0.635605
C1    C     C_R   0.545826 0.794717 0.496447 0.980559
C2    C     C_R   0.454171 0.205284 0.503145 0.969216
O5    O     O_R   0.355460 0.513510 0.697030 -0.574992
O6    O     O_R   0.644540 0.486490 0.302970 -0.571656
O7    O     O_R   0.644600 0.486560 0.675070 -0.652805
O8    O     O_R   0.355400 0.513440 0.324930 -0.650615
C3    C     C_R   0.500970 0.496182 0.742210 0.997385
C4    C     C_R   0.499075 0.504265 0.257810 0.991435
Zn1   Zn    Zn3+2 0.306940 0.517990 0.514670 0.972765
Zn2   Zn    Zn3+2 0.693060 0.482010 0.485330 0.970067
N1    N     N_2   0.950320 0.457950 0.465730 -0.171715
N2    N     N_2   0.049680 0.542050 0.534270 -0.171469
C5    C     C_3   0.429228 0.628009 0.959122 0.537124
C6    C     C_3   0.569773 0.374385 0.040756 0.576436
C7    C     C_3   0.591428 0.629025 0.033840 0.408623
C8    C     C_3   0.408557 0.372786 0.966251 0.421780
C9    C     C_3   0.496708 0.505890 0.123329 -0.277546
C10   C     C_3   0.503212 0.495622 0.876694 -0.288847
C11   C     C_3   0.332097 0.504550 0.049686 -0.460077
C12   C     C_3   0.667046 0.497082 0.950723 -0.409761
H1    H     H_    0.198975 0.511489 0.094962 0.203842
H2    H     H_    0.801554 0.493318 0.907331 0.196841
H3    H     H_    0.013835 0.382768 0.404268 0.196147
H4    H     H_    0.986151 0.617206 0.595742 0.195850
C13   C     C_2   0.569876 0.958303 0.493789 -0.349841
C14   C     C_2   0.430113 0.041692 0.504892 -0.339815
H5    H     H_    0.701803 0.009544 0.482977 0.178516
H6    H     H_    0.298197 0.990453 0.515670 0.176642
O9    O     O_3   0.695332 0.754197 0.081945 -0.646419
C15   C     C_3   0.697698 0.889367 0.004779 0.140878
H7    H     H_    0.763214 0.985961 0.057104 0.214102
H8    H     H_    0.565784 0.926063 0.993549 0.217719
C16   C     C_3   0.799692 0.872557 0.874227 -0.415393
H9    H     H_    0.934596 0.845833 0.889198 0.247314
H10   H     H_    0.740694 0.775770 0.818203 0.229549
C17   C     C_3   0.800636 0.022476 0.795668 -0.849649
H11   H     H_    0.666989 0.045165 0.773667 0.290507
H12   H     H_    0.880547 0.009772 0.704070 0.251733
H13   H     H_    0.855123 0.124282 0.848812 0.264976
O10   O     O_3   0.328801 0.232902 0.919854 -0.624812
C18   C     C_3   0.184256 0.179262 0.001888 0.123151
H14   H     H_    0.118148 0.080924 0.951782 0.193377
H15   H     H_    0.088709 0.270149 0.016932 0.140068
C19   C     C_3   0.235498 0.116939 0.130273 -0.344947
H16   H     H_    0.338149 0.033663 0.112554 0.265561
H17   H     H_    0.285799 0.214842 0.189516 0.217369
C20   C     C_3   0.081628 0.033389 0.206283 -0.909024
H18   H     H_    0.974913 0.113063 0.223189 0.274259
H19   H     H_    0.121361 0.995920 0.300377 0.261466
H20   H     H_    0.035256 0.927792 0.153732 0.291732
F1    F     F_    0.353764 0.753433 0.908504 -0.680068
F2    F     F_    0.639320 0.245175 0.089673 -0.714013

loop_
_geom_bond_atom_site_label_1
_geom_bond_atom_site_label_2
_geom_bond_distance
_ccdc_geom_bond_type
N2    H4    1.029462 S    
O5    C3    1.277894 A    
O7    Zn2   1.994473 S    
C13   C14   1.336095 D    
C15   C16   1.537706 S    
C5    F1    1.383857 S    
C3    C10   1.410032 S    
C15   H8    1.107498 S    
C5    C10   1.535340 S    
O1    C1    1.277761 A    
C8    C11   1.544301 S    
C6    F2    1.380511 S    
O6    C4    1.278154 A    
C20   H20   1.110699 S    
C19   H17   1.109183 S    
O9    C15   1.413829 S    
Zn1   N2    2.019877 S    
C16   H10   1.108582 S    
C5    C11   1.544753 S    
C18   H14   1.109016 S    
C14   H6    1.087832 S    
O7    C3    1.280477 A    
O2    C2    1.277669 A    
O3    Zn2   1.976578 S    
O8    C4    1.280224 A    
C19   C20   1.525688 S    
C6    C12   1.537689 S    
C17   H12   1.110816 S    
C19   H16   1.108836 S    
C5    C7    1.535085 S    
C16   H9    1.111492 S    
C8    C10   1.527525 S    
C7    C12   1.541149 S    
C16   C17   1.528072 S    
C1    C13   1.401317 S    
C11   H1    1.110281 S    
C9    C11   1.544763 S    
O2    Zn2   1.954753 S    
C10   C12   1.541768 S    
C18   C19   1.539654 S    
O4    C2    1.287614 A    
O1    Zn1   1.954753 S    
C20   H19   1.110539 S    
N1    N2    1.280560 D    
C6    C9    1.527724 S    
O5    Zn1   1.976446 S    
O10   C18   1.415098 S    
C6    C8    1.526977 S    
C13   H5    1.087924 S    
C15   H7    1.108161 S    
C7    O9    1.414735 S    
C18   H15   1.112628 S    
O4    Zn1   1.976578 S    
Zn2   N1    2.019877 S    
C17   H11   1.111616 S    
O6    Zn2   1.976444 S    
C8    O10   1.414273 S    
C7    C9    1.529007 S    
N1    H3    1.029493 S    
C4    C9    1.410210 S    
C2    C14   1.401267 S    
C17   H13   1.110312 S    
C20   H18   1.111233 S    
C12   H2    1.110560 S    
O3    C1    1.287564 A    
O8    Zn1   1.994473 S    
