data_mof_unit_7880.cif
_audit_creation_date              2012-12-11T15:37:26-0500
_audit_creation_method            fapswitch 2.2
_symmetry_space_group_name_H-M    P1
_symmetry_Int_Tables_number       1
_space_group_crystal_system       triclinic
_cell_length_a                    17.626954
_cell_length_b                    25.36765
_cell_length_c                    15.061556
_cell_angle_alpha                 89.997115
_cell_angle_beta                  125.922423
_cell_angle_gamma                 89.992037
_cell_volume                      5453.95562362

loop_
_atom_site_label
_atom_site_type_symbol
_atom_type_description
_atom_site_fract_x
_atom_site_fract_y
_atom_site_fract_z
_atom_type_partial_charge
C1    C     C_R   0.829295 0.641522 0.905077 0.008054
C2    C     C_3   0.580083 0.499964 0.595199 0.169508
C3    C     C_3   0.068071 0.000181 0.485628 -0.124025
C4    C     C_R   0.774509 0.662477 0.792099 0.090632
C5    C     C_R   0.805507 0.652448 0.726315 -0.175728
C6    C     C_R   0.745819 0.658660 0.612908 -0.093470
C7    C     C_R   0.653248 0.673287 0.563507 -0.119786
C8    C     C_R   0.622442 0.685224 0.628142 -0.148038
C9    C     C_R   0.682806 0.680874 0.741918 -0.133629
C10   C     C_R   0.225460 0.337514 0.207907 0.090598
C11   C     C_R   0.317151 0.319094 0.258083 -0.133661
C12   C     C_R   0.377519 0.314746 0.371858 -0.147987
C13   C     C_3   0.919928 0.000036 0.404695 0.169518
C14   C     C_R   0.346730 0.326711 0.436501 -0.119738
C15   C     C_R   0.254172 0.341366 0.387107 -0.093471
C16   C     C_R   0.194480 0.347572 0.273699 -0.175708
C17   C     C_R   0.224974 0.662637 0.207774 0.090479
C18   C     C_R   0.193928 0.652403 0.273438 -0.176640
C19   C     C_R   0.253295 0.658889 0.386760 -0.093747
C20   C     C_R   0.345558 0.674145 0.436219 -0.117554
C21   C     C_R   0.376393 0.686314 0.371694 -0.146344
C22   C     C_R   0.316390 0.681514 0.257987 -0.133921
C23   C     C_R   0.775003 0.337370 0.792230 0.090499
C24   C     C_3   0.080083 0.999964 0.595191 0.169505
C25   C     C_R   0.683577 0.318510 0.742015 -0.133891
C26   C     C_R   0.623574 0.313711 0.628307 -0.146393
C27   C     C_R   0.654419 0.325860 0.563786 -0.117604
C28   C     C_R   0.746694 0.341094 0.613250 -0.093742
C29   C     C_R   0.806061 0.347582 0.726573 -0.176652
C30   C     C_R   0.274517 0.162478 0.792099 0.090621
C31   C     C_R   0.305515 0.152446 0.726317 -0.175748
C32   C     C_R   0.245830 0.158662 0.612911 -0.093483
C33   C     C_R   0.153264 0.173301 0.563509 -0.119751
C34   C     C_R   0.122459 0.185243 0.628144 -0.147998
C35   C     C_R   0.812955 0.244746 0.972356 -0.160192
C36   C     C_R   0.182818 0.180884 0.741918 -0.133634
C37   C     C_R   0.725469 0.837516 0.207908 0.090610
C38   C     C_R   0.817165 0.819107 0.258082 -0.133652
C39   C     C_R   0.877543 0.814773 0.371858 -0.148037
C40   C     C_R   0.846758 0.826734 0.436505 -0.119788
C41   C     C_R   0.754194 0.841373 0.387114 -0.093459
C42   C     C_R   0.694492 0.847570 0.273705 -0.175690
C43   C     C_R   0.724975 0.162637 0.207776 0.090477
C44   C     C_R   0.693934 0.152401 0.273444 -0.176614
C45   C     C_R   0.753307 0.158880 0.386768 -0.093733
C46   C     C_R   0.187029 0.755272 0.027661 -0.160220
C47   C     C_R   0.845575 0.174128 0.436225 -0.117591
C48   C     C_R   0.876405 0.186300 0.371696 -0.146380
C49   C     C_R   0.816393 0.181510 0.257987 -0.133915
C50   C     C_R   0.275010 0.837368 0.792230 0.090495
C51   C     C_R   0.183588 0.818499 0.742013 -0.133895
C52   C     C_R   0.123594 0.813688 0.628308 -0.146348
C53   C     C_R   0.154444 0.825840 0.563790 -0.117551
C54   C     C_R   0.246713 0.841087 0.613256 -0.093757
C55   C     C_R   0.306071 0.847583 0.726576 -0.176674
C56   C     C_R   0.961269 0.336192 0.195841 0.069538
C57   C     C_R   0.186868 0.244863 0.027441 -0.159567
C58   C     C_R   0.925146 0.344494 0.256360 -0.119081
C59   C     C_R   0.958778 0.314751 0.350316 0.008204
C60   C     C_R   0.031564 0.279143 0.387364 -0.108934
C61   C     C_R   0.061581 0.267077 0.322334 -0.104809
C62   C     C_R   0.022519 0.293724 0.223495 -0.152983
C63   C     C_R   0.038701 0.663823 0.804160 0.069528
C64   C     C_R   0.977475 0.706301 0.776537 -0.152941
C65   C     C_R   0.938401 0.732951 0.677699 -0.104842
C66   C     C_R   0.968378 0.720876 0.612634 -0.109050
C67   C     C_R   0.041141 0.685257 0.649648 0.008237
C68   C     C_R   0.813119 0.755115 0.972590 -0.159514
C69   C     C_R   0.074791 0.655514 0.743608 -0.119119
C70   C     C_R   0.039393 0.336474 0.804214 0.069570
C71   C     C_R   0.076250 0.344756 0.744468 -0.118399
C72   C     C_R   0.043415 0.314916 0.650860 0.008758
C73   C     C_R   0.970510 0.279342 0.613192 -0.105325
C74   C     C_R   0.939594 0.267385 0.677362 -0.104923
C75   C     C_R   0.978009 0.294039 0.776023 -0.153434
C76   C     C_R   0.960573 0.663510 0.195783 0.069582
C77   C     C_R   0.021976 0.705936 0.223996 -0.153482
C78   C     C_R   0.060377 0.732591 0.322653 -0.104899
C79   C     C_R   0.312945 0.744745 0.972340 -0.160207
C80   C     C_R   0.029426 0.720645 0.386792 -0.105222
C81   C     C_R   0.956504 0.685080 0.349099 0.008735
C82   C     C_R   0.923686 0.655236 0.255500 -0.118355
C83   C     C_R   0.461281 0.836187 0.195841 0.069538
C84   C     C_R   0.425175 0.844490 0.256377 -0.119095
C85   C     C_R   0.458820 0.814747 0.350336 0.008209
C86   C     C_R   0.531600 0.779137 0.387368 -0.108989
C87   C     C_R   0.561599 0.767069 0.322321 -0.104803
C88   C     C_R   0.522526 0.793717 0.223481 -0.152977
C89   C     C_R   0.538715 0.163816 0.804157 0.069533
C90   C     C_R   0.687013 0.255275 0.027644 -0.160206
C91   C     C_R   0.477477 0.206291 0.776508 -0.152964
C92   C     C_R   0.438419 0.232937 0.677671 -0.104841
C93   C     C_R   0.468430 0.220865 0.612636 -0.108942
C94   C     C_R   0.541206 0.185251 0.649680 0.008236
C95   C     C_R   0.574833 0.155508 0.743634 -0.119101
C96   C     C_R   0.539407 0.836479 0.804215 0.069574
C97   C     C_R   0.576286 0.844759 0.744491 -0.118383
C98   C     C_R   0.543469 0.814917 0.650891 0.008766
C99   C     C_R   0.470558 0.779345 0.613205 -0.105247
C100  C     C_R   0.439617 0.767392 0.677351 -0.104926
C101  C     C_R   0.686843 0.744861 0.027411 -0.159533
C102  C     C_R   0.478017 0.794047 0.776008 -0.153450
C103  C     C_R   0.460592 0.163518 0.195785 0.069574
C104  C     C_R   0.521988 0.205946 0.223979 -0.153454
C105  C     C_R   0.560408 0.232601 0.322642 -0.104894
C106  C     C_R   0.529486 0.220650 0.386808 -0.105320
C107  C     C_R   0.456570 0.185083 0.349135 0.008727
C108  C     C_R   0.423730 0.155242 0.255527 -0.118378
C109  C     C_R   0.170679 0.358463 0.094923 0.008037
C110  C     C_R   0.313099 0.255117 0.972559 -0.159552
C111  C     C_R   0.269671 0.700670 0.976019 -0.184839
C112  C     C_R   0.730285 0.299350 0.023963 -0.184873
C113  C     C_R   0.729800 0.700677 0.023513 -0.185662
C114  C     C_R   0.270136 0.299297 0.976451 -0.185615
C115  C     C_R   0.769684 0.200670 0.976037 -0.184864
C116  C     C_R   0.230302 0.799347 0.023980 -0.184850
C117  C     C_R   0.229831 0.200681 0.023549 -0.185620
C118  C     C_R   0.770163 0.799298 0.976487 -0.185657
C119  C     C_R   0.207493 0.706485 0.003877 0.149111
C120  C     C_R   0.170481 0.641629 0.094867 0.008170
C121  C     C_R   0.792477 0.293534 0.996123 0.149122
C122  C     C_R   0.792182 0.706358 0.995933 0.149587
C123  C     C_R   0.207779 0.293617 0.004064 0.149571
C124  C     C_R   0.707492 0.206486 0.003879 0.149124
C125  C     C_R   0.292481 0.793532 0.996123 0.149109
C126  C     C_R   0.292190 0.206362 0.995937 0.149570
C127  C     C_R   0.707782 0.793617 0.004067 0.149590
C128  C     C_R   0.968215 0.452600 0.513086 0.320501
C129  C     C_R   0.031723 0.547401 0.486875 0.320502
C130  C     C_R   0.032223 0.452683 0.487288 0.320530
C131  C     C_R   0.829501 0.358381 0.905134 0.008185
C132  C     C_R   0.967715 0.547317 0.512673 0.320528
C133  C     C_R   0.468255 0.952599 0.513112 0.320501
C134  C     C_R   0.531767 0.047399 0.486903 0.320505
C135  C     C_R   0.532263 0.952682 0.487313 0.320533
C136  C     C_R   0.467758 0.047317 0.512701 0.320528
C137  C     C_R   0.054425 0.500062 0.460187 -0.141121
C138  C     C_R   0.945519 0.499938 0.539780 -0.141088
C139  C     C_R   0.554463 0.000061 0.460209 -0.141100
C140  C     C_R   0.445556 0.999938 0.539802 -0.141117
C141  C     C_R   0.915738 0.361524 0.088773 0.013521
C142  C     C_R   0.329300 0.141525 0.905077 0.008060
C143  C     C_R   0.084245 0.638488 0.911227 0.013511
C144  C     C_R   0.084530 0.361653 0.911320 0.013670
C145  C     C_R   0.915447 0.638331 0.088679 0.013682
C146  C     C_R   0.415742 0.861522 0.088774 0.013520
C147  C     C_R   0.584248 0.138488 0.911229 0.013511
C148  C     C_R   0.584535 0.861656 0.911322 0.013673
C149  C     C_R   0.415455 0.138335 0.088681 0.013680
C150  C     C_R   0.045650 0.544330 0.302413 -0.143043
C151  C     C_R   0.954334 0.455670 0.697579 -0.143028
C152  C     C_R   0.954305 0.544297 0.697531 -0.143174
C153  C     C_R   0.670681 0.858463 0.094923 0.008028
C154  C     C_R   0.045679 0.455703 0.302461 -0.143191
C155  C     C_R   0.545660 0.044330 0.302418 -0.143044
C156  C     C_R   0.454344 0.955670 0.697584 -0.143032
C157  C     C_R   0.454315 0.044297 0.697536 -0.143176
C158  C     C_R   0.545689 0.955703 0.302465 -0.143186
C159  C     C_R   0.729054 0.456721 0.732856 -0.124470
C160  C     C_R   0.270946 0.543279 0.267093 -0.124452
C161  C     C_R   0.270997 0.456785 0.267131 -0.124874
C162  C     C_R   0.729003 0.543215 0.732811 -0.124896
C163  C     C_R   0.229054 0.956720 0.732852 -0.124464
C164  C     C_R   0.670479 0.141631 0.094867 0.008164
C165  C     C_R   0.770946 0.043279 0.267085 -0.124447
C166  C     C_R   0.770997 0.956786 0.267126 -0.124880
C167  C     C_R   0.229003 0.043215 0.732809 -0.124895
C168  C     C_R   0.838160 0.660941 0.995162 -0.067560
C169  C     C_R   0.161801 0.339034 0.004837 -0.067540
C170  C     C_R   0.161426 0.661147 0.004715 -0.067234
C171  C     C_R   0.838545 0.338872 0.995285 -0.067247
C172  C     C_R   0.338170 0.160946 0.995164 -0.067552
C173  C     C_R   0.661807 0.839036 0.004839 -0.067549
C174  C     C_R   0.661427 0.161148 0.004717 -0.067237
C175  C     C_R   0.329502 0.858380 0.905133 0.008190
C176  C     C_R   0.338550 0.838869 0.995285 -0.067244
C177  C     C_R   0.055864 0.500031 0.363264 0.185408
C178  C     C_R   0.944107 0.499970 0.636722 0.185372
C179  C     C_R   0.555882 0.000030 0.363273 0.185387
C180  C     C_R   0.444125 0.999969 0.636730 0.185395
C181  C     C_R   0.673231 0.499959 0.696674 0.005493
C182  C     C_R   0.326770 0.500040 0.303244 0.005474
C183  C     C_R   0.173230 0.999959 0.696668 0.005497
C184  C     C_R   0.826770 0.000041 0.303235 0.005465
C185  C     C_3   0.506924 0.456391 0.555340 -0.155111
C186  C     C_3   0.419927 0.500035 0.404704 0.169516
C187  C     C_3   0.493086 0.543608 0.444563 -0.155112
C188  C     C_3   0.493298 0.456604 0.444181 -0.154908
C189  C     C_3   0.506711 0.543395 0.555722 -0.154913
C190  C     C_3   0.006926 0.956389 0.555327 -0.155116
C191  C     C_3   0.993085 0.043611 0.444559 -0.155116
C192  C     C_3   0.993302 0.956607 0.444169 -0.154905
C193  C     C_3   0.006709 0.043393 0.555718 -0.154905
C194  C     C_3   0.431942 0.499822 0.514270 -0.124022
C195  C     C_3   0.568069 0.500177 0.485634 -0.124017
C196  C     C_3   0.931942 0.999818 0.514260 -0.124011
Cl1   Cl    Cl    0.894544 0.397973 0.477802 -0.740328
Cl2   Cl    Cl    0.105395 0.602029 0.522168 -0.740306
Cl3   Cl    Cl    0.106361 0.398252 0.522805 -0.740774
Cl4   Cl    Cl    0.893581 0.601749 0.477170 -0.740791
Cl5   Cl    Cl    0.394585 0.897971 0.477825 -0.740314
Cl6   Cl    Cl    0.605441 0.102025 0.522192 -0.740325
Cl7   Cl    Cl    0.606396 0.898250 0.522818 -0.740783
Cl8   Cl    Cl    0.393625 0.101750 0.477191 -0.740776
H1    H     H_    0.060815 0.584433 0.329660 0.178221
H2    H     H_    0.298635 0.581172 0.298003 0.142056
H3    H     H_    0.041813 0.717345 0.170888 0.116116
H4    H     H_    0.113090 0.762625 0.348557 0.125055
H5    H     H_    0.059895 0.739363 0.464681 0.110112
H6    H     H_    0.926787 0.680472 0.393698 0.180325
H7    H     H_    0.868704 0.626520 0.228543 0.134749
H8    H     H_    0.370333 0.873245 0.229951 0.135299
H9    H     H_    0.429907 0.819509 0.395770 0.181088
H10   H     H_    0.562688 0.760467 0.465461 0.111986
H11   H     H_    0.614182 0.736992 0.347767 0.125573
H12   H     H_    0.541886 0.782350 0.169895 0.115685
H13   H     H_    0.298800 0.418948 0.298214 0.142751
H14   H     H_    0.458112 0.217663 0.830087 0.115690
H15   H     H_    0.385841 0.263018 0.652218 0.125566
H16   H     H_    0.437355 0.239535 0.534546 0.111951
H17   H     H_    0.570132 0.180487 0.604259 0.181077
H18   H     H_    0.629674 0.126751 0.770070 0.135290
H19   H     H_    0.631262 0.873479 0.771445 0.134753
H20   H     H_    0.573179 0.819532 0.606284 0.180336
H21   H     H_    0.440091 0.760629 0.535315 0.110115
H22   H     H_    0.386913 0.737353 0.651452 0.125060
H23   H     H_    0.458186 0.782633 0.829120 0.116113
H24   H     H_    0.701208 0.581048 0.701696 0.142776
H25   H     H_    0.541810 0.217355 0.170857 0.116108
H26   H     H_    0.613115 0.262637 0.348533 0.125072
H27   H     H_    0.559971 0.239365 0.464704 0.110162
H28   H     H_    0.426876 0.180470 0.393759 0.180343
H29   H     H_    0.368754 0.126523 0.228587 0.134766
H30   H     H_    0.201374 0.918829 0.701923 0.142064
H31   H     H_    0.798636 0.081172 0.297992 0.142062
H32   H     H_    0.798802 0.918950 0.298211 0.142766
H33   H     H_    0.201208 0.081049 0.701698 0.142767
H34   H     H_    0.373384 0.499677 0.522610 0.137973
H35   H     H_    0.626628 0.500322 0.477297 0.137993
H36   H     H_    0.873383 0.999670 0.522599 0.137976
H37   H     H_    0.939161 0.415568 0.670330 0.178215
H38   H     H_    0.126632 0.000330 0.477292 0.137988
H39   H     H_    0.514448 0.421019 0.603338 0.120396
H40   H     H_    0.485560 0.578981 0.396565 0.120389
H41   H     H_    0.485948 0.421412 0.395866 0.120539
H42   H     H_    0.514059 0.578586 0.604037 0.120548
H43   H     H_    0.014452 0.921015 0.603322 0.120392
H44   H     H_    0.985559 0.078985 0.396565 0.120391
H45   H     H_    0.985955 0.921417 0.395851 0.120541
H46   H     H_    0.014056 0.078583 0.604035 0.120544
H47   H     H_    0.862238 0.241130 0.951779 0.119101
H48   H     H_    0.939083 0.584391 0.670207 0.178234
H49   H     H_    0.137754 0.758887 0.048250 0.119109
H50   H     H_    0.137444 0.241350 0.047822 0.118730
H51   H     H_    0.862560 0.758627 0.952233 0.118714
H52   H     H_    0.362218 0.741129 0.951750 0.119110
H53   H     H_    0.637728 0.258891 0.048220 0.119100
H54   H     H_    0.637402 0.741349 0.047767 0.118713
H55   H     H_    0.362520 0.258629 0.952175 0.118731
H56   H     H_    0.284369 0.662311 0.957661 0.126861
H57   H     H_    0.715572 0.337711 0.042304 0.126856
H58   H     H_    0.714726 0.662343 0.041527 0.126675
H59   H     H_    0.060893 0.415609 0.329784 0.178239
H60   H     H_    0.285186 0.337629 0.958408 0.126678
H61   H     H_    0.784395 0.162310 0.957694 0.126855
H62   H     H_    0.215602 0.837706 0.042336 0.126859
H63   H     H_    0.214777 0.162349 0.041587 0.126678
H64   H     H_    0.785236 0.837632 0.958472 0.126675
H65   H     H_    0.871851 0.633623 0.760817 0.130423
H66   H     H_    0.769539 0.648504 0.563105 0.165456
H67   H     H_    0.605085 0.673789 0.475104 0.101271
H68   H     H_    0.550601 0.695163 0.590545 0.102174
H69   H     H_    0.654444 0.686606 0.788298 0.129753
H70   H     H_    0.560829 0.084432 0.329667 0.178215
H71   H     H_    0.345504 0.313340 0.211699 0.129772
H72   H     H_    0.449350 0.304781 0.409450 0.102155
H73   H     H_    0.394894 0.326208 0.524903 0.101244
H74   H     H_    0.230464 0.351542 0.436915 0.165445
H75   H     H_    0.128145 0.366407 0.239201 0.130422
H76   H     H_    0.127767 0.633367 0.238934 0.130500
H77   H     H_    0.229569 0.648588 0.436495 0.165548
H78   H     H_    0.393448 0.674941 0.524608 0.100217
H79   H     H_    0.447994 0.696917 0.409369 0.101581
H80   H     H_    0.344827 0.687454 0.211744 0.130076
H81   H     H_    0.439177 0.915567 0.670337 0.178221
H82   H     H_    0.655135 0.312585 0.788255 0.130066
H83   H     H_    0.551966 0.303126 0.590629 0.101601
H84   H     H_    0.606528 0.325067 0.475396 0.100248
H85   H     H_    0.770428 0.351382 0.563518 0.165559
H86   H     H_    0.872229 0.366610 0.761079 0.130500
H87   H     H_    0.371855 0.133616 0.760818 0.130426
H88   H     H_    0.269550 0.148502 0.563108 0.165446
H89   H     H_    0.105106 0.173808 0.475106 0.101253
H90   H     H_    0.050623 0.195196 0.590546 0.102163
H91   H     H_    0.154455 0.186621 0.788297 0.129760
H92   H     H_    0.439099 0.084391 0.670214 0.178239
H93   H     H_    0.845515 0.813356 0.211693 0.129764
H94   H     H_    0.949380 0.804825 0.409446 0.102172
H95   H     H_    0.894930 0.826240 0.524907 0.101267
H96   H     H_    0.730488 0.851547 0.436926 0.165451
H97   H     H_    0.628153 0.866401 0.239208 0.130418
H98   H     H_    0.627771 0.133367 0.238940 0.130497
H99   H     H_    0.729585 0.148577 0.436505 0.165559
H100  H     H_    0.893471 0.174918 0.524614 0.100238
H101  H     H_    0.948008 0.196895 0.409368 0.101593
H102  H     H_    0.844827 0.187451 0.211740 0.130075
H103  H     H_    0.560907 0.915609 0.329788 0.178236
H104  H     H_    0.155142 0.812572 0.788250 0.130070
H105  H     H_    0.051991 0.803090 0.590627 0.101585
H106  H     H_    0.106560 0.825038 0.475402 0.100221
H107  H     H_    0.270449 0.851376 0.563527 0.165554
H108  H     H_    0.372235 0.866615 0.761083 0.130504
H109  H     H_    0.870299 0.373248 0.229922 0.135288
H110  H     H_    0.929849 0.319510 0.395733 0.181076
H111  H     H_    0.062642 0.260474 0.465456 0.111955
H112  H     H_    0.114168 0.237001 0.347791 0.125563
H113  H     H_    0.041889 0.282356 0.169919 0.115692
H114  H     H_    0.701373 0.418830 0.701928 0.142078
H115  H     H_    0.958129 0.717672 0.830133 0.115679
H116  H     H_    0.885833 0.763035 0.652268 0.125584
H117  H     H_    0.937286 0.739546 0.534541 0.112003
H118  H     H_    0.070038 0.680488 0.604198 0.181097
H119  H     H_    0.129621 0.626753 0.770021 0.135312
H120  H     H_    0.131219 0.373478 0.771407 0.134768
H121  H     H_    0.073105 0.319534 0.606233 0.180347
H122  H     H_    0.940028 0.260626 0.535298 0.110155
H123  H     H_    0.886895 0.237344 0.651474 0.125073
H124  H     H_    0.958192 0.282625 0.829148 0.116106
N1    N     N_R   0.892620 0.603790 0.941800 -0.068030
N2    N     N_R   0.047790 0.602400 0.942090 -0.071655
N3    N     N_R   0.047790 0.397600 0.942090 -0.071750
N4    N     N_R   0.952210 0.602400 0.057910 -0.071756
N5    N     N_R   0.452210 0.897600 0.057910 -0.071658
N6    N     N_R   0.547790 0.102400 0.942090 -0.071656
N7    N     N_R   0.547790 0.897600 0.942090 -0.071752
N8    N     N_R   0.452210 0.102400 0.057910 -0.071754
N9    N     N_R   0.026300 0.529110 0.206760 -0.056281
N10   N     N_R   0.973700 0.470890 0.793240 -0.056278
N11   N     N_R   0.973700 0.529110 0.793240 -0.056216
N12   N     N_R   0.107380 0.396210 0.058200 -0.068025
N13   N     N_R   0.026300 0.470890 0.206760 -0.056220
N14   N     N_R   0.526300 0.029110 0.206760 -0.056279
N15   N     N_R   0.473700 0.970890 0.793240 -0.056280
N16   N     N_R   0.473700 0.029110 0.793240 -0.056218
N17   N     N_R   0.526300 0.970890 0.206760 -0.056218
N18   N     N_R   0.818530 0.472270 0.792960 -0.039384
N19   N     N_R   0.181470 0.527730 0.207040 -0.039388
N20   N     N_R   0.181470 0.472270 0.207040 -0.039375
N21   N     N_R   0.818530 0.527730 0.792960 -0.039370
N22   N     N_R   0.318530 0.972270 0.792960 -0.039385
N23   N     N_R   0.107380 0.603790 0.058200 -0.068043
N24   N     N_R   0.681470 0.027730 0.207040 -0.039389
N25   N     N_R   0.681470 0.972270 0.207040 -0.039375
N26   N     N_R   0.318530 0.027730 0.792960 -0.039371
N27   N     N_R   0.892620 0.396210 0.941800 -0.068047
N28   N     N_R   0.392620 0.103790 0.941800 -0.068030
N29   N     N_R   0.607380 0.896210 0.058200 -0.068023
N30   N     N_R   0.607380 0.103790 0.058200 -0.068042
N31   N     N_R   0.392620 0.896210 0.941800 -0.068048
N32   N     N_R   0.952210 0.397600 0.057910 -0.071660
Ni1   Ni    Ni4+2 0.934150 0.565840 0.869060 0.204537
Ni2   Ni    Ni4+2 0.065850 0.434160 0.130940 0.204535
Ni3   Ni    Ni4+2 0.065850 0.565840 0.130940 0.204486
Ni4   Ni    Ni4+2 0.934150 0.434160 0.869060 0.204489
Ni5   Ni    Ni4+2 0.434150 0.065840 0.869060 0.204536
Ni6   Ni    Ni4+2 0.565850 0.934160 0.130940 0.204535
Ni7   Ni    Ni4+2 0.565850 0.065840 0.130940 0.204487
Ni8   Ni    Ni4+2 0.434150 0.934160 0.869060 0.204487

loop_
_geom_bond_atom_site_label_1
_geom_bond_atom_site_label_2
_ccdc_geom_bond_type
C96   C102  A    
C6    H66   S    
C149  C172  A    
C101  C113  A    
C19   C20   A    
C136  C140  A    
C135  C139  A    
C131  C171  A    
C93   H16   S    
C161  H13   S    
C5    C6    A    
N6    N30   A    
C106  C107  A    
N22   N26   A    
C153  C173  A    
C2    C195  S    
C73   C74   A    
C25   H82   S    
C114  H60   S    
C128  Cl1   S    
C154  H59   S    
C27   H84   S    
C189  C194  S    
C113  C122  A    
C146  C176  A    
C94   H17   S    
N12   Ni2   S    
C141  C171  A    
C35   C115  A    
C144  N3    A    
C117  C126  A    
C91   C92   A    
C72   C73   A    
C1    N1    A    
C83   C88   A    
C59   C60   A    
C21   C22   A    
N8    N28   A    
C104  C105  A    
C120  N23   A    
C45   C47   A    
C133  Cl5   S    
C95   H18   S    
C163  C183  A    
C51   C52   A    
C64   H115  S    
C166  C184  A    
C49   H102  S    
C4    C5    A    
C135  Cl7   S    
C72   H121  S    
C144  C169  A    
C97   H19   S    
C145  N4    A    
C55   H108  S    
C37   C38   A    
C57   C123  A    
C67   H118  S    
C175  C176  A    
C13   C184  S    
N24   N25   A    
C159  C181  A    
C58   H109  S    
C159  H114  S    
N23   Ni3   S    
C56   C141  S    
C165  H31   S    
C56   C62   A    
C111  H56   S    
C39   C40   A    
C134  Cl6   S    
C74   H123  S    
C161  N20   A    
C167  N26   A    
C70   C144  S    
N2    N23   A    
C15   H74   S    
C148  C173  A    
C187  H40   S    
C157  N16   A    
N14   N17   A    
C147  N6    A    
C162  H24   S    
C6    C7    A    
C30   C36   A    
C159  N18   A    
C105  H26   S    
C156  N15   A    
C21   H79   S    
C26   H83   S    
C163  H30   S    
C22   H80   S    
C64   C65   A    
N25   Ni6   S    
C156  C180  A    
C104  H25   S    
C140  C180  S    
C39   H94   S    
C139  C179  S    
C160  H2    S    
C129  C137  A    
C20   C21   A    
C98   C99   A    
C154  C177  A    
C133  C135  A    
C24   C190  S    
C186  C187  S    
C29   H86   S    
C145  C168  A    
C142  N28   A    
C97   C98   A    
C147  C174  A    
C7    C8    A    
C85   C86   A    
C23   C29   A    
C157  H92   S    
C9    H69   S    
C48   H101  S    
C116  H62   S    
C77   H3    S    
C38   C39   A    
C41   H96   S    
C78   C80   A    
C124  C174  S    
C131  N27   A    
C57   H50   S    
C10   C109  S    
C111  C119  A    
C128  C138  A    
C17   C120  S    
N21   Ni1   S    
C54   H107  S    
C61   H112  S    
C63   C69   A    
C13   C196  S    
C98   H20   S    
C107  C108  A    
C151  N10   A    
C89   C91   A    
C110  C114  A    
C46   H49   S    
C65   H116  S    
C43   C164  S    
C66   C67   A    
C79   C125  A    
N26   Ni5   S    
C3    C24   S    
C155  H70   S    
C156  H81   S    
C109  C169  A    
C166  H32   S    
C19   H77   S    
C15   C16   A    
N19   Ni3   S    
C126  C172  S    
C162  C181  A    
C76   C82   A    
C134  C139  A    
N15   Ni8   S    
C25   C26   A    
N11   Ni1   S    
C50   C175  S    
C2    C181  S    
C92   H15   S    
C86   H10   S    
C151  H37   S    
C109  N12   A    
C83   C84   A    
C193  C196  S    
C17   C18   A    
C23   C131  S    
C188  H41   S    
C193  H46   S    
C194  H34   S    
C100  H22   S    
C110  C126  A    
C150  C177  A    
C114  C123  A    
C62   H113  S    
C116  C125  A    
C163  N22   A    
C118  C127  A    
N16   Ni5   S    
C130  Cl3   S    
C152  H48   S    
C52   C53   A    
N18   N21   A    
C89   C147  S    
C54   C55   A    
C189  H42   S    
C186  C194  S    
C143  C170  A    
C167  H33   S    
C2    C185  S    
C112  C121  A    
C8    H68   S    
C3    C192  S    
C141  N32   A    
C130  C137  A    
C68   H51   S    
C101  C127  A    
C56   C58   A    
C34   C36   A    
C113  H58   S    
C45   H99   S    
C61   C62   A    
C78   H4    S    
C10   C11   A    
C63   C64   A    
N3    Ni4   S    
C70   C75   A    
C63   C143  S    
C14   C15   A    
C148  N7    A    
C4    C9    A    
C75   H124  S    
C125  C176  S    
C42   H97   S    
C87   C88   A    
C41   C42   A    
C47   H100  S    
C185  C194  S    
C77   C78   A    
N27   Ni4   S    
C26   C27   A    
C13   C192  S    
C154  N13   A    
C149  N8    A    
C28   C29   A    
C28   H85   S    
C30   C31   A    
C132  C138  A    
C106  H27   S    
C18   C19   A    
C182  C186  S    
C188  C195  S    
C161  C182  A    
C79   H52   S    
C164  C174  A    
C70   C71   A    
N10   Ni4   S    
C112  H57   S    
C129  C132  A    
C81   H6    S    
N28   Ni5   S    
C107  H28   S    
C24   C183  S    
C191  H44   S    
N30   Ni7   S    
C20   H78   S    
C152  N11   A    
C155  C179  A    
C96   C148  S    
N24   Ni7   S    
C122  C168  S    
C37   C153  S    
C35   C121  A    
C84   C85   A    
C150  H1    S    
C59   H110  S    
C164  N30   A    
C68   C122  A    
N19   N20   A    
C86   C87   A    
C151  C178  A    
C1    C168  A    
N29   Ni6   S    
C53   C54   A    
N17   Ni6   S    
C60   C61   A    
C157  C180  A    
C89   C95   A    
C158  C179  A    
C191  C193  S    
C132  Cl4   S    
C83   C146  S    
N1    Ni1   S    
C101  H54   S    
C66   H117  S    
C35   H47   S    
C50   C51   A    
C71   H120  S    
C53   H106  S    
C99   H21   S    
C166  N25   A    
C18   H76   S    
C14   H73   S    
N20   Ni2   S    
C48   C49   A    
C76   C145  S    
N4    Ni3   S    
N5    N31   A    
C175  N31   A    
C186  C188  S    
C150  N9    A    
C44   C45   A    
C57   C117  A    
C195  H35   S    
C190  C192  S    
C115  C124  A    
C165  C184  A    
C90   C124  A    
C40   H95   S    
C128  C130  A    
C84   H8    S    
C105  C106  A    
C5    H65   S    
C17   C22   A    
C30   C142  S    
C46   C116  A    
C32   C33   A    
C91   H14   S    
C7    H67   S    
C58   C59   A    
N18   Ni4   S    
C110  H55   S    
N2    Ni1   S    
C120  C170  A    
C92   C93   A    
C31   H87   S    
C94   C95   A    
C103  C149  S    
C71   C72   A    
C133  C140  A    
C103  C104  A    
C87   H11   S    
N7    N29   A    
C90   H53   S    
C3    H38   S    
N9    N13   A    
C115  H61   S    
C80   H5    S    
C127  C173  S    
N15   N16   A    
N9    Ni3   S    
C93   C94   A    
C2    C189  S    
C90   C112  A    
C43   C44   A    
C12   H72   S    
N32   Ni2   S    
C81   C82   A    
C185  H39   S    
C153  N29   A    
C190  H43   S    
N7    Ni8   S    
C146  N5    A    
C16   H75   S    
C85   H9    S    
N3    N12   A    
C192  H45   S    
C143  N2    A    
C52   H105  S    
C36   H91   S    
C167  C183  A    
C44   H98   S    
C8    C9    A    
C158  H103  S    
C103  C108  A    
C129  Cl2   S    
C162  N21   A    
C190  C196  S    
C68   C118  A    
C73   H122  S    
N27   N32   A    
C34   H90   S    
N5    Ni6   S    
C160  C182  A    
C37   C42   A    
C60   H111  S    
C160  N19   A    
C74   C75   A    
C47   C48   A    
C76   C77   A    
C10   C16   A    
C43   C49   A    
C185  C188  S    
C134  C136  A    
C51   H104  S    
C67   C69   A    
C3    C191  S    
C99   C100  A    
C69   H119  S    
C96   C97   A    
C100  C102  A    
C33   C34   A    
C117  H63   S    
C11   H71   S    
C123  C169  S    
C158  N17   A    
C32   H88   S    
C40   C41   A    
C121  C171  S    
C12   C14   A    
N10   N11   A    
N1    N4    A    
C118  H64   S    
N13   Ni2   S    
C138  C178  S    
C136  Cl8   S    
C142  C172  A    
C82   H7    S    
C196  H36   S    
C108  H29   S    
C88   H12   S    
C187  C195  S    
C31   C32   A    
C165  N24   A    
C80   C81   A    
C155  N14   A    
C11   C12   A    
C50   C55   A    
C13   C191  S    
C79   C111  A    
C1    C4    S    
N14   Ni7   S    
C24   C193  S    
N31   Ni8   S    
N8    Ni7   S    
N22   Ni8   S    
C102  H23   S    
C46   C119  A    
N6    Ni5   S    
C23   C25   A    
C152  C178  A    
C187  C189  S    
C119  C170  S    
C137  C177  S    
C38   H93   S    
C65   C66   A    
C27   C28   A    
C33   H89   S    
