data_mof_unit_10511.cif
_audit_creation_date              2012-12-10T20:53:04-0500
_audit_creation_method            fapswitch 2.2
_symmetry_space_group_name_H-M    P1
_symmetry_Int_Tables_number       1
_space_group_crystal_system       triclinic
_cell_length_a                    18.834725
_cell_length_b                    18.834929
_cell_length_c                    18.834988
_cell_angle_alpha                 58.083254
_cell_angle_beta                  58.083476
_cell_angle_gamma                 58.083482
_cell_volume                      4517.06806949

loop_
_atom_site_label
_atom_site_type_symbol
_atom_type_description
_atom_site_fract_x
_atom_site_fract_y
_atom_site_fract_z
_atom_type_partial_charge
C1    C     C_R   0.391710 0.105136 0.114977 0.789099
C2    C     C_R   0.608290 0.894862 0.885026 0.789099
C3    C     C_R   0.105135 0.114977 0.391709 0.789093
C4    C     C_R   0.894867 0.885019 0.608291 0.789094
C5    C     C_R   0.114974 0.391710 0.105138 0.789090
C6    C     C_R   0.885025 0.608290 0.894861 0.789095
C7    C     C_R   0.158295 0.651744 0.170612 -0.275418
C8    C     C_R   0.841697 0.348246 0.829390 -0.275445
C9    C     C_R   0.651760 0.170618 0.158304 -0.275467
C10   C     C_R   0.348241 0.829384 0.841692 -0.275392
C11   C     C_R   0.170611 0.158306 0.651753 -0.275453
C12   C     C_R   0.829382 0.841714 0.348232 -0.275423
C13   C     C_R   0.139474 0.596043 0.259796 -0.164208
C14   C     C_R   0.860514 0.403963 0.740211 -0.164167
C15   C     C_R   0.596045 0.259797 0.139483 -0.164185
C16   C     C_R   0.403962 0.740206 0.860511 -0.164220
C17   C     C_R   0.259791 0.139486 0.596036 -0.164159
C18   C     C_R   0.740203 0.860530 0.403952 -0.164225
C19   C     C_R   0.053701 0.591118 0.311172 0.147190
C20   C     C_R   0.946292 0.408879 0.688833 0.147194
C21   C     C_R   0.591124 0.311168 0.053707 0.147197
C22   C     C_R   0.408879 0.688833 0.946287 0.147204
C23   C     C_R   0.311164 0.053709 0.591122 0.147191
C24   C     C_R   0.688832 0.946301 0.408882 0.147201
C25   C     C_R   0.987493 0.641254 0.272948 -0.271338
C26   C     C_R   0.012505 0.358721 0.727054 -0.271340
C27   C     C_R   0.641278 0.272942 0.987499 -0.271330
C28   C     C_R   0.358721 0.727058 0.012497 -0.271329
C29   C     C_R   0.272939 0.987498 0.641282 -0.271338
C30   C     C_R   0.727060 0.012509 0.358740 -0.271319
C31   C     C_R   0.005353 0.699526 0.185410 -0.195106
C32   C     C_R   0.994649 0.300433 0.814586 -0.195083
C33   C     C_R   0.699560 0.185406 0.005361 -0.195057
C34   C     C_R   0.300431 0.814590 0.994638 -0.195181
C35   C     C_R   0.185404 0.005359 0.699569 -0.194992
C36   C     C_R   0.814596 0.994652 0.300456 -0.195104
C37   C     C_R   0.090918 0.704361 0.132648 0.558669
C38   C     C_R   0.909081 0.295604 0.867346 0.558666
C39   C     C_R   0.704392 0.132652 0.090928 0.558687
C40   C     C_R   0.295598 0.867344 0.909072 0.558745
C41   C     C_R   0.132648 0.090927 0.704396 0.558640
C42   C     C_R   0.867346 0.909092 0.295607 0.558752
C43   C     C_R   0.975564 0.592449 0.462876 -0.276865
C44   C     C_R   0.024427 0.407550 0.537127 -0.276860
C45   C     C_R   0.592451 0.462874 0.975569 -0.276859
C46   C     C_R   0.407550 0.537126 0.024427 -0.276854
C47   C     C_R   0.462872 0.975569 0.592450 -0.276865
C48   C     C_R   0.537126 0.024437 0.407551 -0.276864
C49   C     C_R   0.945532 0.552183 0.555327 -0.057015
C50   C     C_R   0.054463 0.447816 0.444676 -0.057014
C51   C     C_R   0.552184 0.555326 0.945533 -0.057013
C52   C     C_R   0.447817 0.444674 0.054464 -0.057012
C53   C     C_R   0.555325 0.945537 0.552184 -0.057013
C54   C     C_R   0.444673 0.054468 0.447817 -0.057013
C55   C     C_R   0.970689 0.458245 0.592618 0.019939
C56   C     C_R   0.029304 0.541753 0.407385 0.019941
C57   C     C_R   0.458245 0.592618 0.970688 0.019933
C58   C     C_R   0.541757 0.407382 0.029307 0.019931
C59   C     C_R   0.592617 0.970699 0.458246 0.019937
C60   C     C_R   0.407380 0.029308 0.541756 0.019939
C61   C     C_R   0.110111 0.390559 0.389767 0.793128
C62   C     C_R   0.889888 0.609441 0.610233 0.793124
C63   C     C_R   0.390559 0.389767 0.110111 0.793130
C64   C     C_R   0.609441 0.610233 0.889888 0.793131
C65   C     C_R   0.389767 0.110112 0.390559 0.793128
C66   C     C_R   0.610233 0.889889 0.609441 0.793131
C67   C     C_R   0.988822 0.118723 0.330101 -0.106334
C68   C     C_R   0.011195 0.881253 0.669898 -0.106348
C69   C     C_R   0.118776 0.330119 0.988784 -0.106342
C70   C     C_R   0.881222 0.669878 0.011216 -0.106338
C71   C     C_R   0.330108 0.988794 0.118763 -0.106348
C72   C     C_R   0.669891 0.011195 0.881251 -0.106345
C73   C     C_R   0.976412 0.095228 0.280198 -0.151047
C74   C     C_R   0.023622 0.904735 0.719798 -0.151033
C75   C     C_R   0.095315 0.280211 0.976344 -0.151027
C76   C     C_R   0.904690 0.719792 0.023640 -0.151030
C77   C     C_R   0.280205 0.976357 0.095294 -0.151035
C78   C     C_R   0.719798 0.023620 0.904728 -0.151039
C79   C     C_R   0.969557 0.012636 0.314837 -0.198499
C80   C     C_R   0.030486 0.987323 0.685159 -0.198441
C81   C     C_R   0.012733 0.314839 0.969471 -0.198437
C82   C     C_R   0.987275 0.685167 0.030502 -0.198470
C83   C     C_R   0.314839 0.969485 0.012711 -0.198433
C84   C     C_R   0.685164 0.030485 0.987313 -0.198470
C85   C     C_R   0.961319 0.959239 0.403728 -0.129486
C86   C     C_R   0.038713 0.040728 0.596271 -0.129520
C87   C     C_R   0.959318 0.403725 0.961244 -0.129526
C88   C     C_R   0.040687 0.596278 0.038740 -0.129522
C89   C     C_R   0.403726 0.961259 0.959302 -0.129528
C90   C     C_R   0.596275 0.038717 0.040719 -0.129508
C91   C     C_R   0.971324 0.983242 0.456503 0.081171
C92   C     C_R   0.028694 0.016738 0.543497 0.081165
C93   C     C_R   0.983281 0.456503 0.971287 0.081152
C94   C     C_R   0.016718 0.543495 0.028710 0.081152
C95   C     C_R   0.456502 0.971294 0.983275 0.081153
C96   C     C_R   0.543497 0.028694 0.016737 0.081158
C97   C     C_R   0.999669 0.057028 0.413080 0.072386
C98   C     C_R   0.000344 0.942955 0.586922 0.072400
C99   C     C_R   0.057057 0.413087 0.999646 0.072394
C100  C     C_R   0.942940 0.586909 0.000356 0.072389
C101  C     C_R   0.413081 0.999651 0.057052 0.072401
C102  C     C_R   0.586916 0.000342 0.942958 0.072391
C103  C     C_R   0.960654 0.933077 0.548151 -0.216966
C104  C     C_R   0.039356 0.066910 0.451851 -0.216958
C105  C     C_R   0.933089 0.548143 0.960642 -0.216941
C106  C     C_R   0.066909 0.451854 0.039358 -0.216944
C107  C     C_R   0.548147 0.960640 0.933093 -0.216950
C108  C     C_R   0.451852 0.039353 0.066915 -0.216956
H1    H     H_    0.029068 0.009392 0.727961 0.187976
H2    H     H_    0.970985 0.990559 0.272034 0.188028
H3    H     H_    0.009339 0.727982 0.029070 0.188062
H4    H     H_    0.990673 0.272029 0.970889 0.187944
H5    H     H_    0.727970 0.029065 0.009380 0.188012
H6    H     H_    0.272033 0.970899 0.990647 0.187936
H7    H     H_    0.957575 0.664212 0.433224 0.154037
H8    H     H_    0.042410 0.335787 0.566778 0.154028
H9    H     H_    0.664215 0.433223 0.957588 0.154032
H10   H     H_    0.335786 0.566777 0.042410 0.154017
H11   H     H_    0.433221 0.957582 0.664214 0.154031
H12   H     H_    0.566778 0.042423 0.335788 0.154025
H13   H     H_    0.993075 0.184059 0.301858 0.150991
H14   H     H_    0.006934 0.815920 0.698141 0.150986
H15   H     H_    0.184104 0.301887 0.993052 0.150976
H16   H     H_    0.815893 0.698109 0.006952 0.150971
H17   H     H_    0.301870 0.993061 0.184091 0.150986
H18   H     H_    0.698130 0.006932 0.815921 0.150991
H19   H     H_    0.976252 0.139261 0.213311 0.143581
H20   H     H_    0.023787 0.860697 0.786684 0.143591
H21   H     H_    0.139364 0.213329 0.976177 0.143576
H22   H     H_    0.860644 0.786677 0.023803 0.143600
H23   H     H_    0.213320 0.976191 0.139338 0.143578
H24   H     H_    0.786684 0.023781 0.860688 0.143587
H25   H     H_    0.954912 0.896276 0.427388 0.162897
H26   H     H_    0.045126 0.103687 0.572615 0.162908
H27   H     H_    0.896369 0.427373 0.954819 0.162931
H28   H     H_    0.103637 0.572630 0.045162 0.162935
H29   H     H_    0.427379 0.954838 0.896351 0.162926
H30   H     H_    0.572621 0.045132 0.103675 0.162918
H31   H     H_    0.223522 0.657396 0.133104 0.134516
H32   H     H_    0.776467 0.342601 0.866899 0.134537
H33   H     H_    0.657409 0.133113 0.223532 0.134535
H34   H     H_    0.342594 0.866890 0.776464 0.134538
H35   H     H_    0.133106 0.223536 0.657398 0.134537
H36   H     H_    0.866882 0.776491 0.342570 0.134522
H37   H     H_    0.190647 0.558790 0.289451 0.133013
H38   H     H_    0.809336 0.441234 0.710558 0.133012
H39   H     H_    0.558778 0.289455 0.190655 0.133015
H40   H     H_    0.441234 0.710551 0.809335 0.133015
H41   H     H_    0.289447 0.190661 0.558764 0.133012
H42   H     H_    0.710544 0.809358 0.441211 0.133019
H43   H     H_    0.920677 0.638856 0.312516 0.151653
H44   H     H_    0.079325 0.361111 0.687485 0.151650
H45   H     H_    0.638885 0.312505 0.920681 0.151647
H46   H     H_    0.361111 0.687493 0.079316 0.151654
H47   H     H_    0.312503 0.920679 0.638893 0.151644
H48   H     H_    0.687497 0.079324 0.361141 0.151648
H49   H     H_    0.951556 0.741979 0.159452 0.152957
H50   H     H_    0.048449 0.257961 0.840542 0.152956
H51   H     H_    0.742021 0.159440 0.951567 0.152956
H52   H     H_    0.257961 0.840550 0.048435 0.152965
H53   H     H_    0.159441 0.951562 0.742039 0.152945
H54   H     H_    0.840562 0.048447 0.258004 0.152969
O1    O     O_3   0.250000 0.250000 0.250000 -0.483481
O2    O     O_3   0.750000 0.750000 0.750000 -0.483482
O3    O     O_R   0.305080 0.134200 0.134200 -0.639495
O4    O     O_R   0.694920 0.865800 0.865800 -0.639496
O5    O     O_R   0.134200 0.134200 0.305080 -0.639501
O6    O     O_R   0.865800 0.865800 0.694920 -0.639499
O7    O     O_R   0.134200 0.305080 0.134200 -0.639493
O8    O     O_R   0.865800 0.694920 0.865800 -0.639491
O9    O     O_R   0.134200 0.305090 0.426530 -0.654667
O10   O     O_R   0.865800 0.694910 0.573470 -0.654665
O11   O     O_R   0.305090 0.426530 0.134200 -0.654666
O12   O     O_R   0.694910 0.573470 0.865800 -0.654665
O13   O     O_R   0.426530 0.134200 0.305090 -0.654667
O14   O     O_R   0.573470 0.865800 0.694910 -0.654669
O15   O     O_R   0.134190 0.426530 0.134200 -0.656399
O16   O     O_R   0.865810 0.573470 0.865800 -0.656405
O17   O     O_R   0.426530 0.134200 0.134190 -0.656394
O18   O     O_R   0.573470 0.865800 0.865810 -0.656399
O19   O     O_R   0.134200 0.134190 0.426530 -0.656388
O20   O     O_R   0.865800 0.865810 0.573470 -0.656380
O21   O     O_R   0.426530 0.305080 0.134210 -0.630879
O22   O     O_R   0.573470 0.694920 0.865790 -0.630880
O23   O     O_R   0.305080 0.134210 0.426530 -0.630880
O24   O     O_R   0.694920 0.865790 0.573470 -0.630872
O25   O     O_R   0.134210 0.426530 0.305080 -0.630871
O26   O     O_R   0.865790 0.573470 0.694920 -0.630881
Zn1   Zn    Zn3+2 0.206620 0.206630 0.380140 0.956317
Zn2   Zn    Zn3+2 0.793380 0.793370 0.619860 0.956323
Zn3   Zn    Zn3+2 0.206630 0.380140 0.206620 0.956318
Zn4   Zn    Zn3+2 0.793370 0.619860 0.793380 0.956310
Zn5   Zn    Zn3+2 0.380140 0.206620 0.206630 0.956319
Zn6   Zn    Zn3+2 0.619860 0.793380 0.793370 0.956316
Zn7   Zn    Zn3+2 0.206620 0.206620 0.206620 0.948855
Zn8   Zn    Zn3+2 0.793380 0.793380 0.793380 0.948855
O27   O     O_3   0.103560 0.768188 0.048155 -0.607078
C109  C     C_3   0.174400 0.728412 0.984150 0.075983
H55   H     H_    0.173920 0.663970 0.996867 0.114244
H56   H     H_    0.238596 0.716334 0.983419 0.165670
C110  C     C_3   0.167618 0.791573 0.892732 -0.802418
H57   H     H_    0.163957 0.857460 0.880897 0.296118
H58   H     H_    0.226958 0.765055 0.840516 0.198916
H59   H     H_    0.106779 0.799848 0.888875 0.237406
O28   O     O_3   0.896442 0.231757 0.951827 -0.607014
C111  C     C_3   0.825644 0.271526 0.015854 0.075962
H60   H     H_    0.761415 0.283662 0.016601 0.165612
H61   H     H_    0.826177 0.335937 0.003153 0.114209
C112  C     C_3   0.832452 0.208321 0.107255 -0.802126
H62   H     H_    0.893408 0.199890 0.111046 0.237473
H63   H     H_    0.773197 0.234905 0.159485 0.198832
H64   H     H_    0.835940 0.142488 0.119124 0.296062
O29   O     O_3   0.768223 0.048163 0.103576 -0.607031
C113  C     C_3   0.728441 0.984153 0.174396 0.075975
H65   H     H_    0.664007 0.996875 0.173895 0.114221
H66   H     H_    0.716344 0.983411 0.238605 0.165656
C114  C     C_3   0.791608 0.892741 0.167601 -0.802342
H67   H     H_    0.857483 0.880887 0.163992 0.296109
H68   H     H_    0.765068 0.840523 0.226913 0.198889
H69   H     H_    0.799923 0.888912 0.106728 0.237429
O30   O     O_3   0.231752 0.951824 0.896428 -0.606989
C115  C     C_3   0.271526 0.015850 0.825639 0.075968
H70   H     H_    0.283669 0.016600 0.761408 0.165616
H71   H     H_    0.335934 0.003145 0.826181 0.114200
C116  C     C_3   0.208322 0.107251 0.832446 -0.802183
H72   H     H_    0.199885 0.111044 0.893401 0.237474
H73   H     H_    0.234907 0.159481 0.773194 0.198841
H74   H     H_    0.142493 0.119121 0.835928 0.296075
O31   O     O_3   0.048167 0.103570 0.768242 -0.607018
C117  C     C_3   0.984139 0.174373 0.728475 0.075957
H75   H     H_    0.996835 0.173845 0.664065 0.114204
H76   H     H_    0.983402 0.238596 0.716339 0.165624
C118  C     C_3   0.892734 0.167574 0.791680 -0.802156
H77   H     H_    0.880878 0.164059 0.857518 0.296085
H78   H     H_    0.840504 0.226846 0.765109 0.198842
H79   H     H_    0.888923 0.106638 0.800094 0.237453
O32   O     O_3   0.951825 0.896458 0.231758 -0.607040
C119  C     C_3   0.015852 0.825616 0.271509 0.075888
H80   H     H_    0.016563 0.761417 0.283616 0.165651
H81   H     H_    0.003176 0.826106 0.335931 0.114219
C120  C     C_3   0.107264 0.832396 0.208306 -0.802123
H82   H     H_    0.111111 0.893296 0.199939 0.237410
H83   H     H_    0.159496 0.773080 0.234852 0.198855
H84   H     H_    0.119086 0.835974 0.142449 0.296101

loop_
_geom_bond_atom_site_label_1
_geom_bond_atom_site_label_2
_ccdc_geom_bond_type
C19   C56   S    
C27   H45   S    
C7    H31   S    
C65   O23   A    
C25   C31   A    
C84   H5    S    
O15   Zn3   S    
C38   O28   S    
C96   C102  A    
C95   C107  A    
C110  H57   S    
C36   C42   A    
C35   H53   S    
C61   O25   A    
C16   C22   A    
C112  H64   S    
C22   C57   S    
C53   C59   A    
C85   H25   S    
C3    O5    A    
O7    Zn7   S    
C54   C65   S    
C54   C60   A    
O28   C111  S    
C27   C33   A    
C114  H69   S    
C26   C32   A    
C119  C120  S    
O9    Zn1   S    
C100  C105  A    
C17   C23   A    
C2    O18   A    
C45   C51   A    
C34   C40   A    
C70   H16   S    
C23   C29   A    
O8    Zn8   S    
O4    Zn8   S    
C116  H73   S    
C77   H23   S    
C111  H61   S    
O1    Zn5   S    
C68   C74   A    
C98   C103  A    
C4    C103  S    
C46   C52   A    
C2    C107  S    
C9    C39   A    
C116  H74   S    
C46   H10   S    
C117  C118  S    
C10   C40   A    
C120  H82   S    
C10   H34   S    
C111  C112  S    
C78   H24   S    
C80   C86   A    
C43   H7    S    
C47   C60   A    
C81   C87   A    
O19   Zn1   S    
C8    H32   S    
C86   H26   S    
C74   H20   S    
C80   H1    S    
C95   C101  A    
C12   C42   A    
C69   C75   A    
C109  H55   S    
C67   C73   A    
C37   O27   S    
C118  H77   S    
C2    O4    A    
O25   Zn3   S    
C47   C53   A    
C93   C105  A    
C101  C108  A    
C47   H11   S    
C96   C108  A    
C28   C34   A    
O17   Zn5   S    
C74   C80   A    
O32   C119  S    
C65   O13   A    
O2    Zn4   S    
C28   H46   S    
C110  H58   S    
C83   H6    S    
C66   O14   A    
C117  H75   S    
C8    C38   A    
C20   C55   S    
O2    Zn2   S    
C67   H13   S    
C118  H79   S    
C90   H30   S    
C42   O32   S    
C70   C100  A    
C63   O11   A    
C88   C94   A    
C5    C106  S    
C85   C91   A    
C23   C60   S    
C83   C89   A    
C119  H81   S    
C45   C58   A    
C63   O21   A    
C39   O29   S    
C92   C98   A    
C14   C20   A    
C17   H41   S    
C88   H28   S    
C48   H12   S    
C76   C82   A    
C3    C104  S    
C9    H33   S    
C111  H60   S    
C75   C81   A    
C13   C19   A    
C115  C116  S    
O10   Zn2   S    
C114  H67   S    
O29   C113  S    
C75   H21   S    
O11   Zn3   S    
C77   C83   A    
C50   C56   A    
C4    O6    A    
O1    Zn3   S    
C72   H18   S    
C120  H83   S    
C12   C18   A    
C89   C95   A    
O3    Zn7   S    
C48   C54   A    
C115  H71   S    
C73   H19   S    
O30   C115  S    
C71   C101  A    
C87   H27   S    
O16   Zn4   S    
C94   C100  A    
C43   C56   A    
C92   C104  A    
C72   C102  A    
C5    O7    A    
C81   H4    S    
O1    Zn7   S    
C49   C55   A    
C109  C110  S    
C68   H14   S    
C112  H62   S    
C7    C37   A    
C102  C107  A    
O1    Zn1   S    
C33   C39   A    
C91   C97   A    
C117  H76   S    
C53   C66   S    
C118  H78   S    
C5    O15   A    
C31   H49   S    
C35   C41   A    
C52   C58   A    
O23   Zn1   S    
C3    O19   A    
C61   O9    A    
O22   Zn6   S    
C69   C99   A    
C41   O31   S    
C32   C38   A    
C66   O24   A    
C46   C57   A    
C70   C76   A    
C13   H37   S    
C110  H59   S    
C18   C24   A    
C24   C30   A    
C64   O12   A    
C86   C92   A    
C71   C77   A    
O18   Zn6   S    
C48   C59   A    
C62   O26   A    
C6    O8    A    
C84   C90   A    
C45   H9    S    
C99   C106  A    
C93   C99   A    
C119  H80   S    
C112  H63   S    
C8    C14   A    
C49   C62   S    
C79   H2    S    
C116  H72   S    
C1    O3    A    
C113  H65   S    
O5    Zn7   S    
C43   C49   A    
C51   C64   S    
C91   C103  A    
C73   C79   A    
C52   C63   S    
C11   C17   A    
C109  H56   S    
O2    Zn8   S    
C90   C96   A    
C30   C36   A    
C114  H68   S    
C62   O10   A    
O26   Zn4   S    
C29   C35   A    
C89   H29   S    
O31   C117  S    
C29   H47   S    
C40   O30   S    
C25   H43   S    
C120  H84   S    
C4    O20   A    
C82   H3    S    
C26   H44   S    
C9    C15   A    
C21   C58   S    
C10   C16   A    
C15   H39   S    
C1    O17   A    
C44   C55   A    
C16   H40   S    
C15   C21   A    
C20   C26   A    
C36   H54   S    
C24   C59   S    
C82   C88   A    
C87   C93   A    
C30   H48   S    
O21   Zn5   S    
C79   C85   A    
C11   C41   A    
C113  H66   S    
C113  C114  S    
C21   C27   A    
O27   C109  S    
C19   C25   A    
C6    C105  S    
C68   C98   A    
C78   C84   A    
C97   C104  A    
C94   C106  A    
C67   C97   A    
C1    C108  S    
C64   O22   A    
C32   H50   S    
C31   C37   A    
C51   C57   A    
C7    C13   A    
C44   H8    S    
C44   C50   A    
O6    Zn8   S    
O2    Zn6   S    
C72   C78   A    
C50   C61   S    
C69   H15   S    
C14   H38   S    
C71   H17   S    
C12   H36   S    
C22   C28   A    
O24   Zn2   S    
O20   Zn2   S    
O14   Zn6   S    
C18   H42   S    
C11   H35   S    
C115  H70   S    
O13   Zn5   S    
C6    O16   A    
C76   H22   S    
C33   H51   S    
O12   Zn4   S    
C34   H52   S    
