data_mof_unit_30393.cif
_audit_creation_date              2013-03-05T16:43:02-0500
_audit_creation_method            fapswitch 2.2
_symmetry_space_group_name_H-M    P1
_symmetry_Int_Tables_number       1
_space_group_crystal_system       triclinic
_cell_length_a                    10.78546
_cell_length_b                    10.823368
_cell_length_c                    9.917824
_cell_angle_alpha                 87.119933
_cell_angle_beta                  87.750413
_cell_angle_gamma                 91.864561
_cell_volume                      1154.71272017

loop_
_atom_site_label
_atom_site_type_symbol
_atom_site_description
_atom_site_fract_x
_atom_site_fract_y
_atom_site_fract_z
_atom_type_partial_charge
O1    O     O_R   0.500020 0.316790 0.614690 -0.621420
O2    O     O_R   0.500000 0.316760 0.385350 -0.562237
C1    C     C_R   0.507770 0.260197 0.502988 0.992322
O3    O     O_R   0.314800 0.500000 0.614670 -0.574931
O4    O     O_R   0.314790 0.499960 0.385330 -0.614381
C2    C     C_R   0.257819 0.499523 0.502111 1.055362
Zn1   Zn    Zn3+2 0.500010 0.500020 0.653130 1.073580
Zn2   Zn    Zn3+2 0.499990 0.499980 0.346870 1.031074
O5    O     O_R   0.500000 0.683240 0.614650 -0.579778
O6    O     O_R   0.499980 0.683210 0.385310 -0.636398
O7    O     O_R   0.685210 0.500040 0.614670 -0.557953
O8    O     O_R   0.685200 0.500000 0.385330 -0.682857
C3    C     C_R   0.506119 0.739752 0.496936 1.007671
C4    C     C_R   0.741968 0.499077 0.498691 1.012391
C5    C     C_3   0.064158 0.452707 0.649478 0.657532
C6    C     C_3   0.920205 0.468245 0.652034 0.574993
C7    C     C_3   0.078444 0.631754 0.453084 -0.134732
C8    C     C_3   0.073806 0.408116 0.397975 0.229149
C9    C     C_3   0.121217 0.499907 0.504990 -0.342036
H1    H     H_    0.109171 0.442965 0.295063 0.121938
C10   C     C_3   0.878144 0.501015 0.500706 -0.303807
C11   C     C_3   0.933836 0.632102 0.444906 -0.055473
C12   C     C_3   0.929973 0.407204 0.397484 0.112994
H2    H     H_    0.904238 0.440061 0.293912 0.128155
H3    H     H_    0.113177 0.642900 0.345436 0.170682
H4    H     H_    0.914064 0.638923 0.335227 0.142275
C13   C     C_R   0.479940 0.054336 0.620211 0.136090
C14   C     C_R   0.527875 0.128452 0.508520 -0.411121
C15   C     C_R   0.581741 0.072305 0.394329 0.495744
C16   C     C_R   0.571897 0.944720 0.385535 0.440004
C17   C     C_R   0.515714 0.872268 0.494019 -0.348213
C18   C     C_R   0.480037 0.927175 0.611893 0.154634
C19   C     C_3   0.537521 0.902601 0.743683 0.209948
C20   C     C_3   0.533130 0.039487 0.759404 0.156927
H5    H     H_    0.633029 0.866865 0.735523 0.130986
H6    H     H_    0.625174 0.087665 0.768105 0.135464
C21   C     C_R   0.411706 0.434142 0.079288 0.099458
N1    N     N_R   0.499150 0.499140 0.142800 -0.189776
C22   C     C_R   0.584870 0.570252 0.062160 0.429548
C23   C     C_R   0.585453 0.567940 0.919425 -0.002690
H7    H     H_    0.655460 0.621544 0.858652 0.222484
N2    N     N_R   0.499150 0.499180 0.857150 -0.168437
C24   C     C_R   0.405288 0.441451 0.936297 0.022572
C25   C     C_3   0.376699 0.306819 0.934104 -0.005402
C26   C     C_3   0.400783 0.296381 0.083922 0.689625
H8    H     H_    0.444843 0.267672 0.864455 0.170509
O9    O     O_3   0.115511 0.512888 0.759136 -0.684892
H9    H     H_    0.145729 0.597176 0.730160 0.368382
O10   O     O_3   0.652911 0.136900 0.294053 -0.632577
H10   H     H_    0.680553 0.217330 0.326816 0.362377
O11   O     O_3   0.629290 0.893774 0.276149 -0.651200
H11   H     H_    0.677328 0.823972 0.312034 0.348884
O12   O     O_3   0.456396 0.831702 0.833333 -0.631372
H12   H     H_    0.501419 0.819812 0.918085 0.350782
O13   O     O_3   0.446328 0.062518 0.862369 -0.656012
H13   H     H_    0.490028 0.051113 0.948120 0.373464
O14   O     O_3   0.674451 0.643599 0.115803 -0.727401
H14   H     H_    0.655089 0.645144 0.212961 0.376941
O15   O     O_3   0.092126 0.327086 0.667499 -0.582602
H15   H     H_    0.060356 0.297399 0.758543 0.421706
N3    N     N_R   0.247407 0.277207 0.906982 0.261753
O16   O     O_R   0.220766 0.171927 0.855356 -0.250353
O17   O     O_R   0.158863 0.335633 0.967051 -0.326126
O18   O     O_3   0.301017 0.249817 0.168256 -0.687257
H16   H     H_    0.296421 0.159143 0.157453 0.382054
O19   O     O_3   0.512011 0.238171 0.113042 -0.713612
H17   H     H_    0.580004 0.275610 0.052179 0.328216
N4    N     N_R   0.853155 0.355644 0.715279 0.235687
O20   O     O_R   0.792974 0.362214 0.831081 -0.342413
O21   O     O_R   0.858919 0.247328 0.664877 -0.300114
O22   O     O_3   0.887978 0.565456 0.735773 -0.674928
H18   H     H_    0.943037 0.638516 0.715366 0.390918
N5    N     N_R   0.137511 0.737439 0.517863 0.250102
O23   O     O_R   0.089431 0.784925 0.624986 -0.302930
O24   O     O_R   0.230582 0.797313 0.454281 -0.354261
N6    N     N_R   0.877918 0.743834 0.497097 0.252558
O25   O     O_R   0.783191 0.738089 0.582559 -0.434923
O26   O     O_R   0.909236 0.850857 0.437549 -0.275319
O27   O     O_3   0.118912 0.288417 0.420843 -0.584476
H19   H     H_    0.110891 0.244778 0.335848 0.383891
O28   O     O_3   0.877503 0.287522 0.419932 -0.659925
H20   H     H_    0.894710 0.242428 0.336818 0.372508

loop_
_geom_bond_atom_site_label_1
_geom_bond_atom_site_label_2
_geom_bond_distance
_ccdc_geom_bond_type
C16   O11   1.376147 S    
C6    C10   1.610751 S    
N5    O23   1.300305 A    
C11   N6    1.476470 S    
O13   H13   0.992664 S    
O28   H20   0.993205 S    
C15   O10   1.379250 S    
O12   H12   0.992041 S    
C5    C9    1.590590 S    
C2    C9    1.472615 S    
C21   N1    1.352465 A    
C4    C10   1.469128 S    
C14   C15   1.424760 A    
N6    O26   1.301845 A    
C16   C17   1.404581 A    
O7    C4    1.282297 A    
C5    C6    1.566467 S    
C22   O14   1.370993 S    
C8    C9    1.578132 S    
Zn1   N2    2.022654 S    
N3    O17   1.303565 A    
O5    C3    1.288803 A    
C7    C9    1.581737 S    
C17   C18   1.384661 A    
C8    O27   1.409507 S    
C12   H2    1.118380 S    
C6    N4    1.493962 S    
C5    O9    1.417339 S    
C8    H1    1.118433 S    
C23   N2    1.359411 A    
O19   H17   0.993818 S    
O15   H15   0.987619 S    
C10   C11   1.587328 S    
C7    N5    1.478388 S    
N5    O24   1.300827 A    
C6    O22   1.416522 S    
Zn2   N1    2.024782 S    
O3    Zn1   2.048317 S    
C25   H8    1.098492 S    
C13   C20   1.518739 S    
C19   O12   1.404161 S    
N1    C22   1.385854 A    
C8    C12   1.551215 S    
N6    O25   1.299495 A    
O3    C2    1.295438 A    
C22   C23   1.416866 A    
N4    O20   1.303118 A    
O11   H11   0.989344 S    
O1    C1    1.293729 A    
C21   C24   1.420914 A    
Zn1   O7    2.018791 S    
C24   C25   1.481007 S    
C15   C16   1.388896 A    
O9    H9    0.983878 S    
Zn2   O8    2.048315 S    
C19   C20   1.499600 S    
N4    O21   1.299741 A    
C23   H7    1.081960 S    
O8    C4    1.300894 A    
C10   C12   1.577317 S    
N2    C24   1.370612 A    
C21   C26   1.490114 S    
C13   C14   1.405920 A    
C25   C26   1.517694 S    
Zn1   O5    2.000531 S    
C1    C14   1.447932 S    
C12   O28   1.400431 S    
C13   C18   1.382945 A    
O1    Zn1   2.038205 S    
C5    O15   1.406437 S    
C3    C17   1.433386 S    
O2    Zn2   2.000531 S    
O6    C3    1.294508 A    
O4    Zn2   2.018793 S    
C25   N3    1.458990 S    
C26   O18   1.401112 S    
C7    C11   1.565060 S    
C7    H3    1.116895 S    
O18   H16   0.992418 S    
O2    C1    1.297022 A    
O22   H18   0.981230 S    
C18   C19   1.484236 S    
O14   H14   0.979015 S    
O4    C2    1.289353 A    
C19   H5    1.113457 S    
C20   H6    1.114649 S    
N3    O16   1.300782 A    
O27   H19   0.992093 S    
C20   O13   1.395395 S    
Zn2   O6    2.038205 S    
O10   H10   0.985602 S    
C11   H4    1.115951 S    
C26   O19   1.406264 S    
