data_mof_unit_7741.cif
_audit_creation_date              2012-12-10T21:11:35-0500
_audit_creation_method            fapswitch 2.2
_symmetry_space_group_name_H-M    P1
_symmetry_Int_Tables_number       1
_space_group_crystal_system       triclinic
_cell_length_a                    17.639221
_cell_length_b                    16.693984
_cell_length_c                    10.605113
_cell_angle_alpha                 89.861303
_cell_angle_beta                  90.043117
_cell_angle_gamma                 90.009981
_cell_volume                      3122.86559422

loop_
_atom_site_label
_atom_site_type_symbol
_atom_type_description
_atom_site_fract_x
_atom_site_fract_y
_atom_site_fract_z
_atom_type_partial_charge
C1    C     C_R   0.353244 0.499994 0.500044 0.896466
C2    C     C_R   0.646755 0.500004 0.500497 0.896362
C3    C     C_R   0.886223 0.499956 0.508577 0.112105
C4    C     C_R   0.113782 0.499952 0.508001 0.112118
C5    C     C_1   0.966401 0.499947 0.509751 -0.027775
C6    C     C_1   0.033607 0.499944 0.509564 -0.027803
C7    C     C_R   0.446758 0.832290 0.427217 0.093391
C8    C     C_R   0.553249 0.167725 0.572840 0.093365
C9    C     C_R   0.553108 0.832057 0.573178 0.092430
C10   C     C_R   0.446896 0.167926 0.426885 0.092419
C11   C     C_R   0.448518 0.747757 0.428530 -0.027207
C12   C     C_R   0.551484 0.252259 0.571487 -0.027089
C13   C     C_R   0.551422 0.747528 0.571626 -0.025145
C14   C     C_R   0.448578 0.252456 0.428397 -0.025315
C15   C     C_R   0.499945 0.875484 0.500192 0.110934
C16   C     C_R   0.500064 0.124516 0.499886 0.110937
C17   C     C_1   0.499990 0.963491 0.500111 -0.008935
C18   C     C_1   0.500026 0.036509 0.499991 -0.008946
C19   C     C_R   0.512243 0.500107 0.260151 0.895854
C20   C     C_R   0.487700 0.499894 0.739816 0.895758
C21   C     C_R   0.540888 0.647732 0.109275 -0.191744
C22   C     C_R   0.458905 0.352291 0.890638 -0.191621
C23   C     C_R   0.455880 0.646600 0.889138 -0.191037
C24   C     C_R   0.543925 0.353382 0.110763 -0.191149
C25   C     C_R   0.520583 0.720757 0.053151 0.230210
C26   C     C_R   0.479192 0.279256 0.946742 0.230263
C27   C     C_R   0.474921 0.720160 0.944148 0.231056
C28   C     C_R   0.524867 0.279832 0.055731 0.231048
C29   C     C_R   0.481998 0.573346 0.940473 0.038291
C30   C     C_R   0.517812 0.426650 0.059466 0.038268
C31   C     C_R   0.516204 0.573808 0.058859 0.038637
C32   C     C_R   0.483603 0.426199 0.941083 0.038673
C33   C     C_R   0.475825 0.499685 0.875846 -0.208442
C34   C     C_R   0.524018 0.500317 0.124093 -0.208636
C35   C     C_R   0.847219 0.573489 0.508445 0.188623
C36   C     C_R   0.152784 0.426429 0.506181 0.188700
C37   C     C_R   0.152804 0.573486 0.506853 0.188767
C38   C     C_R   0.847198 0.426443 0.505982 0.188730
C39   C     C_R   0.768408 0.572778 0.505479 -0.209025
C40   C     C_R   0.231592 0.427176 0.503226 -0.209389
C41   C     C_R   0.231610 0.572766 0.503884 -0.209663
C42   C     C_R   0.768390 0.427198 0.503069 -0.209520
C43   C     C_R   0.729039 0.500000 0.502677 -0.134993
C44   C     C_R   0.270960 0.499978 0.502069 -0.135451
H1    H     H_    0.577227 0.648838 0.191593 0.165590
H2    H     H_    0.422584 0.351210 0.808295 0.165503
H3    H     H_    0.419658 0.646710 0.806638 0.164710
H4    H     H_    0.580174 0.353249 0.193230 0.164704
H5    H     H_    0.737789 0.629063 0.505435 0.165121
H6    H     H_    0.262207 0.370898 0.501858 0.165298
H7    H     H_    0.262238 0.629056 0.503047 0.165297
H8    H     H_    0.737760 0.370923 0.501090 0.165188
H9    H     H_    0.408433 0.713933 0.372604 0.150316
H10   H     H_    0.591567 0.286095 0.627400 0.150285
H11   H     H_    0.591488 0.713523 0.627555 0.149834
H12   H     H_    0.408507 0.286448 0.372460 0.150030
N1    N     N_R   0.500000 0.707230 0.500000 -0.131023
N2    N     N_R   0.500000 0.292770 0.500000 -0.131045
O1    O     O_R   0.389110 0.566570 0.499990 -0.630215
O2    O     O_R   0.610890 0.433430 0.500010 -0.630218
O3    O     O_R   0.610890 0.566570 0.500010 -0.630021
O4    O     O_R   0.389110 0.433430 0.499990 -0.630030
O5    O     O_R   0.499990 0.566540 0.316770 -0.616718
O6    O     O_R   0.500010 0.433460 0.683230 -0.616810
O7    O     O_R   0.500010 0.566540 0.683230 -0.616307
O8    O     O_R   0.499990 0.433460 0.316770 -0.616196
Zn1   Zn    Zn3+2 0.500000 0.588860 0.500000 0.929504
Zn2   Zn    Zn3+2 0.500000 0.411140 0.500000 0.929494
C45   C     C_3   0.552273 0.203095 0.115376 -0.916290
H13   H     H_    0.585725 0.214425 0.202333 0.237698
H14   H     H_    0.503176 0.165030 0.141380 0.253560
H15   H     H_    0.588844 0.170152 0.047984 0.243219
C46   C     C_3   0.447521 0.796882 0.884450 -0.916262
H16   H     H_    0.414080 0.785532 0.797488 0.237683
H17   H     H_    0.410942 0.829842 0.951809 0.243205
H18   H     H_    0.496622 0.834941 0.858439 0.253564
C47   C     C_3   0.452962 0.201847 0.888377 -0.916986
H19   H     H_    0.419406 0.212273 0.801174 0.238034
H20   H     H_    0.502638 0.164524 0.863153 0.253529
H21   H     H_    0.416848 0.168553 0.956291 0.243469
C48   C     C_3   0.546786 0.798179 0.111503 -0.916976
H22   H     H_    0.580329 0.787773 0.198726 0.238093
H23   H     H_    0.582903 0.831476 0.043596 0.243483
H24   H     H_    0.497096 0.835491 0.136694 0.253514
C49   C     C_3   0.888764 0.652485 0.511178 -0.920451
H25   H     H_    0.849090 0.704156 0.511223 0.238743
H26   H     H_    0.924199 0.656058 0.597556 0.245472
H27   H     H_    0.925703 0.657743 0.426850 0.245097
C50   C     C_3   0.111241 0.347412 0.507108 -0.920455
H28   H     H_    0.150915 0.295749 0.505879 0.238771
H29   H     H_    0.075919 0.342752 0.593427 0.245285
H30   H     H_    0.074191 0.343216 0.422711 0.245272
C51   C     C_3   0.111286 0.652492 0.508514 -0.920496
H31   H     H_    0.150977 0.704161 0.507723 0.238769
H32   H     H_    0.074219 0.657248 0.424180 0.245193
H33   H     H_    0.075985 0.656568 0.594895 0.245373
C52   C     C_3   0.888715 0.347427 0.506016 -0.920506
H34   H     H_    0.849021 0.295773 0.504289 0.238752
H35   H     H_    0.925654 0.343597 0.421534 0.245011
H36   H     H_    0.924147 0.342401 0.592247 0.245565
C53   C     C_3   0.388112 0.875211 0.348971 -0.938433
H37   H     H_    0.351984 0.832572 0.295643 0.239256
H38   H     H_    0.350998 0.911385 0.411297 0.251798
H39   H     H_    0.416382 0.915643 0.280317 0.246143
C54   C     C_3   0.611896 0.124824 0.651109 -0.938455
H40   H     H_    0.648026 0.167476 0.704408 0.239254
H41   H     H_    0.583627 0.084410 0.719789 0.246147
H42   H     H_    0.649008 0.088634 0.588802 0.251800
C55   C     C_3   0.611568 0.874718 0.651862 -0.938218
H43   H     H_    0.647818 0.831888 0.704877 0.239255
H44   H     H_    0.648595 0.911456 0.589915 0.251884
H45   H     H_    0.583109 0.914560 0.720835 0.245886
C56   C     C_3   0.388433 0.125247 0.348233 -0.938110
H46   H     H_    0.352183 0.168064 0.295192 0.239317
H47   H     H_    0.416889 0.085386 0.279284 0.245866
H48   H     H_    0.351406 0.088527 0.410208 0.251865

loop_
_geom_bond_atom_site_label_1
_geom_bond_atom_site_label_2
_ccdc_geom_bond_type
C36   C50   S    
O8    Zn2   S    
C4    C36   A    
C51   H31   S    
C46   H16   S    
C14   H12   S    
C28   C45   S    
C1    O4    A    
C52   H36   S    
C52   H34   S    
C49   H25   S    
C7    C11   A    
C21   C31   A    
C53   H37   S    
C22   C32   A    
C23   C29   A    
C38   C42   A    
C1    O1    A    
C5    C6    T    
C2    O2    A    
C47   H21   S    
C13   N1    A    
C29   C33   A    
C19   O8    A    
C8    C16   A    
C45   H14   S    
C9    C13   A    
O1    Zn1   S    
C3    C38   A    
C19   O5    A    
O7    Zn1   S    
C23   C27   A    
C50   H29   S    
C27   C46   S    
C11   H9    S    
C2    O3    A    
C56   H48   S    
C12   N2    A    
C47   H20   S    
C53   H38   S    
C8    C54   S    
C25   C48   S    
C46   H17   S    
N1    Zn1   S    
C38   C52   S    
C52   H35   S    
C48   H22   S    
C21   H1    S    
C49   H26   S    
C9    C55   S    
C14   N2    A    
C54   H42   S    
O5    Zn1   S    
C26   C47   S    
C23   H3    S    
C30   C34   A    
C24   H4    S    
C20   O7    A    
C36   C40   A    
C4    C6    S    
C10   C14   A    
C55   H45   S    
C39   C43   A    
C47   H19   S    
C20   O6    A    
C45   H15   S    
C35   C39   A    
C54   H41   S    
O3    Zn1   S    
C1    C44   S    
C3    C35   A    
C2    C43   S    
C8    C12   A    
C17   C18   T    
C31   C34   A    
C37   C51   S    
C50   H30   S    
C10   C56   S    
C20   C33   S    
N2    Zn2   S    
C22   H2    S    
C51   H33   S    
C7    C53   S    
C41   C44   A    
C42   C43   A    
O6    Zn2   S    
C48   H24   S    
C56   H46   S    
C49   H27   S    
C15   C17   S    
C21   C25   A    
C39   H5    S    
C24   C28   A    
C3    C5    S    
C19   C34   S    
C48   H23   S    
C25   C27   A    
C54   H40   S    
C26   C28   A    
O4    Zn2   S    
C32   C33   A    
C55   H44   S    
C9    C15   A    
C29   C31   A    
C10   C16   A    
C55   H43   S    
C30   C32   A    
C35   C49   S    
C51   H32   S    
C40   H6    S    
C7    C15   A    
C46   H18   S    
C37   C41   A    
C45   H13   S    
C24   C30   A    
C40   C44   A    
C4    C37   A    
O2    Zn2   S    
C16   C18   S    
C22   C26   A    
C53   H39   S    
C56   H47   S    
C50   H28   S    
C11   N1    A    
C41   H7    S    
C12   H10   S    
C42   H8    S    
C13   H11   S    
