data_mof_unit_58068.cif
_audit_creation_date              2012-10-26T20:14:32-0400
_audit_creation_method            fapswitch 2.2
_symmetry_space_group_name_H-M    P1
_symmetry_Int_Tables_number       1
_space_group_crystal_system       triclinic
_cell_length_a                    7.793311
_cell_length_b                    9.088427
_cell_length_c                    17.224282
_cell_angle_alpha                 89.997784
_cell_angle_beta                  84.753199
_cell_angle_gamma                 90.000601
_cell_volume                      1214.86593911

loop_
_atom_site_label
_atom_site_type_symbol
_atom_type_description
_atom_site_fract_x
_atom_site_fract_y
_atom_site_fract_z
_atom_type_partial_charge
C1    C     C_R   0.499999 0.779938 0.500004 0.608262
C2    C     C_R   0.511815 0.367829 0.227146 0.193210
C3    C     C_R   0.480634 0.363703 0.855039 0.189440
C4    C     C_R   0.520366 0.363772 0.144905 0.189510
C5    C     C_R   0.424580 0.488962 0.897700 0.101035
C6    C     C_R   0.575190 0.489449 0.102302 0.101000
C7    C     C_R   0.379001 0.618662 0.860569 0.179487
C8    C     C_R   0.619639 0.619425 0.139492 0.179756
C9    C     C_R   0.400977 0.627739 0.778394 -0.067910
C10   C     C_R   0.597855 0.628217 0.221679 -0.067793
C11   C     C_2   0.423970 0.489309 0.982895 0.367470
C12   C     C_R   0.499999 0.220067 0.500001 0.583017
C13   C     C_2   0.575771 0.489842 0.017109 0.367444
C14   C     C_2   0.619157 0.772927 0.260344 0.218764
C15   C     C_2   0.378789 0.772482 0.739866 0.218710
C16   C     C_1   0.500000 0.934617 0.500004 0.030219
C17   C     C_1   0.499999 0.065391 0.500002 0.012434
C18   C     C_R   0.475752 0.502730 0.650298 0.645293
C19   C     C_R   0.524247 0.502696 0.349705 0.645285
C20   C     C_R   0.456190 0.500841 0.735242 0.013163
C21   C     C_R   0.543801 0.500945 0.264763 0.013243
C22   C     C_R   0.489269 0.367889 0.772798 0.193117
Cu1   Cu    Cu3+1 0.330920 0.500000 0.500000 1.135113
Cu2   Cu    Cu3+1 0.669080 0.500000 0.500000 1.135315
H1    H     H_    0.244716 0.798668 0.877344 0.343126
H2    H     H_    0.272667 0.523168 0.079240 0.319629
H3    H     H_    0.751757 0.800654 0.122813 0.343196
H4    H     H_    0.386581 0.184544 0.137860 0.351009
H5    H     H_    0.616077 0.185394 0.862021 0.351075
H6    H     H_    0.490616 0.155924 0.757685 0.336807
H7    H     H_    0.512362 0.155867 0.242158 0.336739
H8    H     H_    0.589073 0.873828 0.230764 0.128654
H9    H     H_    0.407225 0.873478 0.769745 0.129306
H10   H     H_    0.726742 0.524860 0.920785 0.319545
N1    N     N_1   0.923170 0.500000 0.500010 -0.069806
N2    N     N_1   0.076830 0.500000 0.499990 -0.069786
O1    O     O_R   0.357240 0.711600 0.500000 -0.484907
O2    O     O_3   0.678025 0.736899 0.093236 -0.630577
O3    O     O_3   0.473238 0.241095 0.104452 -0.633756
O4    O     O_3   0.528836 0.241312 0.895436 -0.633745
O5    O     O_3   0.528183 0.244717 0.727445 -0.692454
O6    O     O_3   0.474003 0.244389 0.272443 -0.692584
O7    O     O_2   0.673546 0.782080 0.324345 -0.493939
O8    O     O_2   0.325581 0.781570 0.675621 -0.494042
O9    O     O_3   0.736859 0.496804 0.975624 -0.607151
O10   O     O_3   0.262819 0.495119 0.024380 -0.607131
O11   O     O_R   0.642760 0.288400 0.500000 -0.495559
O12   O     O_R   0.642760 0.711600 0.500000 -0.485028
O13   O     O_R   0.357240 0.288400 0.500000 -0.495756
O14   O     O_R   0.340660 0.500000 0.613590 -0.470474
O15   O     O_R   0.659340 0.500000 0.386410 -0.470443
O16   O     O_R   0.626230 0.500000 0.613600 -0.492778
O17   O     O_R   0.373770 0.500000 0.386400 -0.493182
O18   O     O_3   0.319386 0.735676 0.906869 -0.630573

loop_
_geom_bond_atom_site_label_1
_geom_bond_atom_site_label_2
_ccdc_geom_bond_type
C12   C17   S    
C3    O4    S    
C2    C4    A    
Cu1   Cu2   S    
H6    O5    S    
Cu1   O17   S    
H7    O6    S    
C5    C7    A    
C9    C20   A    
C11   O10   S    
N1    N2    T    
C7    O18   S    
C4    O3    S    
C1    O1    A    
C14   O7    D    
C7    C9    A    
C19   O17   A    
C2    C21   A    
C12   O13   A    
C9    C15   S    
C18   O16   A    
C1    O12   A    
C1    C16   S    
C6    C13   S    
C13   O9    S    
C11   C13   D    
C8    O2    S    
C2    O6    S    
C12   O11   A    
H5    O4    S    
C4    C6    A    
C19   C21   S    
C20   C22   A    
C15   O8    D    
C5    C11   S    
C18   C20   S    
Cu2   O16   S    
C10   C21   A    
Cu1   O13   S    
C22   O5    S    
H2    O10   S    
H3    O2    S    
Cu2   O12   S    
C19   O15   A    
H1    O18   S    
C18   O14   A    
C8    C10   A    
Cu1   N2    S    
C10   C14   S    
H10   O9    S    
Cu2   O15   S    
C3    C22   A    
C6    C8    A    
H4    O3    S    
C3    C5    A    
Cu2   N1    S    
Cu1   O1    S    
Cu2   O11   S    
C15   H9    S    
C14   H8    S    
C16   C17   T    
Cu1   O14   S    
