data_mof_unit_45763.cif
_audit_creation_date              2013-03-05T16:46:56-0500
_audit_creation_method            fapswitch 2.2
_symmetry_space_group_name_H-M    P1
_symmetry_Int_Tables_number       1
_space_group_crystal_system       triclinic
_cell_length_a                    18.223801
_cell_length_b                    18.207939
_cell_length_c                    18.370259
_cell_angle_alpha                 119.871453
_cell_angle_beta                  90.01793
_cell_angle_gamma                 119.910652
_cell_volume                      4323.71395441

loop_
_atom_site_label
_atom_site_type_symbol
_atom_site_description
_atom_site_fract_x
_atom_site_fract_y
_atom_site_fract_z
_atom_type_partial_charge
Zn1   Zn    Zn3+2 0.456040 0.586770 0.543190 1.020036
Zn2   Zn    Zn3+2 0.456820 0.413240 0.543960 0.999556
Zn3   Zn    Zn3+2 0.631110 0.586750 0.543190 1.024082
Zn4   Zn    Zn3+2 0.456040 0.413240 0.369660 0.989230
O1    O     O_3   0.500000 0.500000 0.500000 -0.508465
O2    O     O_R   0.383400 0.268380 0.323710 -0.649171
O3    O     O_R   0.555060 0.731630 0.615290 -0.618567
O4    O     O_R   0.383950 0.439280 0.616600 -0.594671
O5    O     O_R   0.677590 0.560710 0.444390 -0.612458
O6    O     O_R   0.556370 0.439260 0.616600 -0.641790
O7    O     O_R   0.382640 0.439290 0.322940 -0.625966
O8    O     O_R   0.678360 0.560700 0.616060 -0.625354
O9    O     O_R   0.382640 0.560750 0.444390 -0.595018
O10   O     O_R   0.383400 0.560740 0.616060 -0.644690
O11   O     O_R   0.555060 0.439270 0.322940 -0.629469
O12   O     O_R   0.383950 0.268380 0.445700 -0.647045
O13   O     O_R   0.677590 0.731610 0.615290 -0.642663
C1    C     C_R   0.358942 0.219953 0.361515 0.776683
C2    C     C_R   0.640885 0.780894 0.638081 0.777165
C3    C     C_R   0.359505 0.500981 0.640954 0.817182
C4    C     C_R   0.640695 0.498660 0.359634 0.810419
C5    C     C_R   0.641632 0.501387 0.641453 0.844567
C6    C     C_R   0.361502 0.503713 0.359799 0.823013
C7    C     C_3   0.312911 0.461421 0.207564 0.125535
H1    H     H_    0.282244 0.377343 0.174244 0.141436
C8    C     C_3   0.257633 0.469484 0.151747 -0.457648
H2    H     H_    0.302087 0.527848 0.138704 0.217815
H3    H     H_    0.216386 0.393831 0.085643 0.242377
H4    H     H_    0.191594 0.353864 0.262791 0.149983
C9    C     C_3   0.204791 0.430864 0.290181 -0.548085
C10   C     C_3   0.327788 0.616746 0.344894 0.195015
C11   C     C_3   0.304270 0.505239 0.303095 -0.119780
H5    H     H_    0.395331 0.664646 0.343502 0.156894
C12   C     C_3   0.197127 0.499452 0.200605 -0.059727
C13   C     C_3   0.138448 0.420869 0.224881 0.713229
C14   C     C_3   0.260714 0.610829 0.287254 -0.543139
H6    H     H_    0.298738 0.667121 0.270189 0.168331
H7    H     H_    0.220714 0.634919 0.325551 0.240521
H8    H     H_    0.194908 0.454415 0.355558 0.245176
C15   C     C_3   0.662733 0.941362 0.664126 -0.391127
H9    H     H_    0.593345 0.914221 0.666096 0.212207
H10   H     H_    0.659674 0.912731 0.593953 0.186342
C16   C     C_3   0.723961 0.061365 0.723941 -0.519303
H11   H     H_    0.754513 0.090530 0.683596 0.196378
H12   H     H_    0.682455 0.090665 0.749820 0.193573
H13   H     H_    0.629404 0.900514 0.793580 0.153071
H14   H     H_    0.704361 0.077170 0.874308 0.063601
C17   C     C_3   0.699192 0.935569 0.792687 -0.468582
C18   C     C_3   0.796710 0.941915 0.696855 -0.390263
C19   C     C_3   0.698565 0.897265 0.696258 0.128714
H15   H     H_    0.824264 0.910187 0.717133 0.205305
H16   H     H_    0.799072 0.918829 0.628724 0.188285
C20   C     C_3   0.798721 0.102057 0.802577 0.125229
C21   C     C_3   0.752443 0.055863 0.854724 0.369522
C22   C     C_3   0.855720 0.060923 0.761884 -0.369772
H17   H     H_    0.888920 0.094699 0.725444 0.168454
H18   H     H_    0.909047 0.085397 0.815359 0.212647
H19   H     H_    0.729034 0.908461 0.817538 0.192626
C23   C     C_3   0.672472 0.388542 0.232615 -0.366487
H20   H     H_    0.604873 0.342052 0.183887 0.192290
H21   H     H_    0.666932 0.346709 0.262534 0.205250
C24   C     C_3   0.741697 0.395064 0.183141 -0.430524
H22   H     H_    0.783873 0.375647 0.201956 0.246754
H23   H     H_    0.704674 0.335721 0.110499 0.176186
H24   H     H_    0.616325 0.499391 0.215770 0.248793
H25   H     H_    0.691180 0.470212 0.116828 0.230359
C25   C     C_3   0.688369 0.542599 0.252522 -0.433897
C26   C     C_3   0.800096 0.568859 0.362691 0.043333
C27   C     C_3   0.699323 0.499342 0.303368 -0.020627
H26   H     H_    0.814913 0.644167 0.418073 0.160317
C28   C     C_3   0.802892 0.505561 0.204078 -0.003985
C29   C     C_3   0.740095 0.532768 0.185394 -0.402801
C30   C     C_3   0.863846 0.589060 0.306815 0.572148
H27   H     H_    0.713085 0.624880 0.300347 0.225898
H28   H     H_    0.778374 0.605728 0.189350 0.246152
C31   C     C_R   0.379636 0.178840 0.586298 -0.242053
H29   H     H_    0.446629 0.219123 0.627964 0.125027
C32   C     C_R   0.364324 0.142277 0.496900 -0.217255
H30   H     H_    0.419444 0.152133 0.470947 0.150037
C33   C     C_R   0.279228 0.094464 0.441181 0.012617
C34   C     C_R   0.207022 0.078002 0.475785 0.220985
C35   C     C_R   0.223709 0.114467 0.565999 -0.206647
H31   H     H_    0.169863 0.104362 0.593851 0.205994
C36   C     C_R   0.308944 0.163427 0.621260 0.548315
C37   C     C_R   0.211833 0.942532 0.287692 -0.161089
H32   H     H_    0.181456 0.898494 0.315550 0.181739
C38   C     C_R   0.198015 0.892059 0.196540 -0.067993
C39   C     C_R   0.240376 0.949812 0.161335 0.014430
C40   C     C_R   0.290494 0.056536 0.217052 -0.250315
H33   H     H_    0.322923 0.099972 0.189077 0.178556
C41   C     C_R   0.303546 0.107501 0.308075 -0.051364
C42   C     C_R   0.265090 0.049552 0.344751 0.073301
C43   C     C_R   0.316904 0.893469 0.057833 -0.166600
H34   H     H_    0.362417 0.911545 0.111556 0.137116
C44   C     C_R   0.331356 0.863378 0.976402 -0.217704
H35   H     H_    0.387499 0.858074 0.967790 0.165602
C45   C     C_R   0.274450 0.841908 0.907101 -0.233437
H36   H     H_    0.287727 0.820565 0.845040 0.156428
C46   C     C_R   0.201075 0.848500 0.918434 0.533452
C47   C     C_R   0.189229 0.883363 0.001803 -0.173519
H37   H     H_    0.135661 0.893733 0.012420 0.148007
C48   C     C_R   0.246443 0.904561 0.071201 0.080095
H38   H     H_    0.968866 0.962462 0.805374 0.175224
C49   C     C_R   0.935604 0.807066 0.726416 0.421797
C50   C     C_R   0.885371 0.709729 0.712538 -0.220743
H39   H     H_    0.891171 0.648626 0.664071 0.200074
C51   C     C_R   0.828751 0.690725 0.762122 -0.047554
C52   C     C_R   0.821916 0.770835 0.826999 0.345732
C53   C     C_R   0.874040 0.868507 0.841859 -0.299978
H40   H     H_    0.870333 0.931044 0.891293 0.197844
C54   C     C_R   0.930424 0.886518 0.792602 -0.296075
C55   C     C_R   0.837732 0.586538 0.804169 -0.238355
H41   H     H_    0.907481 0.651126 0.842307 0.165620
C56   C     C_R   0.798493 0.502302 0.810234 -0.038911
C57   C     C_R   0.705502 0.422644 0.766862 0.113692
C58   C     C_R   0.657789 0.421891 0.707982 -0.170156
H42   H     H_    0.587814 0.358515 0.671522 0.148131
C59   C     C_R   0.697436 0.504921 0.700327 -0.007228
C60   C     C_R   0.786875 0.591498 0.753218 0.072954
C61   C     C_R   0.622143 0.242321 0.728875 0.480661
C62   C     C_R   0.581363 0.174209 0.754766 -0.255931
H43   H     H_    0.559296 0.094556 0.711019 0.146414
C63   C     C_R   0.568627 0.208177 0.837172 -0.268305
H44   H     H_    0.537136 0.155039 0.856233 0.164341
C64   C     C_R   0.594607 0.309719 0.894352 -0.189050
H45   H     H_    0.581451 0.333411 0.956845 0.170744
C65   C     C_R   0.635753 0.379748 0.870789 0.303505
C66   C     C_R   0.653506 0.346947 0.788932 -0.089822
H46   H     H_    0.486262 0.944037 0.777201 0.121149
C67   C     C_R   0.478594 0.861659 0.832983 -0.177567
H47   H     H_    0.539207 0.927742 0.889258 0.125144
C68   C     C_R   0.430491 0.767162 0.823476 -0.164768
H48   H     H_    0.454412 0.760809 0.872636 0.143147
C69   C     C_R   0.350328 0.682299 0.752332 0.154625
C70   C     C_R   0.319907 0.692265 0.689659 -0.100492
H49   H     H_    0.257773 0.627570 0.634706 0.153496
C71   C     C_R   0.369424 0.786210 0.698210 -0.085610
H50   H     H_    0.345675 0.793821 0.650050 0.187812
C72   C     C_R   0.448529 0.871006 0.770045 -0.133703
C73   C     C_R   0.240567 0.581023 0.798301 -0.269163
H51   H     H_    0.239145 0.647847 0.839921 0.185268
C74   C     C_R   0.191575 0.494920 0.801270 -0.126062
C75   C     C_R   0.192142 0.406563 0.745073 -0.092237
C76   C     C_R   0.234762 0.403551 0.681164 0.466512
C77   C     C_R   0.296302 0.496984 0.690313 -0.178651
C78   C     C_R   0.295561 0.584936 0.746238 -0.057256
C79   C     C_R   0.208339 0.339058 0.828930 -0.104863
H52   H     H_    0.269549 0.414871 0.876332 0.150606
C80   C     C_R   0.180370 0.259870 0.840775 0.560226
C81   C     C_R   0.099875 0.161770 0.778839 -0.229070
H53   H     H_    0.073471 0.099404 0.786732 0.170297
C82   C     C_R   0.051333 0.143684 0.706086 -0.202431
H54   H     H_    0.990951 0.067568 0.657954 0.188066
C83   C     C_R   0.078958 0.223873 0.696364 -0.128981
H55   H     H_    0.038140 0.209551 0.642111 0.129923
C84   C     C_R   0.158005 0.321927 0.757262 0.118848
Zn5   Zn    Zn3+2 0.041710 0.413240 0.959030 0.996492
Zn6   Zn    Zn3+2 0.866640 0.413270 0.959030 0.998136
Zn7   Zn    Zn3+2 0.040930 0.586780 0.958260 0.965019
Zn8   Zn    Zn3+2 0.041710 0.586770 0.132560 1.038974
O14   O     O_3   0.997750 0.500010 0.002220 -0.497538
O15   O     O_R   0.942690 0.560750 0.179280 -0.548328
O16   O     O_R   0.114340 0.439270 0.886160 -0.653351
O17   O     O_R   0.820160 0.268410 0.886930 -0.654191
O18   O     O_R   0.113800 0.731630 0.056520 -0.642377
O19   O     O_R   0.819390 0.439310 0.886160 -0.640772
O20   O     O_R   0.115110 0.560720 0.179280 -0.641667
O21   O     O_R   0.941380 0.560750 0.885620 -0.657926
O22   O     O_R   0.115110 0.439270 0.057830 -0.625485
O23   O     O_R   0.942690 0.268390 0.886930 -0.628322
O24   O     O_R   0.114340 0.731630 0.178520 -0.642302
O25   O     O_R   0.820160 0.439310 0.057830 -0.659639
O26   O     O_R   0.113800 0.560730 0.885620 -0.653399
C85   C     C_R   0.857661 0.502165 0.143430 0.868454
C86   C     C_R   0.137940 0.498805 0.860693 0.818975
C87   C     C_R   0.856744 0.218904 0.862041 0.805864
C88   C     C_R   0.139865 0.779860 0.141126 0.817777
C89   C     C_R   0.855778 0.500776 0.863017 0.826280
C90   C     C_R   0.139825 0.499939 0.142725 0.889508
N1    N     N_R   0.074922 0.443038 0.264644 0.166107
O27   O     O_R   0.082154 0.478281 0.347610 -0.404324
O28   O     O_R   0.004788 0.417684 0.214041 -0.414772
N2    N     N_R   0.406252 0.509817 0.208109 0.221940
O29   O     O_R   0.455551 0.604694 0.231220 -0.413002
O30   O     O_R   0.437568 0.453819 0.176402 -0.382182
O31   O     O_3   0.817758 0.097355 0.931400 -0.649126
C91   C     C_3   0.777478 0.078638 0.991746 0.066609
H56   H     H_    0.817243 0.066088 0.024026 0.180865
H57   H     H_    0.707708 0.007150 0.959198 0.131736
C92   C     C_3   0.778481 0.171674 0.063007 -0.392147
H58   H     H_    0.847027 0.243702 0.092609 0.271487
H59   H     H_    0.732226 0.179118 0.032415 0.200505
C93   C     C_3   0.749272 0.158949 0.136195 -0.878353
H60   H     H_    0.680338 0.087634 0.107763 0.252912
H61   H     H_    0.749455 0.226205 0.187004 0.283423
H62   H     H_    0.796139 0.154156 0.169328 0.270105
N3    N     N_R   0.814786 0.524375 0.405374 0.207087
O32   O     O_R   0.826352 0.566913 0.489813 -0.371279
O33   O     O_R   0.818439 0.444615 0.361444 -0.391443
O34   O     O_3   0.931169 0.574584 0.321852 -0.607454
C94   C     C_3   0.997141 0.652921 0.407749 0.249243
H63   H     H_    0.994303 0.615480 0.441409 0.222302
H64   H     H_    0.987187 0.714465 0.451369 0.169891
C95   C     C_3   0.090204 0.702201 0.398938 -0.308162
H65   H     H_    0.097983 0.640417 0.351500 0.279161
H66   H     H_    0.097859 0.747789 0.372492 0.247248
C96   C     C_3   0.163709 0.773312 0.488467 -0.923934
H67   H     H_    0.153357 0.831703 0.538038 0.283237
H68   H     H_    0.230309 0.813587 0.481487 0.265773
H69   H     H_    0.162705 0.727879 0.512588 0.300501
N4    N     N_R   0.906808 0.695657 0.328778 0.151002
O35   O     O_R   0.883432 0.755853 0.379227 -0.399312
O36   O     O_R   0.968651 0.731233 0.296666 -0.353976
O37   O     O_3   0.321596 0.200866 0.710356 -0.633477
C97   C     C_3   0.357716 0.160959 0.736359 0.069086
H70   H     H_    0.372428 0.200601 0.809337 0.178797
H71   H     H_    0.422888 0.179707 0.725438 0.135566
C98   C     C_3   0.291006 0.043813 0.690629 -0.396269
H72   H     H_    0.224402 0.025678 0.696870 0.267545
H73   H     H_    0.283731 0.002725 0.618919 0.213053
C99   C     C_3   0.322678 0.004431 0.730740 -0.921097
H74   H     H_    0.386867 0.016739 0.720773 0.261540
H75   H     H_    0.271844 0.920185 0.697334 0.272605
H76   H     H_    0.331805 0.044971 0.802948 0.263979
N5    N     N_R   0.116824 0.023634 0.420909 0.208602
O38   O     O_R   0.101743 0.023923 0.351858 -0.409148
O39   O     O_R   0.048877 0.978674 0.443186 -0.330980
O40   O     O_3   0.144402 0.828978 0.851187 -0.659237
C100  C     C_3   0.098062 0.724443 0.776717 0.081598
H77   H     H_    0.025337 0.691172 0.760289 0.165264
H78   H     H_    0.106408 0.673953 0.788428 0.132354
C101  C     C_3   0.126340 0.719724 0.696904 -0.374402
H79   H     H_    0.120566 0.772082 0.686932 0.282806
H80   H     H_    0.197480 0.747138 0.709887 0.199356
C102  C     C_3   0.068979 0.609706 0.612359 -0.841411
H81   H     H_    0.074812 0.556664 0.621426 0.247312
H82   H     H_    0.092281 0.608298 0.556169 0.287507
H83   H     H_    0.997544 0.581979 0.595510 0.289396
N6    N     N_R   0.991836 0.825256 0.673909 0.204636
O41   O     O_R   0.041076 0.916352 0.688940 -0.466427
O42   O     O_R   0.992247 0.750043 0.608612 -0.436169
N7    N     N_R   0.764267 0.755408 0.879103 0.211763
O43   O     O_R   0.686457 0.667774 0.843849 -0.356836
O44   O     O_R   0.783564 0.833349 0.958053 -0.407257
O45   O     O_3   0.638292 0.210261 0.648364 -0.648066
C103  C     C_3   0.557558 0.124723 0.575740 0.040546
H84   H     H_    0.551215 0.146469 0.530490 0.158434
H85   H     H_    0.495290 0.102670 0.594354 0.120009
C104  C     C_3   0.562141 0.031062 0.524709 -0.314722
H86   H     H_    0.618887 0.050167 0.498303 0.231512
H87   H     H_    0.574378 0.011938 0.570119 0.227126
C105  C     C_3   0.475160 0.936447 0.447560 -0.897197
H88   H     H_    0.417906 0.914037 0.472823 0.273544
H89   H     H_    0.481001 0.870348 0.411167 0.281176
H90   H     H_    0.461733 0.953209 0.400593 0.247983
O46   O     O_3   0.089476 0.319248 0.144160 -0.668620
C106  C     C_3   0.026839 0.241068 0.154522 0.130547
H91   H     H_    0.958987 0.219688 0.130246 0.188079
H92   H     H_    0.039358 0.265300 0.224711 0.141576
C107  C     C_3   0.028694 0.146102 0.098348 -0.430598
H93   H     H_    0.003891 0.112991 0.026755 0.241018
H94   H     H_    0.098844 0.169598 0.115198 0.230551
C108  C     C_3   0.971010 0.063517 0.114607 -0.839939
H95   H     H_    0.998272 0.093406 0.184738 0.260631
H96   H     H_    0.971249 0.994358 0.070203 0.287641
H97   H     H_    0.900864 0.040266 0.100578 0.278014
N8    N     N_R   0.659062 0.483232 0.930245 0.210593
O47   O     O_R   0.652203 0.530793 0.899192 -0.312094
O48   O     O_R   0.676042 0.525271 0.015201 -0.398315
O49   O     O_3   0.219552 0.310095 0.613773 -0.628606
C109  C     C_3   0.180911 0.281605 0.528768 0.114778
H98   H     H_    0.198743 0.231662 0.479346 0.191294
H99   H     H_    0.207246 0.347796 0.523375 0.090858
C110  C     C_3   0.078639 0.221693 0.501897 -0.370902
H100  H     H_    0.050285 0.149845 0.498708 0.272259
H101  H     H_    0.060130 0.270377 0.552094 0.198235
C111  C     C_3   0.038028 0.193072 0.411426 -0.859037
H102  H     H_    0.062440 0.264127 0.414200 0.246148
H103  H     H_    0.963813 0.147610 0.392863 0.274238
H104  H     H_    0.056208 0.145675 0.359391 0.293017
O50   O     O_3   0.230033 0.285553 0.917440 -0.652676
C112  C     C_3   0.232554 0.203817 0.905514 0.107650
H105  H     H_    0.302905 0.237190 0.938342 0.179670
H106  H     H_    0.215087 0.142256 0.834768 0.150101
C113  C     C_3   0.173663 0.158595 0.951339 -0.392418
H107  H     H_    0.200958 0.219245 0.024006 0.233088
H108  H     H_    0.104394 0.133842 0.926705 0.219551
C114  C     C_3   0.170671 0.066241 0.935209 -0.869234
H109  H     H_    0.142628 0.003874 0.862904 0.302321
H110  H     H_    0.127278 0.035125 0.968947 0.264576
H111  H     H_    0.239117 0.090187 0.962252 0.262847
N9    N     N_R   0.331844 0.671000 0.438344 0.228262
O51   O     O_R   0.260640 0.638302 0.461120 -0.403307
O52   O     O_R   0.406973 0.757058 0.499197 -0.437267

loop_
_geom_bond_atom_site_label_1
_geom_bond_atom_site_label_2
_geom_bond_distance
_ccdc_geom_bond_type
C109  C110  1.530598 S    
O20   C90   1.278898 A    
C22   H17   1.109807 S    
C9    H8    1.105834 S    
C43   H34   1.083489 S    
C104  C105  1.527162 S    
C108  H97   1.109573 S    
C110  C111  1.527522 S    
O18   C88   1.279222 A    
C94   H63   1.111095 S    
C67   C68   1.398500 A    
N6    O41   1.300734 A    
C79   H52   1.083726 S    
C38   C39   1.410015 A    
C96   H68   1.110593 S    
O16   C86   1.272504 A    
C31   C36   1.403710 A    
C55   C56   1.397362 A    
C45   H36   1.077945 S    
C98   H72   1.110651 S    
Zn7   O26   1.941121 S    
C108  H95   1.111000 S    
O23   C87   1.286785 A    
C37   H32   1.085137 S    
C52   C53   1.403938 A    
C17   C21   1.559166 S    
C93   H60   1.110960 S    
C71   C72   1.397487 A    
Zn6   O19   1.948559 S    
C104  H86   1.111480 S    
O4    C3    1.288147 A    
C34   N5    1.442294 S    
C9    C13   1.579887 S    
Zn1   O1    1.944586 S    
C1    C41   1.452907 S    
N9    O51   1.300505 A    
C79   C80   1.402045 A    
C7    C8    1.544190 S    
C12   C13   1.581024 S    
C99   H76   1.110935 S    
H14   C21   1.117113 S    
N2    O30   1.301347 A    
C32   C33   1.405500 A    
C63   C64   1.392135 A    
C75   C76   1.401253 A    
N5    O39   1.301528 A    
C30   O34   1.430332 S    
O8    C5    1.270055 A    
C58   H42   1.080919 S    
O9    C6    1.278590 A    
Zn6   O25   1.944412 S    
H38   C54   1.080985 S    
C110  H100  1.109642 S    
Zn8   O20   1.946368 S    
O7    C6    1.281577 A    
N3    O33   1.301451 A    
C59   C60   1.412993 A    
C49   C50   1.405641 A    
C91   C92   1.530949 S    
C24   H23   1.113358 S    
Zn3   O8    1.948703 S    
C92   C93   1.527219 S    
Zn5   O22   1.953816 S    
C49   N6    1.438945 S    
C80   C81   1.413625 A    
C16   C20   1.554925 S    
C15   C16   1.550126 S    
H25   C29   1.111809 S    
C10   C11   1.573044 S    
N1    O28   1.301590 A    
C26   C27   1.571258 S    
H24   C25   1.112989 S    
C82   H54   1.082242 S    
C102  H82   1.109621 S    
C96   H69   1.109541 S    
N7    O44   1.301094 A    
C102  H81   1.111028 S    
C10   H5    1.108153 S    
O17   C87   1.286495 A    
O19   C89   1.267673 A    
C57   C58   1.378008 A    
C40   C41   1.395591 A    
C107  H94   1.111560 S    
Zn2   O12   1.934292 S    
Zn5   O16   1.943183 S    
C83   C84   1.399535 A    
C46   O40   1.383754 S    
Zn6   O14   1.954467 S    
Zn6   O17   1.928723 S    
C63   H44   1.082542 S    
C93   H62   1.111066 S    
C114  H110  1.110729 S    
C17   C19   1.544625 S    
C61   C62   1.408957 A    
C23   H20   1.113544 S    
C43   C44   1.391064 A    
C70   C71   1.399225 A    
C111  H102  1.111135 S    
C7    N2    1.471879 S    
C95   H65   1.107990 S    
C94   H64   1.113155 S    
C55   C60   1.382161 A    
C12   C90   1.496341 S    
C102  H83   1.110881 S    
C29   H28   1.111902 S    
C69   C78   1.479548 S    
C67   C72   1.398034 A    
C51   C60   1.484543 S    
O40   C100  1.417739 S    
C45   C46   1.407503 A    
C37   C42   1.384357 A    
O25   C85   1.294689 A    
C77   C78   1.415257 A    
H13   C17   1.107261 S    
C31   H29   1.077732 S    
C20   C22   1.554815 S    
O2    C1    1.294874 A    
C103  H85   1.117341 S    
C23   H21   1.110320 S    
C104  H87   1.110633 S    
C37   C38   1.395691 A    
C96   H67   1.109474 S    
C114  H111  1.110962 S    
O10   C3    1.267250 A    
C25   C29   1.546096 S    
C7    H1    1.115229 S    
Zn4   O2    1.929046 S    
C97   C98   1.536787 S    
C73   C78   1.386166 A    
C41   C42   1.424537 A    
C28   C30   1.601094 S    
C32   H30   1.083625 S    
C68   H48   1.083074 S    
C53   C54   1.393659 A    
C18   H15   1.108261 S    
C26   C30   1.577748 S    
C20   C21   1.559496 S    
N9    O52   1.301592 A    
O6    C5    1.278502 A    
C101  C102  1.526182 S    
C34   C35   1.407861 A    
C57   C66   1.488719 S    
Zn7   O18   1.934190 S    
C4    C27   1.486714 S    
C26   N3    1.480279 S    
C106  H92   1.114454 S    
C93   H61   1.108242 S    
C33   C42   1.489889 S    
C76   O49   1.391405 S    
C16   H11   1.112984 S    
C7    C11   1.572219 S    
N2    O29   1.301184 A    
C113  H107  1.110067 S    
Zn3   O5    1.944412 S    
Zn5   O23   1.933645 S    
C38   C88   1.449656 S    
C99   H74   1.109812 S    
C50   C51   1.404471 A    
C98   H73   1.109923 S    
C46   C47   1.401270 A    
H46   C72   1.082700 S    
C95   C96   1.524281 S    
C107  C108  1.525295 S    
C51   C52   1.418863 A    
C18   H16   1.113113 S    
C18   C22   1.541320 S    
O46   C106  1.419541 S    
C24   H22   1.108060 S    
Zn7   O14   1.949073 S    
N5    O38   1.300956 A    
C112  H105  1.110927 S    
N6    O42   1.299330 A    
C25   H27   1.111277 S    
C44   C45   1.395750 A    
C73   H51   1.081880 S    
Zn4   O7    1.946372 S    
C79   C84   1.406023 A    
C10   N9    1.471814 S    
C83   H55   1.077887 S    
C62   H43   1.080802 S    
C69   C70   1.404937 A    
O26   C86   1.286475 A    
C65   N8    1.440559 S    
C23   C27   1.549831 S    
C105  H90   1.110887 S    
C68   C69   1.402070 A    
C15   H9    1.113182 S    
N4    O36   1.300270 A    
C82   C83   1.394235 A    
Zn7   O21   1.951288 S    
C18   C19   1.549533 S    
C35   C36   1.398077 A    
C22   H18   1.113306 S    
C8    H2    1.112744 S    
C13   O46   1.427669 S    
C100  H78   1.118472 S    
C94   C95   1.528010 S    
C81   C82   1.395547 A    
Zn2   O1    1.948926 S    
C92   H58   1.109714 S    
C61   O45   1.387956 S    
C65   C66   1.421618 A    
Zn2   O6    1.951389 S    
Zn5   O14   1.944586 S    
C100  H77   1.109721 S    
C106  H91   1.107278 S    
C62   C63   1.392401 A    
N1    O27   1.301289 A    
C36   O37   1.388641 S    
C98   C99   1.526118 S    
C105  H89   1.110440 S    
C47   C48   1.403217 A    
C50   H39   1.082733 S    
C25   C27   1.556331 S    
C13   N1    1.486479 S    
C109  H99   1.111200 S    
C5    C59   1.439716 S    
C103  H84   1.111100 S    
C14   H6    1.113941 S    
C23   C24   1.546097 S    
C92   H59   1.110979 S    
C3    C77   1.461819 S    
C8    C12   1.559480 S    
C101  H80   1.105730 S    
O37   C97   1.418441 S    
C112  H106  1.113366 S    
C113  C114  1.526659 S    
C30   N4    1.499067 S    
O12   C1    1.271733 A    
Zn2   O4    1.941076 S    
C56   C89   1.444281 S    
C6    C11   1.493577 S    
C31   C32   1.394096 A    
C33   C34   1.422109 A    
Zn3   O1    1.954467 S    
C43   C48   1.399763 A    
C49   C54   1.401507 A    
C39   C48   1.471303 S    
N8    O47   1.300377 A    
C61   C66   1.411788 A    
C17   H19   1.113451 S    
C74   C86   1.464496 S    
O15   C85   1.274296 A    
C100  C101  1.530297 S    
C71   H50   1.082090 S    
C8    H3    1.112523 S    
C81   H53   1.077565 S    
C28   C85   1.494957 S    
C76   C77   1.411541 A    
C106  C107  1.528674 S    
C28   C29   1.551558 S    
C114  H109  1.110539 S    
Zn4   O11   1.941842 S    
C111  H103  1.110267 S    
C67   H47   1.082294 S    
O50   C112  1.417173 S    
C91   H56   1.108536 S    
C113  H108  1.109296 S    
C108  H96   1.110572 S    
C53   H40   1.082833 S    
C107  H93   1.111535 S    
C14   H7    1.109292 S    
C9    C11   1.551785 S    
N8    O48   1.300341 A    
C2    C19   1.503031 S    
O5    C4    1.281496 A    
C75   C84   1.483122 S    
C64   H45   1.082379 S    
O11   C4    1.284300 A    
O34   C94   1.420026 S    
O3    C2    1.285503 A    
O21   C89   1.283545 A    
N7    O43   1.299906 A    
C15   H10   1.112752 S    
C47   H37   1.083477 S    
O13   C2    1.285509 A    
Zn8   O24   1.929001 S    
C58   C59   1.396376 A    
C24   C28   1.559083 S    
Zn3   O13   1.928724 S    
C55   H41   1.085106 S    
C56   C57   1.416717 A    
C97   H70   1.110422 S    
N3    O32   1.300266 A    
Zn8   O14   1.959412 S    
O31   C91   1.418186 S    
C91   H57   1.114531 S    
C97   H71   1.109675 S    
C70   H49   1.083217 S    
C103  C104  1.530908 S    
H4    C9    1.112488 S    
N4    O35   1.302217 A    
C101  H79   1.107900 S    
C15   C19   1.553769 S    
Zn4   O1    1.959412 S    
Zn1   O9    1.953917 S    
C39   C40   1.380616 A    
C12   C14   1.558483 S    
C112  C113  1.532373 S    
C99   H75   1.110207 S    
C35   H31   1.082849 S    
C21   O31   1.419048 S    
C111  H104  1.109910 S    
C52   N7    1.439776 S    
C44   H35   1.079170 S    
C64   C65   1.404235 A    
C26   H26   1.108659 S    
C80   O50   1.393684 S    
C10   C14   1.543092 S    
O24   C88   1.285745 A    
Zn1   O3    1.933746 S    
C74   C75   1.419962 A    
Zn1   O10   1.943285 S    
C73   C74   1.395440 A    
C40   H33   1.085250 S    
O45   C103  1.419145 S    
C95   H66   1.109377 S    
C16   H12   1.110313 S    
O22   C90   1.281648 A    
O49   C109  1.425326 S    
C109  H98   1.108745 S    
C20   C87   1.509456 S    
Zn8   O15   1.941839 S    
C105  H88   1.111257 S    
C110  H101  1.110877 S    
