data_mof_unit_65123.cif
_audit_creation_date              2012-12-10T20:49:53-0500
_audit_creation_method            fapswitch 2.2
_symmetry_space_group_name_H-M    P1
_symmetry_Int_Tables_number       1
_space_group_crystal_system       triclinic
_cell_length_a                    19.215127
_cell_length_b                    19.202932
_cell_length_c                    19.21336
_cell_angle_alpha                 94.850866
_cell_angle_beta                  89.964322
_cell_angle_gamma                 85.42586
_cell_volume                      7041.38960034

loop_
_atom_site_label
_atom_site_type_symbol
_atom_type_description
_atom_site_fract_x
_atom_site_fract_y
_atom_site_fract_z
_atom_type_partial_charge
C1    C     C_R   0.492858 0.492585 0.310610 0.511575
C2    C     C_R   0.122223 0.580855 0.504537 -0.097224
C3    C     C_R   0.509219 0.509392 0.766235 -0.027964
C4    C     C_R   0.507327 0.507008 0.689395 0.543303
C5    C     C_R   0.477236 0.458900 0.801481 0.347526
C6    C     C_R   0.477281 0.462309 0.873986 -0.107296
C7    C     C_R   0.509360 0.516160 0.913339 0.178455
C8    C     C_R   0.541617 0.566090 0.878217 0.396025
C9    C     C_R   0.541781 0.562680 0.805258 -0.167575
C10   C     C_R   0.445423 0.534780 0.127151 0.229969
C11   C     C_R   0.449254 0.538946 0.199912 -0.088160
C12   C     C_R   0.913164 0.477302 0.498124 0.195830
C13   C     C_R   0.484672 0.479417 0.087501 0.265926
C14   C     C_R   0.489950 0.488431 0.233890 -0.052583
C15   C     C_R   0.527312 0.433071 0.194262 -0.158067
C16   C     C_R   0.492715 0.689864 0.508129 0.512413
C17   C     C_R   0.524500 0.428024 0.121110 0.243398
C18   C     C_R   0.507233 0.233231 0.486811 0.029029
C19   C     C_R   0.475266 0.200463 0.539527 -0.140563
C20   C     C_R   0.473016 0.128011 0.534348 -0.085268
C21   C     C_R   0.502743 0.086770 0.475973 0.224906
C22   C     C_R   0.533776 0.119588 0.422973 -0.103256
C23   C     C_R   0.878945 0.421132 0.467363 -0.098743
C24   C     C_R   0.536724 0.192271 0.428537 -0.139491
C25   C     C_R   0.466172 0.876382 0.459805 -0.084733
C26   C     C_R   0.464498 0.803653 0.456665 -0.141218
C27   C     C_R   0.493325 0.912903 0.519150 0.224734
C28   C     C_R   0.507048 0.310026 0.491834 0.510631
C29   C     C_R   0.490633 0.766624 0.512187 0.032719
C30   C     C_R   0.516559 0.803372 0.571616 -0.138089
C31   C     C_R   0.516950 0.876022 0.575284 -0.101155
C32   C     C_R   0.310816 0.508637 0.508458 0.541215
C33   C     C_R   0.689465 0.491494 0.492538 0.542741
C34   C     C_R   0.805619 0.424721 0.463662 0.226717
C35   C     C_R   0.766400 0.485878 0.492255 0.069885
C36   C     C_R   0.801061 0.541856 0.523670 -0.193936
C37   C     C_R   0.873477 0.537862 0.526617 -0.100882
C38   C     C_R   0.126980 0.458158 0.526415 -0.100018
C39   C     C_R   0.199639 0.454984 0.525884 -0.193211
C40   C     C_R   0.087802 0.521167 0.514593 0.195340
C41   C     C_R   0.234277 0.514144 0.512802 0.073463
C42   C     C_R   0.195444 0.578033 0.502877 0.227834
F1    F     F_    0.572863 0.618350 0.914905 -0.577822
F2    F     F_    0.446110 0.405630 0.766214 -0.591119
H1    H     H_    0.228862 0.405777 0.534095 0.144508
H2    H     H_    0.536315 0.775941 0.615422 0.145455
H3    H     H_    0.447380 0.104437 0.575629 0.148534
H4    H     H_    0.536961 0.903682 0.621550 0.135049
H5    H     H_    0.451798 0.230840 0.584842 0.161811
H6    H     H_    0.909748 0.374480 0.446013 0.114768
H7    H     H_    0.898156 0.582033 0.551721 0.155897
H8    H     H_    0.091643 0.629442 0.496764 0.115185
H9    H     H_    0.772045 0.589116 0.546147 0.149819
H10   H     H_    0.419543 0.581597 0.229905 0.180540
H11   H     H_    0.395822 0.570386 0.047307 0.356310
H12   H     H_    0.566658 0.602212 0.779395 0.175638
H13   H     H_    0.586253 0.342324 0.112348 0.326244
H14   H     H_    0.806892 0.330553 0.416953 0.322842
H15   H     H_    0.194907 0.676913 0.486910 0.323815
H16   H     H_    0.558389 0.393467 0.220118 0.143555
H17   H     H_    0.451866 0.422586 0.898984 0.188127
H18   H     H_    0.444081 0.776300 0.410434 0.145385
H19   H     H_    0.446000 0.903975 0.416297 0.145574
H20   H     H_    0.556274 0.088624 0.377547 0.132602
H21   H     H_    0.101603 0.411486 0.535986 0.154936
H22   H     H_    0.561050 0.216449 0.386841 0.146260
N1    N     N_2   0.987258 0.470530 0.499898 -0.233744
N2    N     N_2   0.013858 0.527243 0.513193 -0.236519
N3    N     N_2   0.510063 0.521734 0.987672 -0.146429
N4    N     N_2   0.483243 0.472884 0.013854 -0.224951
N5    N     N_2   0.501208 0.012739 0.468533 -0.240068
N6    N     N_2   0.495827 0.986646 0.525381 -0.242205
O1    O     O_3   0.500000 0.500000 0.500000 -0.463191
O2    O     O_R   0.340900 0.545940 0.467290 -0.481376
O3    O     O_R   0.655960 0.450920 0.450930 -0.472242
O4    O     O_R   0.347180 0.467040 0.545670 -0.552229
O5    O     O_R   0.655970 0.536100 0.536110 -0.559420
O6    O     O_3   0.402042 0.584755 0.097430 -0.663413
O7    O     O_3   0.560791 0.373895 0.081036 -0.647742
O8    O     O_3   0.771740 0.368828 0.434001 -0.663724
O9    O     O_3   0.229803 0.636957 0.492765 -0.666418
O10   O     O_R   0.536480 0.656330 0.545680 -0.547354
O11   O     O_R   0.545300 0.340270 0.450920 -0.536946
O12   O     O_R   0.451550 0.536740 0.347440 -0.544687
O13   O     O_R   0.466670 0.466660 0.655960 -0.454710
O14   O     O_R   0.536460 0.451300 0.340640 -0.541347
O15   O     O_R   0.545320 0.545300 0.655970 -0.558788
O16   O     O_R   0.451560 0.656600 0.467300 -0.528479
O17   O     O_R   0.466660 0.346810 0.536100 -0.535461
Zn1   Zn    Zn3+2 0.558430 0.558420 0.558430 0.945157
Zn2   Zn    Zn3+2 0.437090 0.558800 0.446440 0.976633
Zn3   Zn    Zn3+2 0.446060 0.446060 0.558420 0.994972
Zn4   Zn    Zn3+2 0.558420 0.436720 0.436720 0.976570

loop_
_geom_bond_atom_site_label_1
_geom_bond_atom_site_label_2
_ccdc_geom_bond_type
C41   C42   A    
H13   O7    S    
C35   C36   A    
C8    F1    S    
O1    Zn4   S    
C10   O6    S    
C7    C8    A    
C39   C41   A    
C4    O15   A    
C1    O12   A    
C12   C23   A    
C21   N5    S    
C18   C24   A    
C6    H17   S    
C36   C37   A    
O1    Zn1   S    
C18   C19   A    
C32   O2    A    
C38   C39   A    
C37   H7    S    
C11   C14   A    
C13   N4    S    
O11   Zn4   S    
C17   O7    S    
C34   C35   A    
C25   H19   S    
C12   C37   A    
C36   H9    S    
C34   O8    S    
C33   O3    A    
C19   C20   A    
C8    C9    A    
C32   C41   S    
O16   Zn2   S    
C28   O17   A    
O12   Zn2   S    
C24   H22   S    
C39   H1    S    
C21   C22   A    
C28   O11   A    
C42   O9    S    
O13   Zn3   S    
C12   N1    S    
O5    Zn1   S    
C27   C31   A    
N1    N2    D    
C18   C28   S    
O1    Zn2   S    
H11   O6    S    
C23   H6    S    
C4    O13   A    
C25   C26   A    
O2    Zn2   S    
C7    N3    S    
C29   C30   A    
C3    C9    A    
O14   Zn4   S    
C19   H5    S    
C38   H21   S    
C30   C31   A    
C23   C34   A    
C16   O10   A    
C9    H12   S    
O17   Zn3   S    
C11   H10   S    
C2    H8    S    
O4    Zn3   S    
C5    F2    S    
C31   H4    S    
C22   C24   A    
C3    C4    S    
O3    Zn4   S    
C1    O14   A    
C15   C17   A    
C30   H2    S    
H15   O9    S    
O1    Zn3   S    
C3    C5    A    
C10   C13   A    
C32   O4    A    
C6    C7    A    
H14   O8    S    
C25   C27   A    
O10   Zn1   S    
C13   C17   A    
C26   H18   S    
N5    N6    D    
C38   C40   A    
C33   O5    A    
C5    C6    A    
C2    C42   A    
C33   C35   S    
N3    N4    D    
C20   H3    S    
C10   C11   A    
C22   H20   S    
C2    C40   A    
C20   C21   A    
C16   C29   S    
C26   C29   A    
C40   N2    S    
O15   Zn1   S    
C16   O16   A    
C14   C15   A    
C1    C14   S    
C15   H16   S    
C27   N6    S    
