data_mof_unit_45491.cif
_audit_creation_date              2012-12-10T19:47:23-0500
_audit_creation_method            fapswitch 2.2
_symmetry_space_group_name_H-M    P1
_symmetry_Int_Tables_number       1
_space_group_crystal_system       triclinic
_cell_length_a                    10.812685
_cell_length_b                    10.824186
_cell_length_c                    12.727854
_cell_angle_alpha                 93.019751
_cell_angle_beta                  93.043486
_cell_angle_gamma                 89.861668
_cell_volume                      1485.48233371

loop_
_atom_site_label
_atom_site_type_symbol
_atom_type_description
_atom_site_fract_x
_atom_site_fract_y
_atom_site_fract_z
_atom_type_partial_charge
C1    C     C_R   0.261985 0.496649 0.500495 0.810410
C2    C     C_R   0.738017 0.503332 0.499505 0.810285
C3    C     C_R   0.496403 0.871577 0.497928 -0.032171
C4    C     C_R   0.503548 0.128422 0.502076 -0.032241
C5    C     C_R   0.432024 0.934259 0.417385 0.070634
C6    C     C_R   0.567938 0.065739 0.582612 0.070482
C7    C     C_R   0.232999 0.176952 0.708492 0.483660
C8    C     C_R   0.767051 0.822893 0.291390 0.483690
C9    C     C_R   0.180195 0.254027 0.633681 -0.141501
C10   C     C_R   0.819748 0.745805 0.366238 -0.141032
C11   C     C_R   0.131497 0.370129 0.664162 -0.095564
C12   C     C_R   0.868523 0.629736 0.335796 -0.095457
C13   C     C_R   0.138427 0.410778 0.772280 0.452024
C14   C     C_R   0.861780 0.589140 0.227671 0.451796
C15   C     C_R   0.191849 0.333062 0.846555 -0.177987
C16   C     C_R   0.808446 0.666862 0.153361 -0.178064
C17   C     C_R   0.238576 0.217261 0.815493 -0.364540
C18   C     C_R   0.761630 0.782622 0.184391 -0.364512
C19   C     C_R   0.938358 0.449219 0.581009 -0.180519
C20   C     C_R   0.061642 0.550644 0.418994 -0.180375
C21   C     C_R   0.871670 0.505002 0.499131 -0.069908
C22   C     C_R   0.128332 0.494914 0.500872 -0.069909
C23   C     C_R   0.503076 0.261953 0.500747 0.801538
C24   C     C_R   0.496908 0.738046 0.499253 0.801614
C25   C     C_R   0.933470 0.557644 0.417748 0.011025
C26   C     C_R   0.066531 0.442238 0.582250 0.011021
C27   C     C_2   0.473764 0.459195 0.030761 -0.264541
C28   C     C_2   0.526271 0.540808 0.969241 -0.264571
C29   C     C_1   0.522073 0.527225 0.852900 0.229003
C30   C     C_1   0.477943 0.472778 0.147100 0.229098
C31   C     C_R   0.845067 0.197904 0.746075 -0.174490
C32   C     C_R   0.155150 0.801911 0.253718 -0.174302
C33   C     C_R   0.773046 0.146545 0.660101 0.270210
C34   C     C_R   0.227077 0.853238 0.339758 0.270215
C35   C     C_R   0.644852 0.129304 0.668800 0.040400
C36   C     C_R   0.355228 0.870687 0.331133 0.040541
C37   C     C_R   0.591063 0.164981 0.763784 -0.150584
C38   C     C_R   0.409073 0.835238 0.236152 -0.150788
C39   C     C_R   0.663282 0.218600 0.848333 -0.141839
C40   C     C_R   0.336959 0.781649 0.151535 -0.141962
C41   C     C_R   0.790273 0.234873 0.839548 -0.138923
C42   C     C_R   0.210007 0.765181 0.160245 -0.138818
C43   C     C_R   0.563150 0.937594 0.579611 -0.163359
C44   C     C_R   0.436794 0.062408 0.420398 -0.163291
Cu1   Cu    Cu3+1 0.492140 0.492110 0.395880 0.999794
Cu2   Cu    Cu3+1 0.507860 0.507890 0.604120 0.999810
H1    H     H_    0.846410 0.275525 0.905345 0.170887
H2    H     H_    0.153938 0.724570 0.094392 0.170900
H3    H     H_    0.196981 0.362735 0.929272 0.177553
H4    H     H_    0.803470 0.637221 0.070646 0.177626
H5    H     H_    0.890115 0.407983 0.642821 0.171233
H6    H     H_    0.109883 0.591842 0.357175 0.171298
H7    H     H_    0.573267 0.621486 0.006438 0.152816
H8    H     H_    0.426774 0.378513 0.993562 0.152746
H9    H     H_    0.943695 0.209504 0.740387 0.168287
H10   H     H_    0.056543 0.790164 0.259353 0.168226
H11   H     H_    0.493402 0.150946 0.772517 0.147174
H12   H     H_    0.506692 0.849441 0.227470 0.147302
H13   H     H_    0.620982 0.246353 0.921058 0.144802
H14   H     H_    0.379302 0.754093 0.078809 0.144807
H15   H     H_    0.613955 0.888987 0.640593 0.148701
H16   H     H_    0.386004 0.111017 0.359409 0.148677
H17   H     H_    0.279080 0.159151 0.874884 0.148465
H18   H     H_    0.721179 0.840734 0.124977 0.148460
H19   H     H_    0.174414 0.221959 0.551419 0.184886
H20   H     H_    0.825404 0.777840 0.448501 0.184778
N1    N     N_1   0.480320 0.480250 0.239400 -0.154507
N2    N     N_1   0.519680 0.519750 0.760600 -0.154489
O1    O     O_R   0.313000 0.493330 0.412070 -0.582423
O2    O     O_R   0.687000 0.506670 0.587930 -0.582388
O3    O     O_R   0.326280 0.506660 0.587930 -0.565711
O4    O     O_R   0.673720 0.493340 0.412070 -0.565778
O5    O     O_R   0.493370 0.312980 0.412070 -0.578933
O6    O     O_R   0.506630 0.687020 0.587930 -0.578925
O7    O     O_R   0.506650 0.326310 0.587930 -0.577127
O8    O     O_R   0.493350 0.673690 0.412070 -0.577102
O9    O     O_3   0.095039 0.524324 0.808880 -0.730957
H21   H     H_    0.071609 0.575315 0.748704 0.339965
O10   O     O_3   0.905308 0.475648 0.191094 -0.730986
H22   H     H_    0.928527 0.424594 0.251274 0.339957
Br1   Br    Br    0.853173 0.100820 0.533060 -0.463709
Br2   Br    Br    0.146867 0.898636 0.466782 -0.463837
O11   O     O_3   0.276681 0.062627 0.674816 -0.693031
H23   H     H_    0.307768 0.018137 0.737070 0.318742
O12   O     O_3   0.723336 0.937203 0.325019 -0.693122
H24   H     H_    0.692449 0.981715 0.262727 0.318736

loop_
_geom_bond_atom_site_label_1
_geom_bond_atom_site_label_2
_ccdc_geom_bond_type
C7    O11   S    
C40   H14   S    
C24   O6    A    
C27   H8    S    
C39   C41   A    
O9    H21   S    
C3    C43   A    
C1    O3    A    
Cu1   O8    S    
Cu1   O5    S    
C28   C29   S    
C19   C21   A    
C16   H4    S    
C20   C25   A    
C5    C36   S    
C6    C35   S    
C7    C9    A    
C8    O12   S    
C19   C26   A    
C38   H12   S    
C7    C17   A    
Cu1   N1    S    
C31   C33   A    
C30   N1    T    
C40   C42   A    
C1    C22   S    
C1    O1    A    
Cu1   O4    S    
C3    C24   S    
C23   O5    A    
C2    O4    A    
Cu2   O7    S    
C10   H20   S    
C13   O9    S    
Cu1   O1    S    
C4    C6    A    
C23   O7    A    
C4    C23   S    
C24   O8    A    
C4    C44   A    
C11   C26   S    
C44   H16   S    
O12   H24   S    
C8    C18   A    
C32   C34   A    
Cu2   N2    S    
C19   H5    S    
C29   N2    T    
O11   H23   S    
C39   H13   S    
C2    C21   S    
C41   H1    S    
C16   C18   A    
C42   H2    S    
C14   O10   S    
C9    C11   A    
Cu2   O3    S    
C10   C12   A    
C8    C10   A    
C5    C44   A    
C20   C22   A    
C6    C43   A    
C13   C15   A    
C14   C16   A    
Cu2   O6    S    
C43   H15   S    
C15   C17   A    
C21   C25   A    
C31   C41   A    
C35   C37   A    
C12   C14   A    
C3    C5    A    
C28   H7    S    
C12   C25   S    
C36   C38   A    
C37   C39   A    
C17   H17   S    
C38   C40   A    
C11   C13   A    
C18   H18   S    
C33   C35   A    
C34   C36   A    
C15   H3    S    
C9    H19   S    
Cu2   O2    S    
O10   H22   S    
Cu1   Cu2   S    
C20   H6    S    
C22   C26   A    
C27   C28   D    
C32   C42   A    
C34   Br2   S    
C31   H9    S    
C2    O2    A    
C33   Br1   S    
C32   H10   S    
C37   H11   S    
C27   C30   S    
