data_mof_unit_66359.cif
_audit_creation_date              2012-12-11T15:15:45-0500
_audit_creation_method            fapswitch 2.2
_symmetry_space_group_name_H-M    P1
_symmetry_Int_Tables_number       1
_space_group_crystal_system       triclinic
_cell_length_a                    14.061026
_cell_length_b                    14.125852
_cell_length_c                    28.115555
_cell_angle_alpha                 90.531772
_cell_angle_beta                  89.884881
_cell_angle_gamma                 120.475898
_cell_volume                      4812.66286658

loop_
_atom_site_label
_atom_site_type_symbol
_atom_type_description
_atom_site_fract_x
_atom_site_fract_y
_atom_site_fract_z
_atom_type_partial_charge
C1    C     C_R   0.596608 0.431678 0.573753 0.537752
C2    C     C_R   0.569004 0.165189 0.573842 0.531556
C3    C     C_R   0.887365 0.434242 0.566646 0.541683
C4    C     C_R   0.430188 0.597987 0.073695 0.560774
C5    C     C_R   0.113500 0.547047 0.066916 0.548122
C6    C     C_R   0.434344 0.888067 0.066576 0.552711
C7    C     C_3   0.005133 0.510688 0.701403 0.005825
C8    C     C_3   0.528948 0.474284 0.709934 0.022508
C9    C     C_3   0.524038 0.049636 0.709007 0.025393
C10   C     C_3   0.497706 0.993630 0.203375 0.021597
C11   C     C_3   0.468475 0.530982 0.210598 0.022372
C12   C     C_3   0.015442 0.517207 0.204362 0.013825
C13   C     C_3   0.935003 0.510301 0.770412 -0.095372
C14   C     C_3   0.617581 0.546354 0.775929 -0.091312
C15   C     C_3   0.582009 0.111512 0.780582 -0.090100
C16   C     C_3   0.398984 0.963261 0.267335 -0.089473
C17   C     C_3   0.406719 0.527869 0.281968 -0.103359
C18   C     C_3   0.088528 0.587849 0.273332 -0.103271
C19   C     C_3   0.006827 0.599128 0.733925 0.198312
C20   C     C_3   0.577132 0.436633 0.749181 0.165451
C21   C     C_3   0.615959 0.057894 0.741054 0.188677
C22   C     C_3   0.440527 0.898142 0.238353 0.173916
C23   C     C_3   0.377844 0.442387 0.241569 0.179636
C24   C     C_3   0.017728 0.606210 0.236706 0.201143
C25   C     C_1   0.056210 0.529645 0.844738 0.024936
C26   C     C_1   0.489953 0.508523 0.851329 0.011964
C27   C     C_1   0.486072 0.966887 0.849048 0.011115
C28   C     C_1   0.515413 0.032856 0.347790 0.012911
C29   C     C_1   0.508601 0.483157 0.350243 0.014764
C30   C     C_1   0.960484 0.484090 0.347429 0.025653
C31   C     C_1   0.976490 0.493721 0.651191 0.022110
C32   C     C_1   0.547424 0.460403 0.660298 0.016992
C33   C     C_1   0.539723 0.086627 0.660077 0.027086
C34   C     C_1   0.486644 0.971980 0.152384 0.012444
C35   C     C_1   0.454771 0.552148 0.161335 0.025042
C36   C     C_1   0.038073 0.524681 0.153642 0.027363
C37   C     C_R   0.566066 0.453287 0.434545 0.575357
C38   C     C_R   0.545514 0.112070 0.434444 0.572955
C39   C     C_R   0.886607 0.433039 0.434273 0.558770
C40   C     C_R   0.454400 0.565806 0.934926 0.573360
C41   C     C_R   0.114480 0.546568 0.933837 0.553209
C42   C     C_R   0.433555 0.886711 0.934484 0.556900
C43   C     C_3   0.111126 0.526383 0.724510 -0.099440
C44   C     C_3   0.416952 0.421269 0.735397 -0.091836
C45   C     C_3   0.442991 0.933947 0.727580 -0.104845
C46   C     C_3   0.604948 0.043671 0.232677 -0.092764
C47   C     C_3   0.552874 0.501601 0.229332 -0.101809
C48   C     C_3   0.908813 0.428586 0.227761 -0.099547
C49   C     C_3   0.113254 0.615967 0.757932 -0.082986
C50   C     C_3   0.465449 0.382949 0.775465 -0.106217
C51   C     C_3   0.535723 0.942152 0.760449 -0.094915
C52   C     C_3   0.547442 0.947240 0.268325 -0.104616
C53   C     C_3   0.461648 0.412237 0.261099 -0.091755
C54   C     C_3   0.910573 0.518185 0.260883 -0.083932
C55   C     C_1   0.075463 0.534178 0.886395 0.044114
C56   C     C_1   0.474604 0.529636 0.890864 0.035857
C57   C     C_1   0.466759 0.936040 0.889231 0.037246
C58   C     C_1   0.527222 0.061668 0.388675 0.036134
C59   C     C_1   0.530452 0.470485 0.389922 0.037498
C60   C     C_1   0.933711 0.464767 0.388264 0.046279
C61   C     C_1   0.941911 0.470872 0.611302 0.039110
C62   C     C_1   0.567931 0.447234 0.620348 0.041107
C63   C     C_1   0.553485 0.121423 0.620425 0.044134
C64   C     C_1   0.468200 0.940750 0.111843 0.036056
C65   C     C_1   0.443371 0.572088 0.121118 0.048027
C66   C     C_1   0.065864 0.532318 0.112881 0.042844
C67   C     C_3   0.039163 0.437604 0.761051 0.204750
C68   C     C_3   0.457677 0.531319 0.762176 0.187642
C69   C     C_3   0.409094 0.987267 0.767235 0.172653
C70   C     C_3   0.562932 0.108665 0.261647 0.182939
C71   C     C_3   0.581865 0.586717 0.269695 0.176866
C72   C     C_3   0.979711 0.410343 0.264211 0.204524
C73   C     C_3   0.040475 0.525711 0.793617 0.010072
C74   C     C_3   0.505627 0.493080 0.801504 0.023909
C75   C     C_3   0.501370 0.996358 0.799272 0.009769
C76   C     C_3   0.506241 0.013092 0.296637 0.021633
C77   C     C_3   0.491074 0.498654 0.300768 0.017352
C78   C     C_3   0.981915 0.499090 0.296681 0.008671
C79   C     C_3   0.933201 0.420987 0.737355 -0.077616
C80   C     C_3   0.569263 0.584393 0.735884 -0.090895
C81   C     C_3   0.488788 0.102696 0.747979 -0.083619
C82   C     C_3   0.456151 0.059158 0.231635 -0.096246
C83   C     C_3   0.498565 0.617272 0.250366 -0.092830
C84   C     C_3   0.086595 0.498298 0.240271 -0.082129
Cr1   Cr    Cr6+3 0.504830 0.254570 0.500510 1.065270
Cr2   Cr    Cr6+3 0.745430 0.250260 0.500510 1.083698
Cr3   Cr    Cr6+3 0.749740 0.495170 0.500510 1.076179
Cr4   Cr    Cr6+3 0.254570 0.504830 0.000510 1.085188
Cr5   Cr    Cr6+3 0.250260 0.745430 0.000510 1.081440
Cr6   Cr    Cr6+3 0.495170 0.749740 0.000510 1.063295
H1    H     H_    0.187388 0.695928 0.767130 0.193411
H2    H     H_    0.424572 0.300957 0.792393 0.153319
H3    H     H_    0.555805 0.876616 0.766361 0.177063
H4    H     H_    0.583143 0.900078 0.283861 0.153947
H5    H     H_    0.445697 0.327548 0.266200 0.171372
H6    H     H_    0.838669 0.527183 0.269994 0.195096
H7    H     H_    0.182068 0.532017 0.704650 0.175548
H8    H     H_    0.335048 0.371539 0.718074 0.169009
H9    H     H_    0.385635 0.861661 0.705526 0.155883
H10   H     H_    0.689409 0.078329 0.218002 0.168491
H11   H     H_    0.613118 0.491681 0.207447 0.156061
H12   H     H_    0.836252 0.363347 0.208200 0.169269
H13   H     H_    0.865210 0.506072 0.790688 0.176201
H14   H     H_    0.699607 0.596027 0.793168 0.159921
H15   H     H_    0.639310 0.183459 0.802810 0.168760
H16   H     H_    0.314542 0.928711 0.282026 0.168389
H17   H     H_    0.346365 0.537870 0.303734 0.150709
H18   H     H_    0.161203 0.653033 0.292859 0.166789
H19   H     H_    0.859883 0.340683 0.728191 0.214773
H20   H     H_    0.610415 0.666385 0.718946 0.162286
H21   H     H_    0.464756 0.165347 0.742234 0.172771
H22   H     H_    0.420356 0.106262 0.216115 0.156302
H23   H     H_    0.518346 0.703182 0.245743 0.175043
H24   H     H_    0.159467 0.491263 0.231206 0.200981
O1    O     O_R   0.479630 0.139450 0.552170 -0.501040
O2    O     O_R   0.860550 0.340180 0.552170 -0.503074
O3    O     O_R   0.659820 0.520370 0.552170 -0.483213
O4    O     O_R   0.139450 0.479630 0.052170 -0.506778
O5    O     O_R   0.340180 0.860550 0.052170 -0.488003
O6    O     O_R   0.520370 0.659820 0.052170 -0.499006
O7    O     O_R   0.516200 0.360080 0.548600 -0.505869
O8    O     O_R   0.639920 0.156120 0.548600 -0.479882
O9    O     O_R   0.843880 0.483800 0.548600 -0.509829
O10   O     O_R   0.360080 0.516200 0.048600 -0.485585
O11   O     O_R   0.156120 0.639920 0.048600 -0.488670
O12   O     O_R   0.483800 0.843880 0.048600 -0.516103
O13   O     O_R   0.478560 0.139320 0.448720 -0.496579
O14   O     O_R   0.860680 0.339240 0.448720 -0.485385
O15   O     O_R   0.660760 0.521440 0.448720 -0.482445
O16   O     O_R   0.139320 0.478560 0.948720 -0.489494
O17   O     O_R   0.339240 0.860680 0.948720 -0.490203
O18   O     O_R   0.521440 0.660760 0.948720 -0.498174
O19   O     O_R   0.515210 0.359960 0.452710 -0.490260
O20   O     O_R   0.640040 0.155250 0.452710 -0.477593
O21   O     O_R   0.844750 0.484790 0.452710 -0.494448
O22   O     O_R   0.359960 0.515210 0.952710 -0.482156
O23   O     O_R   0.155250 0.640040 0.952710 -0.495146
O24   O     O_R   0.484790 0.844750 0.952710 -0.498341
O25   O     O_3   0.666667 0.333333 0.499990 -0.308608
O26   O     O_3   0.333333 0.666667 0.999990 -0.290833
Br1   Br    Br    0.982134 0.715507 0.713642 -0.398575
Br2   Br    Br    0.666927 0.372629 0.735430 -0.636333
Br3   Br    Br    0.764967 0.104024 0.721163 -0.437866
Br4   Br    Br    0.347663 0.746326 0.218786 -0.597707
Br5   Br    Br    0.231588 0.333216 0.219987 -0.442509
Br6   Br    Br    0.045870 0.748546 0.216174 -0.398317
Br7   Br    Br    0.063226 0.320553 0.781043 -0.384096
Br8   Br    Br    0.374115 0.604049 0.773208 -0.560432
Br9   Br    Br    0.259143 0.937855 0.786944 -0.443797
Br10  Br    Br    0.647804 0.262019 0.280245 -0.564635
Br11  Br    Br    0.730640 0.691705 0.290247 -0.438728
Br12  Br    Br    0.951189 0.267530 0.284340 -0.389236

loop_
_geom_bond_atom_site_label_1
_geom_bond_atom_site_label_2
_ccdc_geom_bond_type
C80   H20   S    
C68   C80   S    
C15   C75   S    
C13   C79   S    
C9    C45   S    
C47   H11   S    
C53   H5    S    
C31   C61   T    
C11   C47   S    
C70   Br10  S    
Cr4   O16   S    
Cr4   O10   S    
C9    C21   S    
C1    C62   S    
C38   O13   A    
C15   C81   S    
C39   O21   A    
C10   C22   S    
C48   C54   S    
C16   H16   S    
C40   O22   A    
C12   C84   S    
C17   C23   S    
C8    C20   S    
C48   C72   S    
C18   C24   S    
C14   C74   S    
C22   C52   S    
C11   C23   S    
C51   C75   S    
Cr3   O3    S    
C3    O2    A    
C17   H17   S    
C41   O16   A    
C36   C66   T    
C21   C51   S    
C42   O24   A    
C35   C65   T    
C68   C74   S    
C46   C52   S    
C4    O10   A    
C14   C20   S    
Cr2   O2    S    
C6    C64   S    
C83   H23   S    
Cr4   O26   S    
C72   C78   S    
C9    C81   S    
C38   C58   S    
C44   H8    S    
Cr2   O20   S    
C71   Br11  S    
C81   H21   S    
C37   O15   A    
C72   Br12  S    
C30   C60   T    
Cr2   O8    S    
C20   C50   S    
C52   H4    S    
C42   O17   A    
C67   C73   S    
C14   C80   S    
C12   C36   S    
Cr1   O25   S    
C54   H6    S    
C68   Br8   S    
C12   C48   S    
C47   C53   S    
Cr6   O18   S    
C37   C59   S    
C18   H18   S    
C3    C61   S    
C40   O18   A    
C19   Br1   S    
C9    C33   S    
C49   H1    S    
C27   C75   S    
C42   C57   S    
C34   C64   T    
Cr6   O24   S    
C3    O9    A    
C23   C53   S    
C71   C83   S    
C45   C51   S    
C2    O8    A    
C33   C63   T    
C7    C31   S    
C79   H19   S    
Cr2   O14   S    
C8    C32   S    
Cr5   O5    S    
Cr1   O1    S    
C24   C54   S    
C67   C79   S    
C6    O12   A    
C27   C57   T    
C13   C19   S    
C43   C49   S    
Cr5   O11   S    
C40   C56   S    
C45   C69   S    
C10   C82   S    
C17   C83   S    
Cr6   O6    S    
Cr3   O9    S    
C53   C77   S    
C10   C46   S    
C20   Br2   S    
C23   Br5   S    
C2    O1    A    
C19   C49   S    
C14   H14   S    
C18   C78   S    
Cr5   O26   S    
C48   H12   S    
C17   C77   S    
Cr6   O12   S    
C10   C34   S    
C1    O3    A    
Cr1   O7    S    
Cr4   O22   S    
C72   C84   S    
Cr2   O25   S    
C51   H3    S    
C69   C81   S    
C50   H2    S    
C13   C73   S    
Cr5   O23   S    
C45   H9    S    
C49   C73   S    
C44   C68   S    
C13   H13   S    
C47   C71   S    
C70   C76   S    
C5    O11   A    
C28   C76   S    
C6    O5    A    
C71   C77   S    
C2    C63   S    
Cr3   O21   S    
C7    C79   S    
C16   C82   S    
C44   C50   S    
C7    C43   S    
C46   H10   S    
C16   C22   S    
C39   O14   A    
C16   C76   S    
C41   O23   A    
C8    C44   S    
Cr3   O25   S    
C5    C66   S    
C52   C76   S    
C26   C56   T    
Cr6   O26   S    
C28   C58   T    
C82   H22   S    
C12   C24   S    
C7    C19   S    
Cr5   O17   S    
C5    O4    A    
C11   C83   S    
C84   H24   S    
Cr3   O15   S    
C50   C74   S    
C69   Br9   S    
C18   C84   S    
C24   Br6   S    
C67   Br7   S    
C15   H15   S    
C4    C65   S    
C41   C55   S    
C39   C60   S    
C11   C35   S    
C26   C74   S    
C25   C55   T    
C69   C75   S    
C25   C73   S    
C38   O20   A    
C70   C82   S    
C37   O19   A    
C1    O7    A    
C46   C70   S    
Cr1   O13   S    
C32   C62   T    
C30   C78   S    
C15   C21   S    
C29   C77   S    
C43   C67   S    
C43   H7    S    
C21   Br3   S    
C22   Br4   S    
C8    C80   S    
C29   C59   T    
C4    O6    A    
Cr4   O4    S    
Cr1   O19   S    
C54   C78   S    
