data_mof_unit_50471.cif
_audit_creation_date              2012-12-10T19:01:19-0500
_audit_creation_method            fapswitch 2.2
_symmetry_space_group_name_H-M    P1
_symmetry_Int_Tables_number       1
_space_group_crystal_system       triclinic
_cell_length_a                    9.592486
_cell_length_b                    10.838226
_cell_length_c                    15.585165
_cell_angle_alpha                 88.985582
_cell_angle_beta                  73.812425
_cell_angle_gamma                 90.533717
_cell_volume                      1555.6657826

loop_
_atom_site_label
_atom_site_type_symbol
_atom_type_description
_atom_site_fract_x
_atom_site_fract_y
_atom_site_fract_z
_atom_type_partial_charge
C1    C     C_R   0.999614 0.262491 0.499857 0.818480
C2    C     C_R   0.674186 0.490727 0.908261 0.079883
C3    C     C_R   0.776088 0.517915 0.956201 0.167914
C4    C     C_R   0.525181 0.470498 0.955037 0.064468
C5    C     C_R   0.477992 0.490928 0.048548 0.068735
C6    C     C_R   0.583449 0.517791 0.093830 -0.216965
C7    C     C_R   0.729534 0.529896 0.048439 -0.235986
C8    C     C_R   0.422769 0.427128 0.911939 -0.216412
C9    C     C_R   0.277726 0.409139 0.958268 -0.240186
C10   C     C_R   0.228606 0.435445 0.048654 0.165324
C11   C     C_R   0.327427 0.479370 0.094250 0.094108
C12   C     C_R   0.917795 0.500934 0.671848 0.828999
C13   C     C_R   0.081460 0.416750 0.094407 -0.216668
C14   C     C_R   0.031125 0.440767 0.185255 -0.200494
C15   C     C_R   0.271821 0.509877 0.184402 -0.248457
C16   C     C_R   0.114328 0.064371 0.517609 0.120994
C17   C     C_R   0.996362 0.128985 0.504570 -0.097014
C18   C     C_R   0.872581 0.062855 0.499517 -0.206657
C19   C     C_R   0.872065 0.934512 0.500863 -0.217789
C20   C     C_R   0.996940 0.870638 0.505181 -0.096118
C21   C     C_R   0.114852 0.937042 0.517597 0.132556
C22   C     C_3   0.271034 0.933773 0.465415 -0.471596
C23   C     C_R   0.000234 0.737488 0.500111 0.792167
C24   C     C_3   0.270651 0.073604 0.465746 -0.448288
C25   C     C_R   0.592516 0.595822 0.461514 0.232079
C26   C     C_R   0.549837 0.409992 0.545017 0.047653
C27   C     C_R   0.402230 0.411691 0.544536 -0.121153
C28   C     C_R   0.445606 0.595357 0.461013 0.261089
C29   C     C_3   0.486283 0.633552 0.364781 -0.510146
C30   C     C_3   0.643614 0.636601 0.366075 -0.492272
C31   C     C_R   0.081989 0.498549 0.328207 0.788357
C32   C     C_R   0.871881 0.503686 0.769840 -0.052668
C33   C     C_R   0.127030 0.486022 0.230836 -0.045919
C34   C     C_R   0.923903 0.533768 0.911172 -0.210572
C35   C     C_R   0.971907 0.524798 0.818627 -0.200293
C36   C     C_R   0.724504 0.488279 0.814692 -0.218562
Cu1   Cu    Cu3+1 0.140670 0.499980 0.500000 0.945413
Cu2   Cu    Cu3+1 0.859330 0.500020 0.500000 0.969428
H1    H     H_    0.806419 0.550143 0.085921 0.148400
H2    H     H_    0.006020 0.380774 0.060334 0.142202
H3    H     H_    0.779283 0.109740 0.489667 0.197056
H4    H     H_    0.776650 0.886078 0.493897 0.168152
H5    H     H_    0.340219 0.892689 0.504704 0.204692
H6    H     H_    0.286552 0.895870 0.397649 0.191879
H7    H     H_    0.338695 0.113404 0.505693 0.243803
H8    H     H_    0.287192 0.116534 0.398222 0.200722
H9    H     H_    0.327196 0.340241 0.579697 0.168689
H10   H     H_    0.463577 0.559219 0.322533 0.206895
H11   H     H_    0.338598 0.553709 0.220163 0.137143
H12   H     H_    0.444554 0.725749 0.353472 0.190375
H13   H     H_    0.710559 0.566549 0.322426 0.212658
H14   H     H_    0.691738 0.731251 0.358231 0.194060
H15   H     H_    0.918369 0.421363 0.220073 0.150139
H16   H     H_    0.203413 0.374267 0.922919 0.150736
H17   H     H_    0.002234 0.554428 0.947474 0.144143
H18   H     H_    0.086420 0.537742 0.785210 0.159022
H19   H     H_    0.649955 0.478712 0.774915 0.180152
H20   H     H_    0.557677 0.525876 0.165188 0.140501
H21   H     H_    0.451980 0.401284 0.842849 0.160932
N1    N     N_R   0.648210 0.500930 0.499430 -0.225451
N2    N     N_R   0.352300 0.500890 0.499430 -0.196471
O1    O     O_R   0.118810 0.319640 0.500000 -0.585559
O2    O     O_R   0.881230 0.319680 0.499990 -0.569367
O3    O     O_R   0.055580 0.499970 0.629840 -0.593350
O4    O     O_R   0.818000 0.500010 0.629830 -0.543244
O5    O     O_R   0.118770 0.680320 0.500010 -0.578833
O6    O     O_R   0.881190 0.680360 0.500000 -0.588193
O7    O     O_R   0.182000 0.499990 0.370170 -0.582054
O8    O     O_R   0.944420 0.500030 0.370160 -0.591212
C37   C     C_2   0.588431 0.302857 0.593597 0.840566
O9    O     O_2   0.652997 0.316359 0.649943 -0.591460
O10   O     O_R   0.535620 0.185677 0.581495 -0.830870
H22   H     H_    0.560733 0.120139 0.621777 0.329711

loop_
_geom_bond_atom_site_label_1
_geom_bond_atom_site_label_2
_ccdc_geom_bond_type
C8    C9    A    
C30   H13   S    
C16   C21   A    
C6    H20   S    
C19   C20   A    
C4    C8    A    
C1    O1    A    
C14   C33   A    
Cu1   O1    S    
C25   C28   A    
C26   C27   A    
C29   C30   S    
C24   H7    S    
C32   C36   A    
C23   O5    A    
C28   C29   S    
C5    C11   A    
C3    C7    A    
C8    H21   S    
C5    C6    A    
C12   O3    A    
C27   H9    S    
Cu1   O7    S    
C18   C19   A    
C23   O6    A    
C13   H2    S    
C27   N2    A    
C11   C15   A    
C22   H6    S    
C16   C17   A    
C31   C33   S    
C37   O9    D    
C25   N1    A    
C9    C10   A    
C19   H4    S    
C28   N2    A    
Cu2   O8    S    
C34   H17   S    
C16   C24   S    
C13   C14   A    
C12   C32   S    
C34   C35   A    
C1    O2    A    
C29   H12   S    
C31   O7    A    
C29   H10   S    
C32   C35   A    
C36   H19   S    
C18   H3    S    
O10   H22   S    
C3    C34   A    
C20   C23   S    
C2    C4    A    
Cu1   Cu2   S    
C22   H5    S    
Cu2   O4    S    
Cu1   O5    S    
C17   C18   A    
Cu2   O6    S    
Cu2   N1    S    
C26   C37   S    
C22   C24   S    
Cu1   O3    S    
Cu2   O2    S    
C2    C36   A    
C25   C30   S    
C30   H14   S    
C35   H18   S    
C4    C5    A    
C10   C13   A    
Cu1   N2    S    
C6    C7    A    
C12   O4    A    
C1    C17   S    
C24   H8    S    
C2    C3    A    
C15   H11   S    
C10   C11   A    
C31   O8    A    
C14   H15   S    
C20   C21   A    
C7    H1    S    
C37   O10   S    
C9    H16   S    
C21   C22   S    
C26   N1    A    
C15   C33   A    
