data_mof_unit_48008.cif
_audit_creation_date              2013-03-05T15:42:29-0500
_audit_creation_method            fapswitch 2.2
_symmetry_space_group_name_H-M    P1
_symmetry_Int_Tables_number       1
_space_group_crystal_system       triclinic
_cell_length_a                    7.741881
_cell_length_b                    8.671405
_cell_length_c                    23.420636
_cell_angle_alpha                 91.178926
_cell_angle_beta                  85.676179
_cell_angle_gamma                 93.759356
_cell_volume                      1564.25560693

loop_
_atom_site_label
_atom_site_type_symbol
_atom_site_description
_atom_site_fract_x
_atom_site_fract_y
_atom_site_fract_z
_atom_type_partial_charge
O1    O     O_R   0.389250 0.738570 0.503790 -0.582121
O2    O     O_R   0.610750 0.261430 0.496210 -0.582109
O3    O     O_R   0.678390 0.711620 0.493890 -0.588373
O4    O     O_R   0.321610 0.288380 0.506110 -0.588371
C1    C     C_R   0.545289 0.794093 0.497844 0.894770
C2    C     C_R   0.454711 0.205907 0.502158 0.894789
O5    O     O_R   0.355400 0.513520 0.588790 -0.623911
O6    O     O_R   0.644600 0.486480 0.411210 -0.623936
O7    O     O_R   0.644550 0.486570 0.578900 -0.625560
O8    O     O_R   0.355450 0.513430 0.421100 -0.625544
C3    C     C_R   0.501915 0.499820 0.610636 0.878555
C4    C     C_R   0.498087 0.500195 0.389364 0.878620
Zn1   Zn    Zn3+2 0.306930 0.518000 0.506610 1.045548
Zn2   Zn    Zn3+2 0.693070 0.482000 0.493390 1.045532
C5    C     C_R   0.412379 0.379585 0.121158 0.552152
C6    C     C_R   0.587733 0.620524 0.878821 0.552228
N1    N     N_R   0.487587 0.504963 0.148122 -0.368849
N2    N     N_R   0.512426 0.495195 0.851863 -0.368930
C7    C     C_R   0.565859 0.628019 0.118898 0.570650
C8    C     C_R   0.434051 0.372183 0.881082 0.570715
C9    C     C_R   0.571189 0.628707 0.059314 -0.055016
C10   C     C_R   0.428774 0.371466 0.940665 -0.055044
C11   C     C_R   0.497838 0.499836 0.030087 -0.046360
C12   C     C_R   0.502168 0.500320 0.969893 -0.046351
C13   C     C_R   0.420515 0.370790 0.060972 -0.131346
C14   C     C_R   0.579529 0.629352 0.939006 -0.131400
C15   C     C_R   0.646410 0.756333 0.028841 -0.136004
C16   C     C_R   0.353551 0.243842 0.971137 -0.136055
C17   C     C_R   0.648140 0.759915 0.969359 0.314325
C18   C     C_R   0.351872 0.240239 0.030617 0.314356
O9    O     O_2   0.329124 0.265738 0.152937 -0.472883
O10   O     O_2   0.671176 0.734268 0.847037 -0.472826
O11   O     O_2   0.636863 0.749805 0.147731 -0.498378
O12   O     O_2   0.362881 0.250482 0.852245 -0.498365
H1    H     H_    0.699986 0.856814 0.051307 0.240712
H2    H     H_    0.299942 0.143375 0.948670 0.240666
C19   C     C_R   0.663138 0.473007 0.756974 -0.070421
C20   C     C_R   0.336564 0.525822 0.243021 -0.070174
C21   C     C_R   0.660881 0.474790 0.697765 -0.180463
C22   C     C_R   0.338824 0.523983 0.302230 -0.180370
C23   C     C_R   0.505643 0.498313 0.672731 -0.039710
C24   C     C_R   0.494369 0.501773 0.327268 -0.039651
C25   C     C_R   0.353098 0.519946 0.707530 -0.182196
C26   C     C_R   0.647224 0.481531 0.292473 -0.182269
C27   C     C_R   0.355930 0.518378 0.766595 -0.082990
C28   C     C_R   0.644392 0.483133 0.233408 -0.082742
C29   C     C_R   0.510671 0.494937 0.791220 0.290246
C30   C     C_R   0.489338 0.505242 0.208773 0.290002
C31   C     C_2   0.569574 0.956010 0.500766 -0.018703
C32   C     C_2   0.430425 0.043990 0.499241 -0.018717
N3    N     N_2   0.950330 0.457950 0.484560 -0.145087
N4    N     N_2   0.049670 0.542050 0.515440 -0.145071
N5    N     N_R   0.712455 0.900056 0.941401 0.246844
O13   O     O_R   0.861594 0.965655 0.953452 -0.329395
O14   O     O_R   0.607093 0.978883 0.914644 -0.320918
N6    N     N_R   0.287519 0.100105 0.058572 0.246860
O15   O     O_R   0.138294 0.034617 0.046556 -0.329380
O16   O     O_R   0.392896 0.021169 0.085278 -0.320802
H3    H     H_    0.782773 0.454812 0.776320 0.152371
H4    H     H_    0.216676 0.542983 0.223678 0.152256
H5    H     H_    0.779999 0.457567 0.671746 0.173436
H6    H     H_    0.219448 0.540081 0.328244 0.173088
H7    H     H_    0.231845 0.538485 0.689248 0.171533
H8    H     H_    0.768737 0.464083 0.310757 0.171414
H9    H     H_    0.238300 0.535866 0.793372 0.153048
H10   H     H_    0.762278 0.466699 0.206640 0.153002
N7    N     N_R   0.742190 0.017376 0.510158 0.237841
O17   O     O_R   0.858672 0.030518 0.467245 -0.301504
O18   O     O_R   0.783044 0.056593 0.561587 -0.342343
N8    N     N_R   0.257806 0.982624 0.489851 0.237837
O19   O     O_R   0.141332 0.969474 0.532766 -0.301549
O20   O     O_R   0.216940 0.943426 0.438422 -0.342220
H11   H     H_    0.014324 0.382719 0.457181 0.220485
H12   H     H_    0.985676 0.617281 0.542819 0.220527

loop_
_geom_bond_atom_site_label_1
_geom_bond_atom_site_label_2
_geom_bond_distance
_ccdc_geom_bond_type
C18   N6    1.434441 S    
O5    C3    1.292370 A    
O7    Zn2   2.009661 S    
C5    O9    1.348490 S    
N8    O19   1.300346 A    
N6    O16   1.301194 A    
C19   C29   1.397556 A    
Zn1   N4    2.010876 S    
O7    C3    1.293986 A    
C20   H4    1.083121 S    
N5    O14   1.301197 A    
N2    C8    1.362665 A    
Zn2   N3    2.010874 S    
N1    C30   1.421520 S    
O6    C4    1.292379 A    
C8    O12   1.350539 S    
N2    C29   1.421348 S    
C22   C24   1.404505 A    
C9    C15   1.399505 A    
C22   H6    1.083205 S    
C25   H7    1.083339 S    
N3    N4    1.278666 D    
C19   C21   1.388568 A    
C6    N2    1.365214 A    
C10   C16   1.399482 A    
C11   C13   1.419141 A    
C2    C32   1.405257 S    
C20   C22   1.388557 A    
C25   C27   1.385539 A    
C1    C31   1.405261 S    
C19   H3    1.083243 S    
O3    Zn2   2.001538 S    
C24   C26   1.404010 A    
C15   H1    1.083857 S    
O2    C2    1.269515 A    
O1    C1    1.269515 A    
O8    C4    1.293992 A    
C10   C12   1.408486 A    
C16   C18   1.393121 A    
C7    C9    1.393104 A    
C12   C14   1.419154 A    
C28   H10   1.083231 S    
N4    H12   1.029312 S    
C17   N5    1.434454 S    
C27   C29   1.396435 A    
C9    C11   1.408469 A    
C32   N8    1.436560 S    
O2    Zn2   1.976809 S    
O6    Zn2   1.990152 S    
C5    C13   1.406963 A    
O4    C2    1.288943 A    
C15   C17   1.393122 A    
C11   C12   1.407740 A    
C4    C24   1.457141 S    
N7    O17   1.300346 A    
C28   C30   1.396351 A    
O5    Zn1   1.990152 S    
C21   H5    1.083359 S    
O1    Zn1   1.976808 S    
N6    O15   1.301067 A    
C16   H2    1.083860 S    
C14   C17   1.419252 A    
C21   C23   1.404668 A    
C31   C32   1.363279 D    
C7    O11   1.350540 S    
C3    C23   1.457113 S    
C13   C18   1.419284 A    
C5    N1    1.365291 A    
C6    O10   1.348496 S    
N1    C7    1.362729 A    
N8    O20   1.301147 A    
C31   N7    1.436560 S    
N7    O18   1.301146 A    
N5    O13   1.301068 A    
C27   H9    1.083366 S    
C20   C30   1.397458 A    
O8    Zn1   2.009660 S    
C26   C28   1.385535 A    
C26   H8    1.083206 S    
C23   C25   1.404202 A    
N3    H11   1.029314 S    
O4    Zn1   2.001539 S    
C8    C10   1.393106 A    
O3    C1    1.288947 A    
C6    C14   1.406940 A    
