data_mof_unit_61589.cif
_audit_creation_date              2012-10-26T18:35:13-0400
_audit_creation_method            fapswitch 2.2
_symmetry_space_group_name_H-M    P1
_symmetry_Int_Tables_number       1
_space_group_crystal_system       triclinic
_cell_length_a                    10.8305
_cell_length_b                    14.425201
_cell_length_c                    13.137541
_cell_angle_alpha                 89.919384
_cell_angle_beta                  89.845988
_cell_angle_gamma                 90.38021
_cell_volume                      2052.45144749

loop_
_atom_site_label
_atom_site_type_symbol
_atom_type_description
_atom_site_fract_x
_atom_site_fract_y
_atom_site_fract_z
_atom_type_partial_charge
C1    C     C_R   0.500032 0.328705 0.500057 0.550779
C2    C     C_R   0.742888 0.506046 0.499699 0.556842
C3    C     C_R   0.498822 0.671265 0.499976 0.526638
C4    C     C_3   0.068820 0.482793 0.607836 -0.259540
C5    C     C_3   0.068503 0.425351 0.431436 -0.285488
C6    C     C_3   0.928423 0.493390 0.608426 -0.264909
C7    C     C_3   0.926912 0.428372 0.431912 -0.268510
C8    C     C_3   0.080523 0.604258 0.458610 0.338017
C9    C     C_3   0.930770 0.607812 0.456445 0.329746
C10   C     C_3   0.121283 0.504452 0.499635 0.045342
C11   C     C_3   0.879932 0.510388 0.498522 0.030874
C12   C     C_1   0.499908 0.957525 0.499879 -0.011981
C13   C     C_1   0.500055 0.227114 0.500134 -0.055368
C14   C     C_1   0.500059 0.142279 0.500083 -0.050776
C15   C     C_1   0.500018 0.042355 0.499968 -0.009838
C16   C     C_3   0.122251 0.694089 0.628974 -0.310141
C17   C     C_3   0.139076 0.706253 0.305612 -0.287576
C18   C     C_3   0.903588 0.780102 0.493943 -0.270416
C19   C     C_3   0.775545 0.670242 0.324527 -0.259329
C20   C     C_1   0.499654 0.857621 0.499832 -0.058696
C21   C     C_1   0.499323 0.772814 0.499871 -0.075876
C22   C     C_1   0.500001 0.500071 0.173617 0.102239
C23   C     C_1   0.499996 0.500059 0.826389 0.108526
C24   C     C_1   0.500003 0.500103 0.050692 -0.059617
C25   C     C_1   0.499999 0.500095 0.949323 -0.058017
C26   C     C_R   0.257130 0.497743 0.500151 0.575046
Cu1   Cu    Cu3+1 0.500000 0.499990 0.592680 0.945439
Cu2   Cu    Cu3+1 0.500000 0.499990 0.407320 0.950101
H1    H     H_    0.111069 0.523320 0.669796 0.134173
H2    H     H_    0.198177 0.661350 0.672504 0.137689
H3    H     H_    0.032124 0.670105 0.657973 0.167353
H4    H     H_    0.128692 0.769708 0.643585 0.138093
H5    H     H_    0.115456 0.563850 0.302245 0.231857
H6    H     H_    0.200814 0.701469 0.238237 0.133987
H7    H     H_    0.178980 0.759834 0.356284 0.149048
H8    H     H_    0.047434 0.729065 0.278481 0.152200
H9    H     H_    0.802636 0.672101 0.560018 0.230891
H10   H     H_    0.927275 0.820170 0.563265 0.138054
H11   H     H_    0.817592 0.810023 0.462553 0.118517
H12   H     H_    0.104211 0.426398 0.352391 0.119648
H13   H     H_    0.978760 0.789047 0.437757 0.182829
H14   H     H_    0.913846 0.573455 0.296357 0.229213
H15   H     H_    0.721762 0.630387 0.267323 0.148054
H16   H     H_    0.801199 0.738132 0.290508 0.121343
H17   H     H_    0.715686 0.681584 0.391239 0.177064
H18   H     H_    0.900459 0.550105 0.660397 0.127954
H19   H     H_    0.891975 0.431898 0.352689 0.129715
H20   H     H_    0.091352 0.409941 0.628706 0.119491
H21   H     H_    0.098427 0.356851 0.461540 0.115908
H22   H     H_    0.886893 0.428684 0.640345 0.134507
H23   H     H_    0.890736 0.361737 0.463389 0.122909
H24   H     H_    0.230054 0.690903 0.501364 0.257714
N1    N     N_1   0.500000 0.500020 0.268070 -0.174404
N2    N     N_1   0.500000 0.500020 0.731930 -0.171833
N3    N     N_2   0.139130 0.678139 0.520779 -0.485552
N4    N     N_2   0.130892 0.615667 0.354227 -0.489995
N5    N     N_2   0.884366 0.683387 0.521421 -0.503492
N6    N     N_2   0.886734 0.620228 0.350912 -0.506895
O1    O     O_R   0.500000 0.376050 0.578280 -0.470376
O2    O     O_R   0.500000 0.376050 0.421720 -0.472025
O3    O     O_R   0.317680 0.499980 0.578260 -0.499992
O4    O     O_R   0.317680 0.499980 0.421740 -0.472354
O5    O     O_R   0.682320 0.499980 0.578260 -0.502324
O6    O     O_R   0.682320 0.499980 0.421740 -0.486220
O7    O     O_R   0.500000 0.623940 0.578240 -0.473892
O8    O     O_R   0.500000 0.623940 0.421760 -0.482367

loop_
_geom_bond_atom_site_label_1
_geom_bond_atom_site_label_2
_ccdc_geom_bond_type
Cu2   O8    S    
Cu2   N1    S    
H24   N3    S    
C24   C25   T    
Cu1   O7    S    
C17   H8    S    
C16   H4    S    
C17   H7    S    
C18   N5    S    
C4    H1    S    
C12   C15   T    
C6    H18   S    
C18   H11   S    
C5    H21   S    
C10   C26   S    
H5    N4    S    
C19   H17   S    
C18   H10   S    
Cu1   N2    S    
C7    H23   S    
C5    C10   S    
Cu1   O1    S    
C13   C14   T    
C19   H16   S    
C16   H3    S    
C7    C11   S    
C9    C11   S    
C17   N4    S    
C8    N4    S    
C3    O7    A    
Cu1   O5    S    
C12   C20   S    
C2    C11   S    
Cu2   O6    S    
C8    N3    S    
C8    C10   S    
C1    O1    A    
C2    O6    A    
C22   N1    T    
C9    N5    S    
Cu2   O2    S    
C19   N6    S    
C26   O4    A    
Cu2   O4    S    
C22   C24   S    
C3    C21   S    
C3    O8    A    
C1    C13   S    
C17   H6    S    
C4    C10   S    
C6    H22   S    
C6    C11   S    
C23   C25   S    
C2    O5    A    
C23   N2    T    
C4    C6    S    
C9    N6    S    
C4    H20   S    
C1    O2    A    
Cu1   Cu2   S    
C5    C7    S    
C14   C15   S    
H14   N6    S    
Cu1   O3    S    
C20   C21   T    
C5    H12   S    
C16   N3    S    
C16   H2    S    
C26   O3    A    
H9    N5    S    
C18   H13   S    
C19   H15   S    
C8    C9    S    
C7    H19   S    
