data_mof_unit_55105.cif
_audit_creation_date              2012-12-11T14:04:18-0500
_audit_creation_method            fapswitch 2.2
_symmetry_space_group_name_H-M    P1
_symmetry_Int_Tables_number       1
_space_group_crystal_system       triclinic
_cell_length_a                    19.123469
_cell_length_b                    11.002148
_cell_length_c                    18.688105
_cell_angle_alpha                 90.071121
_cell_angle_beta                  89.354756
_cell_angle_gamma                 90.016166
_cell_volume                      3931.71051611

loop_
_atom_site_label
_atom_site_type_symbol
_atom_type_description
_atom_site_fract_x
_atom_site_fract_y
_atom_site_fract_z
_atom_type_partial_charge
C1    C     C_R   0.241964 0.463612 0.649010 0.540058
C2    C     C_R   0.986765 0.665551 0.580009 -0.051175
C3    C     C_3   0.122511 0.204779 0.521928 -0.445247
C4    C     C_3   0.031411 0.373303 0.376794 -0.227952
C5    C     C_3   0.090329 0.454516 0.346630 -0.412986
C6    C     C_3   0.904209 0.472517 0.657578 -0.237362
C7    C     C_3   0.927811 0.372136 0.708823 -0.369003
C8    C     C_3   0.531406 0.873288 0.376781 -0.227943
C9    C     C_3   0.590323 0.954492 0.346606 -0.412936
C10   C     C_3   0.404211 0.972514 0.657572 -0.237360
C11   C     C_3   0.427812 0.872135 0.708819 -0.369003
C12   C     C_R   0.496965 0.153477 0.429919 -0.037248
C13   C     C_R   0.486770 0.165548 0.580005 -0.051181
C14   C     C_R   0.015234 0.875801 0.427949 -0.088032
C15   C     C_R   0.982248 0.887841 0.573253 -0.074698
C16   C     C_R   0.515245 0.375796 0.427944 -0.088027
C17   C     C_R   0.482254 0.387838 0.573247 -0.074706
C18   C     C_R   0.006082 0.987841 0.460913 -0.122785
C19   C     C_R   0.987935 0.994111 0.533230 -0.129024
C20   C     C_R   0.506091 0.487836 0.460908 -0.122780
C21   C     C_R   0.774703 0.519537 0.360923 0.541493
C22   C     C_R   0.487943 0.494108 0.533224 -0.129026
C23   C     C_R   0.990497 0.773422 0.540170 -0.007114
C24   C     C_R   0.001257 0.767063 0.465424 -0.019921
C25   C     C_R   0.490504 0.273418 0.540165 -0.007128
C26   C     C_R   0.501266 0.267058 0.465420 -0.019908
C27   C     C_R   0.970202 0.556121 0.545130 0.004454
C28   C     C_R   0.989252 0.543145 0.471646 0.018997
C29   C     C_R   0.470209 0.056116 0.545126 0.004457
C30   C     C_R   0.489259 0.043139 0.471641 0.019000
C31   C     C_R   0.935430 0.459339 0.582285 0.038555
C32   C     C_R   0.741964 0.963615 0.649008 0.540046
C33   C     C_R   0.990852 0.420506 0.443078 0.075609
C34   C     C_R   0.435435 0.959336 0.582280 0.038556
C35   C     C_R   0.490855 0.920498 0.443071 0.075606
C36   C     C_R   0.923163 0.350681 0.545926 -0.135024
C37   C     C_R   0.952096 0.330623 0.478792 -0.145862
C38   C     C_R   0.423167 0.850678 0.545922 -0.135030
C39   C     C_R   0.452099 0.830618 0.478787 -0.145870
C40   C     C_2   0.238189 0.897091 0.928955 -0.102551
C41   C     C_2   0.744217 0.929891 0.084496 -0.106266
C42   C     C_2   0.738189 0.397091 0.928955 -0.102552
C43   C     C_R   0.274703 0.019538 0.360922 0.541498
C44   C     C_2   0.244217 0.429891 0.084496 -0.106265
C45   C     C_2   0.248117 0.895109 0.085612 -0.107311
C46   C     C_2   0.743639 0.940167 0.927694 -0.107276
C47   C     C_2   0.748117 0.395109 0.085612 -0.107311
C48   C     C_2   0.243639 0.440167 0.927694 -0.107275
C49   C     C_R   0.226960 0.875414 0.648998 0.527714
C50   C     C_R   0.793343 0.822557 0.358444 0.557361
C51   C     C_R   0.726962 0.375417 0.648999 0.527706
C52   C     C_R   0.293343 0.322557 0.358444 0.557357
C53   C     C_2   0.188665 0.912472 0.050501 -0.160092
C54   C     C_2   0.217734 0.850437 0.522362 -0.001145
C55   C     C_2   0.770213 0.026327 0.971137 -0.150262
C56   C     C_2   0.688665 0.412472 0.050501 -0.160092
C57   C     C_2   0.270213 0.526327 0.971137 -0.150262
C58   C     C_2   0.183340 0.888657 0.974421 -0.152715
C59   C     C_2   0.783412 0.006091 0.046330 -0.161218
C60   C     C_2   0.683340 0.388657 0.974421 -0.152715
C61   C     C_2   0.283412 0.506091 0.046330 -0.161219
C62   C     C_2   0.044689 0.655487 0.933589 -0.109105
C63   C     C_2   0.018580 0.663882 0.088039 -0.109856
C64   C     C_2   0.544689 0.155487 0.933589 -0.109106
C65   C     C_2   0.745973 0.771839 0.484702 -0.035219
C66   C     C_2   0.518580 0.163882 0.088039 -0.109857
C67   C     C_2   0.041838 0.564774 0.053329 -0.153451
C68   C     C_2   0.065677 0.568481 0.978550 -0.162093
C69   C     C_2   0.541838 0.064774 0.053329 -0.153452
C70   C     C_2   0.565677 0.068481 0.978550 -0.162093
C71   C     C_R   0.027431 0.655508 0.646638 0.533623
C72   C     C_R   0.970274 0.653170 0.355535 0.516666
C73   C     C_R   0.527432 0.155507 0.646637 0.533615
C74   C     C_R   0.470278 0.153169 0.355532 0.516653
C75   C     C_R   0.237456 0.470927 0.852817 0.544928
C76   C     C_2   0.717746 0.350424 0.522364 -0.001146
C77   C     C_R   0.760784 0.462985 0.150619 0.568693
C78   C     C_R   0.737456 0.970927 0.852817 0.544930
C79   C     C_R   0.260784 0.962985 0.150619 0.568692
C80   C     C_R   0.225575 0.870178 0.854541 0.540268
C81   C     C_R   0.771605 0.876006 0.148785 0.567756
C82   C     C_R   0.725575 0.370178 0.854541 0.540268
C83   C     C_R   0.271605 0.376005 0.148785 0.567757
C84   C     C_R   0.062223 0.647764 0.858213 0.568526
C85   C     C_R   0.973350 0.652555 0.150861 0.554657
C86   C     C_R   0.562223 0.147764 0.858213 0.568526
C87   C     C_2   0.245978 0.271831 0.484705 -0.035219
C88   C     C_R   0.473350 0.152555 0.150861 0.554652
C89   C     C_2   0.243129 0.913304 0.578057 -0.088666
C90   C     C_2   0.796231 0.812537 0.438065 -0.140545
C91   C     C_2   0.743133 0.413303 0.578057 -0.088684
C92   C     C_2   0.296234 0.312533 0.438065 -0.140547
C93   C     C_2   0.269914 0.978644 0.432910 -0.105040
C94   C     C_2   0.762699 0.910737 0.580874 -0.118488
C95   C     C_2   0.769914 0.478643 0.432910 -0.105047
C96   C     C_2   0.262701 0.410726 0.580879 -0.118498
C97   C     C_2   0.216091 0.910446 0.453568 -0.125107
C98   C     C_R   0.996957 0.653482 0.429924 -0.037257
C99   C     C_2   0.754337 0.795543 0.562195 -0.153142
C100  C     C_2   0.716096 0.410433 0.453568 -0.125081
C101  C     C_2   0.254345 0.295535 0.562198 -0.153160
C102  C     C_3   0.185719 0.724564 0.527685 -0.245238
C103  C     C_3   0.213909 0.641365 0.468627 -0.443990
C104  C     C_3   0.672360 0.745690 0.461792 -0.258768
C105  C     C_3   0.622502 0.704803 0.521926 -0.445226
C106  C     C_3   0.685721 0.224555 0.527699 -0.245205
C107  C     C_3   0.713850 0.141348 0.468609 -0.443966
C108  C     C_3   0.172364 0.245688 0.461799 -0.258795
Cr1   Cr    Cr6+3 0.113970 0.508630 0.747920 0.989819
Cr2   Cr    Cr6+3 0.887700 0.820070 0.250200 1.002144
Cr3   Cr    Cr6+3 0.612300 0.320070 0.749800 1.004575
Cr4   Cr    Cr6+3 0.387700 0.320070 0.250200 1.002144
Cr5   Cr    Cr6+3 0.886030 0.508630 0.252080 0.995874
Cr6   Cr    Cr6+3 0.613970 0.008630 0.747920 0.989817
Cr7   Cr    Cr6+3 0.386030 0.008630 0.252080 0.995868
Cr8   Cr    Cr6+3 0.269200 0.666740 0.749850 0.981872
Cr9   Cr    Cr6+3 0.730800 0.666740 0.250150 0.982716
Cr10  Cr    Cr6+3 0.769200 0.166740 0.749850 0.981867
Cr11  Cr    Cr6+3 0.230800 0.166740 0.250150 0.982728
Cr12  Cr    Cr6+3 0.112300 0.820070 0.749800 1.004576
H1    H     H_    0.173814 0.888949 0.417234 0.152313
H2    H     H_    0.724236 0.853480 0.947198 0.093337
H3    H     H_    0.791342 0.344983 0.061554 0.100667
H4    H     H_    0.224236 0.353480 0.947198 0.093337
H5    H     H_    0.291229 0.912731 0.946851 0.094032
H6    H     H_    0.695589 0.894068 0.063479 0.100856
H7    H     H_    0.791229 0.412731 0.946851 0.094032
H8    H     H_    0.195589 0.394068 0.063479 0.100857
H9    H     H_    0.037285 0.475403 0.077592 0.149896
H10   H     H_    0.094755 0.490740 0.958172 0.141137
H11   H     H_    0.537285 0.975402 0.077593 0.149895
H12   H     H_    0.734342 0.731245 0.601450 0.129892
H13   H     H_    0.594755 0.990740 0.958172 0.141137
H14   H     H_    0.026896 0.754377 0.066520 0.096897
H15   H     H_    0.013861 0.732698 0.951517 0.104371
H16   H     H_    0.526896 0.254377 0.066520 0.096897
H17   H     H_    0.513861 0.232698 0.951517 0.104371
H18   H     H_    0.316042 0.989511 0.465729 0.101907
H19   H     H_    0.786475 0.973088 0.542955 0.112224
H20   H     H_    0.816043 0.489516 0.465729 0.101902
H21   H     H_    0.286469 0.473066 0.542962 0.112233
H22   H     H_    0.260212 0.006916 0.571891 0.063123
H23   H     H_    0.673817 0.388935 0.417236 0.152312
H24   H     H_    0.845338 0.843074 0.460739 0.117007
H25   H     H_    0.760213 0.506918 0.571889 0.063128
H26   H     H_    0.345342 0.343068 0.460738 0.117011
H27   H     H_    0.012629 0.069234 0.429355 0.095169
H28   H     H_    0.979380 0.081211 0.558780 0.105293
H29   H     H_    0.512639 0.569228 0.429349 0.095168
H30   H     H_    0.479386 0.581207 0.558773 0.105291
H31   H     H_    0.032918 0.875405 0.372777 0.130350
H32   H     H_    0.968278 0.895328 0.629384 0.131105
H33   H     H_    0.532929 0.375397 0.372772 0.130342
H34   H     H_    0.234361 0.231237 0.601453 0.129897
H35   H     H_    0.468281 0.395326 0.629378 0.131108
H36   H     H_    0.893050 0.278435 0.570677 0.129729
H37   H     H_    0.945174 0.242015 0.454751 0.101069
H38   H     H_    0.393052 0.778433 0.570672 0.129726
H39   H     H_    0.445174 0.742009 0.454747 0.101069
H40   H     H_    0.143849 0.955646 0.076193 0.151669
H41   H     H_    0.788759 0.112628 0.949893 0.160295
H42   H     H_    0.643849 0.455646 0.076193 0.151668
H43   H     H_    0.288759 0.612627 0.949893 0.160295
H44   H     H_    0.196306 0.672422 0.415295 0.152730
H45   H     H_    0.130931 0.872459 0.954650 0.147673
H46   H     H_    0.271987 0.640081 0.468895 0.164002
H47   H     H_    0.193668 0.548136 0.477250 0.137049
H48   H     H_    0.195623 0.680778 0.579886 0.183642
H49   H     H_    0.128568 0.732272 0.522031 0.154180
H50   H     H_    0.639046 0.615843 0.544019 0.170591
H51   H     H_    0.618561 0.773991 0.565111 0.174519
H52   H     H_    0.569560 0.696155 0.500672 0.133525
H53   H     H_    0.653024 0.833025 0.442271 0.165871
H54   H     H_    0.670734 0.677408 0.418883 0.192132
H55   H     H_    0.696188 0.172402 0.415289 0.152671
H56   H     H_    0.829948 0.047702 0.068510 0.152488
H57   H     H_    0.771935 0.140045 0.468810 0.164016
H58   H     H_    0.693608 0.048128 0.477266 0.137056
H59   H     H_    0.695668 0.180752 0.579889 0.183635
H60   H     H_    0.628561 0.232290 0.522100 0.154203
H61   H     H_    0.139055 0.115818 0.544006 0.170608
H62   H     H_    0.118573 0.273946 0.565120 0.174522
H63   H     H_    0.069567 0.196138 0.500678 0.133521
H64   H     H_    0.153025 0.333022 0.442292 0.165880
H65   H     H_    0.170734 0.177421 0.418885 0.192137
H66   H     H_    0.114396 0.509571 0.389155 0.133890
H67   H     H_    0.630931 0.372459 0.954650 0.147672
H68   H     H_    0.130366 0.396541 0.321158 0.168065
H69   H     H_    0.073390 0.514876 0.302873 0.168279
H70   H     H_    0.994677 0.348295 0.333526 0.166422
H71   H     H_    0.054556 0.284138 0.389836 0.095309
H72   H     H_    0.903538 0.283861 0.694663 0.140314
H73   H     H_    0.985400 0.360703 0.707576 0.173351
H74   H     H_    0.911135 0.395430 0.764279 0.145141
H75   H     H_    0.847375 0.470190 0.654677 0.124983
H76   H     H_    0.913681 0.562074 0.682406 0.145193
H77   H     H_    0.614410 0.009520 0.389140 0.133876
H78   H     H_    0.329948 0.547702 0.068510 0.152488
H79   H     H_    0.630345 0.896496 0.321109 0.168061
H80   H     H_    0.573380 0.014891 0.302858 0.168276
H81   H     H_    0.494665 0.848280 0.333519 0.166418
H82   H     H_    0.554551 0.784123 0.389824 0.095300
H83   H     H_    0.403539 0.783859 0.694660 0.140314
H84   H     H_    0.485401 0.860700 0.707571 0.173348
H85   H     H_    0.411136 0.895431 0.764274 0.145142
H86   H     H_    0.347378 0.970186 0.654670 0.124981
H87   H     H_    0.413682 0.062073 0.682400 0.145193
H88   H     H_    0.291341 0.844983 0.061554 0.100667
O1    O     O_R   0.043230 0.549300 0.667990 -0.510964
O2    O     O_R   0.832470 0.905110 0.169660 -0.506934
O3    O     O_R   0.667530 0.405110 0.830340 -0.517362
O4    O     O_R   0.332470 0.405110 0.169660 -0.506935
O5    O     O_R   0.054010 0.748440 0.822860 -0.502666
O6    O     O_R   0.945990 0.748440 0.177140 -0.494118
O7    O     O_R   0.554010 0.248440 0.822860 -0.502665
O8    O     O_R   0.445990 0.248440 0.177140 -0.494119
O9    O     O_3   0.165160 0.665150 0.749190 -0.267817
O10   O     O_3   0.834840 0.665150 0.250810 -0.280814
O11   O     O_3   0.665160 0.165150 0.749190 -0.267814
O12   O     O_R   0.956770 0.549300 0.332010 -0.529800
O13   O     O_3   0.334840 0.165150 0.250810 -0.280814
O14   O     O_R   0.178620 0.457600 0.674100 -0.493236
O15   O     O_R   0.821380 0.457600 0.325900 -0.488134
O16   O     O_R   0.678620 0.957600 0.674100 -0.493241
O17   O     O_R   0.321380 0.957600 0.325900 -0.488138
O18   O     O_R   0.284680 0.542100 0.669460 -0.523782
O19   O     O_R   0.715320 0.542100 0.330540 -0.541787
O20   O     O_R   0.784680 0.042100 0.669460 -0.523792
O21   O     O_R   0.215320 0.042100 0.330540 -0.541782
O22   O     O_R   0.262860 0.790390 0.676650 -0.509933
O23   O     O_R   0.543230 0.049300 0.667990 -0.510964
O24   O     O_R   0.737140 0.790390 0.323350 -0.535600
O25   O     O_R   0.762860 0.290390 0.676650 -0.509942
O26   O     O_R   0.237140 0.290390 0.323350 -0.535600
O27   O     O_R   0.167460 0.907030 0.670940 -0.508868
O28   O     O_R   0.832540 0.907030 0.329060 -0.505790
O29   O     O_R   0.667460 0.407030 0.670940 -0.508867
O30   O     O_R   0.332540 0.407030 0.329060 -0.505787
O31   O     O_R   0.053950 0.750220 0.675100 -0.501124
O32   O     O_R   0.946050 0.750220 0.324900 -0.523936
O33   O     O_R   0.553950 0.250220 0.675100 -0.501125
O34   O     O_R   0.456770 0.049300 0.332010 -0.529801
O35   O     O_R   0.446050 0.250220 0.324900 -0.523933
O36   O     O_R   0.043300 0.547370 0.827390 -0.513312
O37   O     O_R   0.956700 0.547370 0.172610 -0.517942
O38   O     O_R   0.543300 0.047370 0.827390 -0.513310
O39   O     O_R   0.456700 0.047370 0.172610 -0.517945
O40   O     O_R   0.178690 0.455820 0.821860 -0.516746
O41   O     O_R   0.821310 0.455820 0.178140 -0.490620
O42   O     O_R   0.678690 0.955820 0.821860 -0.516745
O43   O     O_R   0.321310 0.955820 0.178140 -0.490621
O44   O     O_R   0.284750 0.540170 0.828860 -0.511311
O45   O     O_R   0.262920 0.788600 0.824420 -0.508194
O46   O     O_R   0.715250 0.540170 0.171140 -0.509044
O47   O     O_R   0.784750 0.040170 0.828860 -0.511310
O48   O     O_R   0.215250 0.040170 0.171140 -0.509044
O49   O     O_R   0.737080 0.788600 0.175580 -0.497219
O50   O     O_R   0.762920 0.288600 0.824420 -0.508193
O51   O     O_R   0.237080 0.288600 0.175580 -0.497215
O52   O     O_R   0.167530 0.905110 0.830340 -0.517362

loop_
_geom_bond_atom_site_label_1
_geom_bond_atom_site_label_2
_ccdc_geom_bond_type
C1    O18   A    
C32   C94   S    
C22   H30   S    
C103  H47   S    
C105  H52   S    
C12   C74   S    
C82   O50   A    
Cr4   O13   S    
C14   C18   A    
Cr11  O51   S    
C42   C82   S    
C91   H25   S    
Cr6   O11   S    
C44   C83   S    
Cr11  O48   S    
C6    H76   S    
C52   O26   A    
C48   C57   D    
Cr1   O14   S    
C72   C98   S    
Cr2   O2    S    
C101  H34   S    
C15   C19   A    
C63   C85   S    
C39   H39   S    
C95   H20   S    
Cr3   O29   S    
C107  H55   S    
C99   H12   S    
C24   C98   A    
C78   O47   A    
Cr4   O4    S    
Cr4   O8    S    
C13   C29   A    
C8    H81   S    
Cr2   O6    S    
Cr3   O7    S    
Cr7   O17   S    
C55   H41   S    
C55   C59   S    
C69   C70   S    
C20   C22   A    
Cr12  O27   S    
C66   C88   S    
C38   C39   A    
Cr2   O32   S    
C66   C69   D    
Cr7   O43   S    
C106  C107  S    
C14   C24   A    
C89   H22   S    
Cr6   O42   S    
C56   H42   S    
Cr11  O13   S    
Cr5   O41   S    
C20   H29   S    
C18   H27   S    
C18   C19   A    
C37   H37   S    
C49   O22   A    
C58   H45   S    
C86   O7    A    
Cr5   O15   S    
C97   H1    S    
C93   H18   S    
C51   C91   S    
C96   H21   S    
C87   C101  S    
C50   C90   S    
Cr4   O35   S    
Cr9   O19   S    
C87   C108  S    
C32   O20   A    
Cr1   O40   S    
Cr2   O28   S    
C8    C9    S    
C71   O1    A    
C51   O29   A    
C46   C55   D    
C70   H13   S    
C102  H48   S    
C23   C24   A    
C72   O32   A    
C54   C97   S    
C83   O51   A    
C2    C27   A    
C80   O52   A    
C64   C70   D    
C7    H73   S    
C21   O15   A    
Cr5   O12   S    
C83   O4    A    
C9    H80   S    
C52   O30   A    
Cr8   O45   S    
Cr8   O22   S    
C102  H49   S    
C15   C23   A    
C6    C31   S    
C45   C53   D    
Cr3   O33   S    
C87   C92   D    
C107  H57   S    
C85   O37   A    
C94   H19   S    
C48   C75   S    
C13   C25   A    
Cr12  O31   S    
C67   H9    S    
C61   H78   S    
Cr3   O11   S    
C5    H66   S    
Cr1   O1    S    
C64   C86   S    
C6    H75   S    
C32   O16   A    
C9    H77   S    
Cr7   O39   S    
C64   H17   S    
C16   C26   A    
C65   C90   D    
C21   O19   A    
C44   C61   D    
C63   C67   D    
C40   C58   D    
C80   O45   A    
C108  H64   S    
C27   C31   A    
C67   C68   S    
C63   H14   S    
C4    H70   S    
C108  H65   S    
C65   C99   S    
C54   C89   D    
C10   C34   S    
C59   H56   S    
C105  H50   S    
C42   C60   D    
Cr6   O23   S    
C46   C78   S    
Cr7   O13   S    
C95   C100  D    
Cr12  O9    S    
C104  H54   S    
C21   C95   S    
Cr1   O36   S    
Cr10  O20   S    
C25   C26   A    
Cr12  O52   S    
C92   H26   S    
C29   C34   A    
C33   C37   A    
C105  H51   S    
C56   C60   S    
Cr8   O18   S    
C1    O14   A    
C8    C35   S    
C71   O31   A    
C62   H15   S    
C14   H31   S    
C35   C39   A    
C10   H87   S    
C45   C79   S    
C29   C30   A    
Cr7   O34   S    
Cr9   O49   S    
Cr9   O46   S    
C68   H10   S    
Cr11  O26   S    
C47   H3    S    
C57   H43   S    
C69   H11   S    
C41   C81   S    
C2    C23   A    
C40   C80   S    
C103  H44   S    
Cr9   O10   S    
C84   O36   A    
C16   C20   A    
C86   O38   A    
C7    H74   S    
C50   O28   A    
Cr5   O10   S    
C3    H61   S    
C38   H38   S    
C6    C7    S    
C42   H7    S    
C66   H16   S    
C74   O35   A    
C30   C35   A    
C13   C73   S    
C28   C33   A    
C11   H83   S    
C45   H88   S    
Cr4   O30   S    
C10   C11   S    
C107  H58   S    
C78   O42   A    
C7    H72   S    
C52   C92   S    
C77   O41   A    
C47   C77   S    
C2    C71   S    
C17   H35   S    
C93   C97   D    
C106  H59   S    
C73   O23   A    
C84   O5    A    
C36   H36   S    
C82   O3    A    
C28   C98   A    
C62   C84   S    
C4    C33   S    
C44   H8    S    
C53   H40   S    
C76   C106  S    
C50   O24   A    
C88   O8    A    
C12   C30   A    
C34   C38   A    
C79   O43   A    
C41   H6    S    
C54   C102  S    
C77   O46   A    
C17   C22   A    
C49   C89   S    
C4    C5    S    
C16   H33   S    
C100  H23   S    
C104  C105  S    
C48   H4    S    
C53   C58   S    
C43   O21   A    
C57   C61   S    
C104  H53   S    
Cr10  O50   S    
C3    C108  S    
C76   C100  S    
C4    H71   S    
Cr8   O44   S    
Cr9   O24   S    
C81   O49   A    
C19   H28   S    
C65   C104  S    
C62   C68   D    
C51   O25   A    
C17   C25   A    
C8    H82   S    
Cr12  O5    S    
C10   H86   S    
C79   O48   A    
C5    H69   S    
C49   O27   A    
C85   O6    A    
C88   O39   A    
C60   H67   S    
Cr10  O25   S    
Cr6   O38   S    
C15   H32   S    
C94   C99   D    
C1    C96   S    
Cr5   O37   S    
C40   H5    S    
C43   C93   S    
C81   O2    A    
C11   H84   S    
C106  H60   S    
C102  C103  S    
Cr2   O10   S    
C3    H62   S    
Cr3   O3    S    
Cr1   O9    S    
Cr10  O47   S    
Cr11  O21   S    
C76   C91   D    
C9    H79   S    
C74   O34   A    
C43   O17   A    
C73   O33   A    
C103  H46   S    
C36   C37   A    
C41   C59   D    
C12   C26   A    
C27   C28   A    
C31   C36   A    
C46   H2    S    
C72   O12   A    
C11   H85   S    
C5    H68   S    
Cr6   O16   S    
Cr8   O9    S    
C96   C101  D    
C3    H63   S    
C90   H24   S    
C75   O40   A    
C75   O44   A    
C47   C56   D    
Cr10  O11   S    
