data_mof_unit_37207.cif
_audit_creation_date              2012-12-11T17:43:36-0500
_audit_creation_method            fapswitch 2.2
_symmetry_space_group_name_H-M    P1
_symmetry_Int_Tables_number       1
_space_group_crystal_system       triclinic
_cell_length_a                    15.090456
_cell_length_b                    15.218129
_cell_length_c                    16.918506
_cell_angle_alpha                 108.398501
_cell_angle_beta                  106.137926
_cell_angle_gamma                 109.507645
_cell_volume                      3139.71340009

loop_
_atom_site_label
_atom_site_type_symbol
_atom_type_description
_atom_site_fract_x
_atom_site_fract_y
_atom_site_fract_z
_atom_type_partial_charge
C1    C     C_R   0.090445 0.277736 0.039023 -0.146213
C2    C     C_R   0.076136 0.059732 0.948558 -0.242855
C3    C     C_R   0.995331 0.890491 0.941797 0.058658
C4    C     C_R   0.999478 0.080591 0.969175 0.066532
C5    C     C_R   0.074949 0.963868 0.934108 0.022564
C6    C     C_R   0.918004 0.004451 0.972835 0.014986
C7    C     C_R   0.732691 0.964193 0.937987 -0.190373
C8    C     C_R   0.261217 0.015341 0.960902 -0.171684
C9    C     C_R   0.685697 0.047967 0.055304 -0.103031
C10   C     C_R   0.307554 0.898340 0.866411 -0.101436
C11   C     C_R   0.528383 0.811294 0.317724 -0.096472
C12   C     C_R   0.912585 0.709345 0.921843 -0.152942
C13   C     C_R   0.450678 0.274526 0.726418 -0.100465
C14   C     C_R   0.533429 0.758271 0.236213 -0.163687
C15   C     C_R   0.481607 0.330578 0.820638 -0.144199
C16   C     C_R   0.935893 0.452066 0.735185 -0.133517
C17   C     C_R   0.063968 0.484075 0.255058 -0.148679
C18   C     C_R   0.541558 0.665319 0.218689 0.159188
C19   C     C_R   0.518012 0.438924 0.860127 0.184865
C20   C     C_R   0.544364 0.626125 0.283640 -0.150633
C21   C     C_R   0.528859 0.491268 0.805548 -0.207628
C22   C     C_R   0.539814 0.679657 0.365307 -0.132896
C23   C     C_R   0.027805 0.465498 0.725979 0.069409
C24   C     C_R   0.501397 0.435316 0.712031 -0.118105
C25   C     C_R   0.531605 0.772034 0.382252 -0.086203
C26   C     C_R   0.460571 0.326792 0.672127 -0.097560
C27   C     C_R   0.625022 0.594994 0.122611 0.132623
C28   C     C_R   0.439159 0.500723 0.960074 0.131106
C29   C     C_R   0.617679 0.539819 0.034912 -0.042929
C30   C     C_R   0.446929 0.556392 0.047344 -0.042903
C31   C     C_R   0.526250 0.494677 0.953297 -0.112152
C32   C     C_R   0.538259 0.604856 0.128793 -0.111402
C33   C     C_R   0.656853 0.978115 0.964961 -0.113426
C34   C     C_R   0.972666 0.427025 0.258448 0.088796
C35   C     C_R   0.336817 0.993483 0.939169 -0.109538
C36   C     C_R   0.963885 0.388378 0.326787 0.077758
C37   C     C_R   0.035972 0.419362 0.639497 0.126840
C38   C     C_R   0.139761 0.431152 0.552993 0.183970
C39   C     C_R   0.856972 0.309979 0.394702 0.186676
C40   C     C_R   0.725343 0.211834 0.820591 -0.152484
C41   C     C_R   0.221046 0.795376 0.186331 -0.135598
C42   C     C_R   0.133037 0.447851 0.636725 -0.286593
C43   C     C_R   0.866074 0.336580 0.324222 -0.245080
C44   C     C_R   0.945315 0.357745 0.557069 -0.272388
C45   C     C_R   0.673123 0.210998 0.738883 0.077545
C46   C     C_R   0.053492 0.407884 0.397534 -0.281676
C47   C     C_R   0.949351 0.348315 0.473698 0.031925
C48   C     C_R   0.048001 0.392119 0.473166 0.116843
C49   C     C_R   0.569483 0.132044 0.667411 0.135267
C50   C     C_R   0.278764 0.895371 0.357703 0.130481
C51   C     C_R   0.395880 0.080057 0.438400 -0.241360
C52   C     C_R   0.418649 0.963961 0.601217 -0.238941
C53   C     C_R   0.318496 0.993208 0.357993 -0.168761
C54   C     C_R   0.512999 0.042293 0.674081 -0.197381
C55   C     C_R   0.300177 0.889357 0.441311 -0.283408
C56   C     C_R   0.236074 0.800444 0.272506 0.056011
C57   C     C_R   0.527364 0.145493 0.589978 -0.303674
C58   C     C_R   0.381042 0.974739 0.521275 0.191515
C59   C     C_R   0.433304 0.068475 0.517740 0.181035
C60   C     C_R   0.790397 0.104069 0.118576 -0.126014
C61   C     C_R   0.202583 0.825012 0.814940 -0.112820
C62   C     C_R   0.866794 0.092106 0.091534 -0.118733
C63   C     C_R   0.126683 0.846658 0.836159 -0.133430
C64   C     C_R   0.299959 0.593318 0.002300 -0.115576
C65   C     C_R   0.734911 0.458509 0.045153 -0.124504
C66   C     C_R   0.838333 0.022093 0.000899 0.116119
C67   C     C_R   0.355058 0.557726 0.050849 0.123605
C68   C     C_R   0.155339 0.941770 0.909950 0.115351
C69   C     C_R   0.730292 0.306913 0.743886 -0.131925
C70   C     C_R   0.215627 0.701088 0.264584 -0.111752
C71   C     C_R   0.293455 0.496595 0.077837 -0.140769
C72   C     C_R   0.747047 0.559026 0.971636 -0.128392
C73   C     C_R   0.109506 0.535970 0.812401 -0.132000
C74   C     C_R   0.891423 0.400624 0.177962 -0.142947
C75   C     C_R   0.916440 0.194533 0.956845 -0.108849
C76   C     C_R   0.085104 0.796110 0.000368 -0.128918
C77   C     C_R   0.003390 0.180485 0.983986 0.051031
C78   C     C_R   0.705378 0.529382 0.027180 0.132190
C79   C     C_R   0.998977 0.800744 0.950561 0.057214
C80   C     C_3   0.742093 0.584226 0.247738 -0.920481
C81   C     C_3   0.269802 0.348463 0.856336 -0.878490
C82   C     C_3   0.260896 0.380054 0.510012 -0.951294
C83   C     C_3   0.662565 0.215010 0.311042 -0.970063
C84   C     C_R   0.916064 0.909695 0.956990 -0.236240
H1    H     H_    0.170042 0.294449 0.074831 0.096712
H2    H     H_    0.471028 0.289038 0.861513 0.107564
H3    H     H_    0.547807 0.553184 0.270149 0.118526
H4    H     H_    0.554746 0.574668 0.834771 0.104569
H5    H     H_    0.541523 0.648922 0.415025 0.109807
H6    H     H_    0.508430 0.475642 0.669879 0.111292
H7    H     H_    0.128822 0.444899 0.398604 0.149213
H8    H     H_    0.870692 0.329607 0.558998 0.123701
H9    H     H_    0.797055 0.318454 0.267910 0.137884
H10   H     H_    0.204036 0.488181 0.699503 0.116181
H11   H     H_    0.857274 0.404182 0.682544 0.095813
H12   H     H_    0.834257 0.683051 0.873146 0.094620
H13   H     H_    0.142277 0.504703 0.299083 0.089715
H14   H     H_    0.575709 0.934144 0.916085 0.098426
H15   H     H_    0.418201 0.050157 0.979034 0.102362
H16   H     H_    0.569001 0.213434 0.582789 0.122094
H17   H     H_    0.264550 0.815733 0.442937 0.119651
H18   H     H_    0.542633 0.030191 0.733532 0.118735
H19   H     H_    0.298427 0.001770 0.295362 0.116111
H20   H     H_    0.432982 0.153199 0.436189 0.126796
H21   H     H_    0.378656 0.892732 0.605163 0.129203
H22   H     H_    0.626864 0.057901 0.076467 0.095822
H23   H     H_    0.709439 0.909056 0.868045 0.112464
H24   H     H_    0.366215 0.881475 0.849890 0.091764
H25   H     H_    0.812255 0.155735 0.188873 0.125777
H26   H     H_    0.179968 0.751336 0.758543 0.111533
H27   H     H_    0.947637 0.135936 0.141324 0.112602
H28   H     H_    0.045639 0.789154 0.795212 0.112973
H29   H     H_    0.695702 0.157810 0.846744 0.092122
H30   H     H_    0.230939 0.857808 0.167140 0.093450
H31   H     H_    0.328801 0.649100 0.977331 0.083322
H32   H     H_    0.709292 0.414265 0.080410 0.101311
H33   H     H_    0.705387 0.341104 0.700666 0.092525
H34   H     H_    0.285433 0.088884 0.018314 0.108223
H35   H     H_    0.221046 0.676389 0.318067 0.093937
H36   H     H_    0.315597 0.462083 0.121920 0.096827
H37   H     H_    0.734306 0.608962 0.941366 0.098882
H38   H     H_    0.191592 0.564465 0.830753 0.098790
H39   H     H_    0.811231 0.343355 0.150270 0.090431
H40   H     H_    0.836616 0.135836 0.914383 0.109270
H41   H     H_    0.165729 0.850892 0.025477 0.104882
H42   H     H_    0.856456 0.853804 0.964932 0.132997
H43   H     H_    0.135888 0.117809 0.942719 0.131358
H44   H     H_    0.741188 0.721148 0.247406 0.177262
H45   H     H_    0.527208 0.812904 0.445129 0.109787
H46   H     H_    0.748383 0.618069 0.318849 0.244831
H47   H     H_    0.816979 0.584639 0.252049 0.263174
H48   H     H_    0.679536 0.501962 0.210184 0.237194
H49   H     H_    0.349386 0.461605 0.822987 0.171836
H50   H     H_    0.193198 0.326597 0.803142 0.249936
H51   H     H_    0.259216 0.344055 0.917503 0.252091
H52   H     H_    0.296696 0.291350 0.828328 0.243153
H53   H     H_    0.300187 0.521838 0.614220 0.161669
H54   H     H_    0.337431 0.412343 0.507826 0.242245
H55   H     H_    0.200478 0.326089 0.438290 0.259913
H56   H     H_    0.435375 0.283255 0.598915 0.112332
H57   H     H_    0.263548 0.335932 0.551205 0.262620
H58   H     H_    0.755201 0.199283 0.417265 0.167243
H59   H     H_    0.594376 0.173291 0.321719 0.251444
H60   H     H_    0.660891 0.159806 0.248575 0.246033
H61   H     H_    0.655739 0.281743 0.301428 0.256801
H62   H     H_    0.521250 0.882401 0.330583 0.116535
H63   H     H_    0.416641 0.190277 0.695211 0.131254
H64   H     H_    0.529527 0.788671 0.186130 0.110022
N1    N     N_R   0.055660 0.348550 0.045620 -0.038893
N2    N     N_R   0.185200 0.638170 0.176300 -0.040412
N3    N     N_R   0.201680 0.494570 0.045620 -0.041196
N4    N     N_R   0.798320 0.505430 0.954380 -0.042035
N5    N     N_R   0.068420 0.560530 0.871650 -0.040735
N6    N     N_R   0.931580 0.439470 0.128350 -0.038089
N7    N     N_R   0.948070 0.295860 0.997670 -0.041814
N8    N     N_R   0.051930 0.704140 0.002330 -0.040645
N9    N     N_2   0.721615 0.646431 0.202400 -0.101017
N10   N     N_2   0.343218 0.452897 0.879495 -0.110871
N11   N     N_2   0.239337 0.464586 0.551706 -0.119336
N12   N     N_R   0.944340 0.651450 0.954380 -0.036661
N13   N     N_2   0.757409 0.252229 0.390996 -0.106720
N14   N     N_R   0.960830 0.507850 0.823700 -0.041960
N15   N     N_R   0.039170 0.492150 0.176300 -0.039694
N16   N     N_R   0.811290 0.303410 0.871650 -0.038919
N17   N     N_R   0.188710 0.696590 0.128350 -0.041971
N18   N     N_R   0.205200 0.552990 0.997670 -0.040583
N19   N     N_R   0.794800 0.447010 0.002330 -0.046485
N20   N     N_R   0.814800 0.361830 0.823700 -0.039503
Ni1   Ni    Ni4+2 0.119340 0.493420 0.109960 0.214421
Ni2   Ni    Ni4+2 0.880660 0.506580 0.890040 0.216323
Ni3   Ni    Ni4+2 0.872590 0.372590 0.000000 0.215795
Ni4   Ni    Ni4+2 0.127410 0.627410 0.000000 0.214758

loop_
_geom_bond_atom_site_label_1
_geom_bond_atom_site_label_2
_ccdc_geom_bond_type
C9    C33   A    
C12   C79   A    
N18   Ni4   S    
C80   H48   S    
C72   H37   S    
C27   C29   A    
C1    C77   A    
C14   C18   A    
C10   H24   S    
C70   N2    A    
C76   C79   A    
C41   H30   S    
C19   C31   S    
H58   N13   S    
C8    H34   S    
C81   H50   S    
C15   C19   A    
C71   H36   S    
N1    Ni1   S    
C19   C21   A    
C24   C26   A    
C38   N11   S    
H49   N10   S    
C26   H56   S    
C82   H57   S    
C83   H60   S    
C11   C14   A    
C57   C59   A    
N2    Ni1   S    
C11   C25   A    
C49   C54   A    
C20   H3    S    
C14   H64   S    
C63   H28   S    
C49   C57   A    
C74   N6    A    
C60   C62   A    
C33   H14   S    
C37   C42   A    
C61   C63   A    
C72   C78   A    
C60   H25   S    
C17   N15   A    
C83   H61   S    
C71   N3    A    
C29   C78   S    
C47   C48   A    
C72   N4    A    
C22   C25   A    
C41   N17   A    
C67   C71   A    
C64   N18   A    
C36   C46   A    
C10   C35   A    
C65   C78   A    
C39   N13   S    
C38   C48   A    
C30   C67   S    
C44   H8    S    
C44   C47   A    
C2    H43   S    
N17   Ni4   S    
N20   Ni2   S    
C74   H39   S    
C83   N13   S    
C21   H4    S    
C25   H45   S    
C80   H47   S    
H53   N11   S    
C1    H1    S    
C76   H41   S    
C7    C33   A    
C23   C73   A    
C5    C68   S    
C35   H15   S    
C61   H26   S    
C52   C54   A    
H44   N9    S    
C81   H51   S    
C84   H42   S    
C40   C45   A    
C46   C48   A    
C50   C53   A    
C6    C84   A    
C62   H27   S    
C45   C69   A    
C75   H40   S    
C64   C67   A    
N6    N15   A    
N8    N12   A    
C80   H46   S    
C4    C6    A    
C62   C66   A    
C39   C43   A    
C46   H7    S    
C16   N14   A    
C51   H20   S    
C23   C37   S    
C57   H16   S    
C76   N8    A    
C50   C56   S    
C51   C53   A    
C8    C35   A    
C2    C4    A    
C41   C56   A    
C82   H55   S    
C75   N7    A    
N4    Ni2   S    
C40   H29   S    
N14   Ni2   S    
C45   C49   S    
C70   H35   S    
C83   H59   S    
C28   N10   S    
C36   C43   A    
C21   C24   A    
C12   N12   A    
C1    N1    A    
C75   C77   A    
C3    C79   S    
C52   C58   A    
C34   C74   A    
C15   H2    S    
N16   N20   A    
C20   C22   A    
C52   H21   S    
C8    C68   A    
C16   C23   A    
C56   C70   A    
C13   C15   A    
C65   H32   S    
C7    H23   S    
C13   C26   A    
C58   C59   A    
C10   C61   A    
C18   C32   S    
C17   C34   A    
C13   H63   S    
N4    N19   A    
C81   H52   S    
C39   C47   A    
C55   H17   S    
C63   C68   A    
C16   H11   S    
C81   N10   S    
C27   C32   A    
C42   H10   S    
C54   H18   S    
C28   C31   A    
C3    C5    A    
C24   H6    S    
N19   Ni3   S    
C11   H62   S    
C38   C42   A    
C27   N9    S    
N3    N18   A    
C65   N19   A    
C50   C55   A    
N3    Ni1   S    
N5    N14   A    
C9    C60   A    
C37   C44   A    
C28   C30   A    
C9    H22   S    
C69   N20   A    
C4    C77   S    
C82   H54   S    
C7    C66   A    
C30   C32   A    
C82   N11   S    
N2    N17   A    
C80   N9    S    
C53   H19   S    
N5    Ni4   S    
C69   H33   S    
C43   H9    S    
C22   H5    S    
N8    Ni4   S    
N6    Ni3   S    
C18   C20   A    
N1    N7    A    
N15   Ni1   S    
C2    C5    A    
N7    Ni3   S    
C6    C66   S    
C51   C59   A    
C34   C36   S    
C29   C31   A    
C73   H38   S    
C55   C58   A    
C73   N5    A    
C3    C84   A    
C64   H31   S    
N12   Ni2   S    
C12   H12   S    
N16   Ni3   S    
C40   N16   A    
C17   H13   S    
