data_mof_unit_50383.cif
_audit_creation_date              2012-12-10T19:07:37-0500
_audit_creation_method            fapswitch 2.2
_symmetry_space_group_name_H-M    P1
_symmetry_Int_Tables_number       1
_space_group_crystal_system       triclinic
_cell_length_a                    10.874927
_cell_length_b                    10.821134
_cell_length_c                    9.593759
_cell_angle_alpha                 89.426081
_cell_angle_beta                  91.34743
_cell_angle_gamma                 91.423982
_cell_volume                      1128.27337803

loop_
_atom_site_label
_atom_site_type_symbol
_atom_type_description
_atom_site_fract_x
_atom_site_fract_y
_atom_site_fract_z
_atom_type_partial_charge
C1    C     C_R   0.500318 0.262742 0.500030 0.830471
C2    C     C_R   0.942650 0.574260 0.596445 0.097288
C3    C     C_3   0.944600 0.576199 0.751629 -0.462301
C4    C     C_3   0.084046 0.581780 0.746719 -0.398771
C5    C     C_R   0.539108 0.062498 0.611188 0.114967
C6    C     C_R   0.493243 0.129705 0.498857 -0.159225
C7    C     C_R   0.431207 0.066361 0.389897 -0.261532
C8    C     C_R   0.427039 0.936839 0.388782 0.353275
C9    C     C_R   0.484512 0.870454 0.499397 -0.185310
C10   C     C_R   0.529732 0.935834 0.614993 0.046165
C11   C     C_3   0.647405 0.924463 0.697125 -0.497722
C12   C     C_R   0.262519 0.501501 0.497673 0.835299
C13   C     C_3   0.661577 0.064703 0.686089 -0.187992
C14   C     C_R   0.552203 0.596520 0.074012 0.320257
C15   C     C_R   0.437615 0.412513 0.076501 -0.041686
C16   C     C_R   0.442310 0.406773 0.929129 0.052709
C17   C     C_R   0.552316 0.596508 0.926417 0.250726
C18   C     C_3   0.685881 0.629982 0.928570 -0.535135
C19   C     C_3   0.683509 0.636587 0.085395 -0.492359
C20   C     C_R   0.495441 0.737300 0.499225 0.841194
C21   C     C_R   0.737618 0.502669 0.500730 0.817246
C22   C     C_R   0.068857 0.575631 0.592203 0.065377
C23   C     C_R   0.129730 0.512897 0.488980 -0.184254
C24   C     C_R   0.058601 0.469171 0.372702 0.362159
C25   C     C_R   0.930246 0.468662 0.377955 -0.233224
C26   C     C_R   0.871083 0.511146 0.496615 -0.147308
Cu1   Cu    Cu3+1 0.499990 0.499980 0.640670 0.946624
Cu2   Cu    Cu3+1 0.500010 0.500020 0.359330 0.999922
H1    H     H_    0.717481 0.870361 0.643233 0.189989
H2    H     H_    0.658436 0.109514 0.789332 0.151619
H3    H     H_    0.391677 0.339452 0.134952 0.180368
H4    H     H_    0.739141 0.551044 0.893271 0.217610
H5    H     H_    0.707720 0.719537 0.877730 0.195254
H6    H     H_    0.743095 0.567205 0.137225 0.223346
H7    H     H_    0.694780 0.732250 0.125729 0.201809
H8    H     H_    0.877343 0.427312 0.292600 0.188940
H9    H     H_    0.906889 0.662711 0.792367 0.203990
H10   H     H_    0.909579 0.487660 0.797221 0.200551
H11   H     H_    0.124682 0.672007 0.781205 0.207260
H12   H     H_    0.126240 0.499713 0.795443 0.205853
H13   H     H_    0.388418 0.117077 0.304495 0.196006
H14   H     H_    0.629187 0.894072 0.805488 0.184122
N1    N     N_R   0.500790 0.500930 0.147930 -0.205214
N2    N     N_R   0.500790 0.500890 0.852020 -0.214130
O1    O     O_R   0.500000 0.319640 0.618810 -0.580735
O2    O     O_R   0.500010 0.319680 0.381230 -0.595211
O3    O     O_R   0.319650 0.499970 0.618810 -0.609665
O4    O     O_R   0.319660 0.500010 0.381230 -0.504191
O5    O     O_R   0.499990 0.680320 0.618770 -0.583310
O6    O     O_R   0.500000 0.680360 0.381190 -0.536710
O7    O     O_R   0.680340 0.499990 0.618770 -0.584670
O8    O     O_R   0.680350 0.500030 0.381190 -0.599707
Cl1   Cl    Cl    0.121894 0.402272 0.224179 -0.666121
C27   C     C_R   0.770034 0.107935 0.600349 0.158113
C28   C     C_R   0.792258 0.058594 0.468027 -0.151165
C29   C     C_R   0.900174 0.090607 0.398696 -0.122620
C30   C     C_R   0.986140 0.172522 0.459835 -0.091107
C31   C     C_R   0.962372 0.225980 0.588011 -0.170704
C32   C     C_R   0.855071 0.193904 0.658136 -0.144404
H15   H     H_    0.727974 0.992952 0.420119 0.134983
H16   H     H_    0.917983 0.050477 0.298494 0.150922
H17   H     H_    0.071059 0.194817 0.407780 0.175638
H18   H     H_    0.027886 0.291351 0.634062 0.131640
H19   H     H_    0.839772 0.234252 0.758936 0.122985
C33   C     C_R   0.403490 0.283370 0.874693 0.172002
C34   C     C_R   0.292368 0.263674 0.799685 -0.078954
C35   C     C_R   0.247222 0.143472 0.774188 -0.180716
C36   C     C_R   0.308483 0.041803 0.829506 -0.060462
C37   C     C_R   0.416319 0.059836 0.908722 -0.086584
C38   C     C_R   0.464423 0.179305 0.929427 -0.230598
H20   H     H_    0.238088 0.339654 0.764999 0.125750
H21   H     H_    0.162709 0.128562 0.715032 0.144833
H22   H     H_    0.272027 0.949167 0.811692 0.138759
H23   H     H_    0.463128 0.981256 0.953565 0.158536
H24   H     H_    0.547206 0.191237 0.993475 0.124408
Cl2   Cl    Cl    0.349603 0.863668 0.247522 -0.635173

loop_
_geom_bond_atom_site_label_1
_geom_bond_atom_site_label_2
_ccdc_geom_bond_type
C21   C26   S    
C11   C13   S    
C12   O4    A    
C7    C8    A    
C12   C23   S    
Cu2   O2    S    
C32   H19   S    
C35   H21   S    
C5    C6    A    
C1    O2    A    
C33   C38   A    
C8    Cl2   S    
C29   C30   A    
C11   H14   S    
C18   C19   S    
C20   O6    A    
Cu2   O6    S    
Cu1   N2    S    
C4    H12   S    
C3    H10   S    
C8    C9    A    
C2    C22   A    
C23   C24   A    
C9    C10   A    
C16   N2    A    
C5    C13   S    
Cu1   O1    S    
C34   C35   A    
C28   H15   S    
C14   C17   A    
C12   O3    A    
C25   C26   A    
Cu1   O7    S    
C27   C32   A    
C15   C16   A    
C35   C36   A    
C13   H2    S    
C30   H17   S    
C24   C25   A    
C36   C37   A    
C24   Cl1   S    
C1    C6    S    
C20   O5    A    
C4    C22   S    
C9    C20   S    
C34   H20   S    
C4    H11   S    
C28   C29   A    
C17   C18   S    
C37   H23   S    
C2    C26   A    
C11   H1    S    
C31   C32   A    
C18   H4    S    
C3    C4    S    
C21   O7    A    
C13   C27   S    
Cu1   O3    S    
C31   H18   S    
C27   C28   A    
Cu2   O4    S    
C22   C23   A    
C14   C19   S    
C19   H6    S    
C15   H3    S    
C6    C7    A    
Cu2   N1    S    
C2    C3    S    
C36   H22   S    
C17   N2    A    
C15   N1    A    
C5    C10   A    
C19   H7    S    
Cu2   O8    S    
C1    O1    A    
C30   C31   A    
C7    H13   S    
C37   C38   A    
C18   H5    S    
C10   C11   S    
C25   H8    S    
C3    H9    S    
C33   C34   A    
C38   H24   S    
C29   H16   S    
C16   C33   S    
C21   O8    A    
Cu1   O5    S    
C14   N1    A    
Cu1   Cu2   S    
