data_mof_unit_5854.cif
_audit_creation_date              2012-12-11T14:46:28-0500
_audit_creation_method            fapswitch 2.2
_symmetry_space_group_name_H-M    P1
_symmetry_Int_Tables_number       1
_space_group_crystal_system       monoclinic
_cell_length_a                    17.441315
_cell_length_b                    17.577636
_cell_length_c                    6.934368
_cell_angle_alpha                 90.0
_cell_angle_beta                  92.229104
_cell_angle_gamma                 90.0
_cell_volume                      2124.30962976

loop_
_atom_site_label
_atom_site_type_symbol
_atom_type_description
_atom_site_fract_x
_atom_site_fract_y
_atom_site_fract_z
_atom_type_partial_charge
O1    O     O_R   0.796490 0.328940 0.373020 -0.542175
O2    O     O_R   0.203510 0.671060 0.626980 -0.542175
O3    O     O_R   0.203510 0.828940 0.626980 -0.542174
O4    O     O_R   0.796490 0.171060 0.373020 -0.542174
O5    O     O_R   0.805560 0.173330 0.702970 -0.509950
O6    O     O_R   0.194440 0.826670 0.297030 -0.509949
O7    O     O_R   0.194440 0.673330 0.297030 -0.509953
O8    O     O_R   0.805560 0.326670 0.702970 -0.509953
O9    O     O_R   0.658440 0.172360 0.870170 -0.533253
O10   O     O_R   0.341560 0.827640 0.129830 -0.533252
O11   O     O_R   0.341560 0.672360 0.129830 -0.533256
O12   O     O_R   0.658440 0.327640 0.870170 -0.533256
C1    C     C_R   0.823925 0.145520 0.539043 0.721342
C2    C     C_R   0.176075 0.854480 0.460957 0.721344
C3    C     C_R   0.176075 0.645520 0.460957 0.721326
C4    C     C_R   0.823925 0.354480 0.539043 0.721328
H1    H     H_    0.032715 0.040993 0.127691 0.144219
H2    H     H_    0.967284 0.959006 0.872308 0.144220
H3    H     H_    0.967285 0.540993 0.872309 0.144223
H4    H     H_    0.032715 0.459007 0.127691 0.144223
O13   O     O_3   0.679200 0.250000 0.537050 -0.375799
O14   O     O_3   0.320800 0.750000 0.462950 -0.375799
V1    V     V_3+5 0.736420 0.250000 0.813120 1.499288
V2    V     V_3+5 0.263580 0.750000 0.186880 1.499290
O15   O     O_R   0.649370 0.327980 0.199650 -0.540867
O16   O     O_R   0.350630 0.672020 0.800350 -0.540867
O17   O     O_R   0.350630 0.827980 0.800350 -0.540867
O18   O     O_R   0.649370 0.172020 0.199650 -0.540867
C5    C     C_R   0.630328 0.354081 0.028452 0.712523
C6    C     C_R   0.369672 0.645919 0.971548 0.712523
C7    C     C_R   0.369672 0.854081 0.971548 0.712524
C8    C     C_R   0.630328 0.145919 0.028452 0.712522
H5    H     H_    0.922586 0.104243 0.262739 0.178277
H6    H     H_    0.077413 0.895756 0.737261 0.178276
H7    H     H_    0.077414 0.604242 0.737262 0.178276
H8    H     H_    0.922586 0.395757 0.262738 0.178275
V3    V     V_3+5 0.718510 0.250000 0.312740 1.426873
V4    V     V_3+5 0.281490 0.750000 0.687260 1.426873
O19   O     O_3   0.775740 0.250000 0.038930 -0.350056
O20   O     O_3   0.224260 0.750000 0.961070 -0.350056
C9    C     C_1   0.574055 0.083391 0.014310 -0.203533
C10   C     C_1   0.425945 0.916609 0.985690 -0.203532
C11   C     C_1   0.425945 0.583391 0.985690 -0.203533
C12   C     C_1   0.574055 0.416609 0.014310 -0.203533
C13   C     C_1   0.527447 0.030965 0.005006 -0.000663
C14   C     C_1   0.472553 0.969035 0.994994 -0.000664
C15   C     C_1   0.472553 0.530965 0.994994 -0.000666
C16   C     C_1   0.527447 0.469035 0.005006 -0.000666
C17   C     C_R   0.883264 0.084301 0.549455 -0.175295
C18   C     C_R   0.116736 0.915699 0.450545 -0.175294
C19   C     C_R   0.116736 0.584301 0.450545 -0.175302
C20   C     C_R   0.883264 0.415699 0.549455 -0.175302
C21   C     C_R   0.042201 0.009848 0.261413 -0.248391
C22   C     C_R   0.957799 0.990152 0.738587 -0.248388
C23   C     C_R   0.957799 0.509847 0.738588 -0.248373
C24   C     C_R   0.042201 0.490152 0.261412 -0.248373
C25   C     C_R   0.103873 0.958837 0.278451 0.406143
C26   C     C_R   0.896126 0.041162 0.721549 0.406143
C27   C     C_R   0.896127 0.458837 0.721550 0.406140
C28   C     C_R   0.103872 0.541164 0.278450 0.406142
C29   C     C_R   0.068515 0.928037 0.605033 -0.266318
C30   C     C_R   0.931484 0.071963 0.394966 -0.266318
C31   C     C_R   0.931484 0.428037 0.394966 -0.266298
C32   C     C_R   0.068516 0.571962 0.605034 -0.266300
C33   C     C_R   0.006780 0.979550 0.586636 0.088908
C34   C     C_R   0.993219 0.020449 0.413363 0.088908
C35   C     C_R   0.993220 0.479551 0.413363 0.088901
C36   C     C_R   0.006780 0.520449 0.586637 0.088901
O21   O     O_3   0.852402 0.052313 0.881148 -0.548565
C37   C     C_3   0.794793 0.995904 0.884574 0.096336
H9    H     H_    0.815171 0.938725 0.838594 0.102213
H10   H     H_    0.745346 0.013300 0.788375 0.115182
C38   C     C_3   0.767839 0.988120 0.089665 -0.710789
H11   H     H_    0.749509 0.044196 0.144778 0.225254
H12   H     H_    0.718746 0.947965 0.092458 0.171697
H13   H     H_    0.815319 0.966093 0.185421 0.217552
O22   O     O_3   0.147598 0.947687 0.118853 -0.548564
C39   C     C_3   0.205204 0.004099 0.115423 0.096336
H14   H     H_    0.254651 0.986708 0.211629 0.115181
H15   H     H_    0.184822 0.061277 0.161393 0.102216
C40   C     C_3   0.232161 0.011880 0.910335 -0.710800
H16   H     H_    0.184683 0.033907 0.814575 0.217551
H17   H     H_    0.281255 0.052034 0.907541 0.171699
H18   H     H_    0.250491 0.955803 0.855228 0.225258
O23   O     O_3   0.147595 0.552314 0.118849 -0.548566
C41   C     C_3   0.205216 0.495916 0.115448 0.096351
H19   H     H_    0.184850 0.438736 0.161459 0.102207
H20   H     H_    0.254661 0.513328 0.211635 0.115183
C42   C     C_3   0.232169 0.488121 0.910359 -0.710804
H21   H     H_    0.250482 0.544198 0.855211 0.225260
H22   H     H_    0.281274 0.447980 0.907583 0.171701
H23   H     H_    0.184694 0.466073 0.814620 0.217546
O24   O     O_3   0.852404 0.447686 0.881150 -0.548566
C43   C     C_3   0.794784 0.504085 0.884550 0.096349
H24   H     H_    0.745340 0.486672 0.788362 0.115186
H25   H     H_    0.815150 0.561263 0.838541 0.102210
C44   C     C_3   0.767829 0.511879 0.089637 -0.710813
H26   H     H_    0.815302 0.533927 0.185376 0.217548
H27   H     H_    0.718724 0.552019 0.092411 0.171703
H28   H     H_    0.749516 0.455803 0.144784 0.225261

loop_
_geom_bond_atom_site_label_1
_geom_bond_atom_site_label_2
_ccdc_geom_bond_type
O24   C43   S    
C7    C10   S    
C23   C27   A    
O12   C5    A    
C38   H11   S    
H4    C24   S    
C44   H28   S    
C44   H26   S    
C22   C33   A    
O22   C39   S    
O12   V1    S    
C32   C36   A    
O23   C41   S    
C39   H15   S    
O17   V4    S    
O7    V2    S    
O14   V4    S    
O11   V2    S    
O8    V1    S    
C10   C14   T    
O4    C1    A    
O9    C8    A    
O15   V3    S    
O10   C7    A    
O3    V4    S    
H5    C30   S    
C8    C9    S    
C37   H9    S    
C3    C19   S    
C42   H22   S    
H8    C31   S    
O5    C1    A    
O1    V3    S    
O7    C3    A    
O8    C4    A    
C38   H12   S    
C43   H24   S    
C44   H27   S    
C23   C36   A    
O15   C5    A    
C31   C35   A    
C30   C34   A    
O17   C7    A    
C35   C36   A    
C25   O22   S    
O18   C8    A    
O11   C6    A    
C21   C25   A    
C41   H19   S    
O9    V1    S    
C43   C44   S    
O10   V2    S    
C13   C14   S    
C20   C31   A    
H6    C29   S    
C40   H16   S    
C17   C26   A    
C24   C28   A    
O2    C3    A    
C20   C27   A    
O6    C2    A    
O2    V4    S    
C15   C16   S    
O5    V1    S    
O6    V2    S    
C37   C38   S    
O1    C4    A    
C42   H23   S    
C43   H25   S    
C21   C34   A    
H7    C32   S    
O3    C2    A    
C1    C17   S    
O16   C6    A    
O13   V1    S    
C5    C12   S    
C38   H13   S    
O14   V2    S    
C6    C11   S    
H1    C21   S    
C40   H18   S    
C22   C26   A    
H3    C23   S    
C17   C30   A    
C39   H14   S    
C18   C25   A    
O16   V4    S    
C19   C32   A    
C4    C20   S    
C41   C42   S    
C40   H17   S    
C28   O23   S    
C26   O21   S    
C24   C35   A    
V3    O19   S    
V4    O20   S    
C39   C40   S    
C2    C18   S    
O18   V3    S    
V1    O19   S    
V2    O20   S    
C41   H20   S    
O21   C37   S    
H2    C22   S    
C29   C33   A    
O13   V3    S    
O4    V3    S    
C33   C34   A    
C18   C29   A    
C9    C13   T    
C37   H10   S    
C19   C28   A    
C27   O24   S    
C42   H21   S    
C11   C15   T    
C12   C16   T    
