data_mof_unit_16239.cif
_audit_creation_date              2012-12-11T16:24:13-0500
_audit_creation_method            fapswitch 2.2
_symmetry_space_group_name_H-M    P1
_symmetry_Int_Tables_number       1
_space_group_crystal_system       triclinic
_cell_length_a                    14.736257
_cell_length_b                    14.754186
_cell_length_c                    33.30239
_cell_angle_alpha                 96.114398
_cell_angle_beta                  96.153052
_cell_angle_gamma                 61.199986
_cell_volume                      6295.95423287

loop_
_atom_site_label
_atom_site_type_symbol
_atom_type_description
_atom_site_fract_x
_atom_site_fract_y
_atom_site_fract_z
_atom_type_partial_charge
C1    C     C_R   0.390780 0.700114 0.446326 0.543722
C2    C     C_R   0.332223 0.348840 0.308265 0.027681
C3    C     C_R   0.426949 0.278667 0.326265 -0.117018
C4    C     C_R   0.446246 0.286204 0.367898 -0.137638
C5    C     C_R   0.397469 0.254320 0.165114 0.002259
C6    C     C_R   0.386779 0.237806 0.123062 -0.129338
C7    C     C_R   0.208981 0.376248 0.121962 -0.134992
C8    C     C_R   0.218909 0.393880 0.163704 -0.123595
C9    C     C_R   0.311188 0.331168 0.185537 0.036038
C10   C     C_1   0.314023 0.342928 0.228839 -0.011933
C11   C     C_1   0.319353 0.347734 0.265126 -0.010715
C12   C     C_R   0.405569 0.385990 0.434051 0.541117
C13   C     C_R   0.291434 0.295203 0.101532 0.006402
C14   C     C_R   0.759717 0.369840 0.410712 0.000620
C15   C     C_R   0.824347 0.408119 0.399304 -0.036063
C16   C     C_R   0.858182 0.384526 0.359480 -0.018429
C17   C     C_R   0.826962 0.323761 0.331682 0.011189
C18   C     C_R   0.772398 0.278204 0.344923 -0.139607
C19   C     C_R   0.739408 0.300738 0.383875 -0.147952
C20   C     C_R   0.846739 0.306132 0.206610 0.344318
C21   C     C_R   0.840835 0.314707 0.288052 0.352431
C22   C     C_R   0.843188 0.386845 0.144051 -0.119946
C23   C     C_R   0.701693 0.409364 0.447738 0.543099
C24   C     C_R   0.869866 0.377135 0.104396 -0.131335
C25   C     C_R   0.914375 0.195558 0.100066 -0.131709
C26   C     C_R   0.887622 0.205309 0.139799 -0.132277
C27   C     C_R   0.856448 0.299908 0.162725 0.032697
C28   C     C_R   0.910291 0.280321 0.082721 0.021905
C29   C     C_R   0.369666 0.757129 0.409915 0.020253
C30   C     C_R   0.277458 0.782003 0.385910 -0.125996
C31   C     C_R   0.267474 0.811340 0.346759 -0.117132
C32   C     C_R   0.348731 0.817782 0.331221 0.038440
C33   C     C_R   0.436398 0.803684 0.356433 -0.119347
C34   C     C_R   0.393423 0.701358 0.561274 0.540547
C35   C     C_R   0.447131 0.772897 0.395628 -0.130663
C36   C     C_R   0.337396 0.841384 0.207004 0.337901
C37   C     C_R   0.345998 0.826696 0.287762 0.342661
C38   C     C_R   0.236736 0.860746 0.139286 -0.017281
C39   C     C_R   0.224029 0.882331 0.098711 -0.132914
C40   C     C_R   0.379847 0.900355 0.105440 -0.136290
C41   C     C_R   0.395890 0.874752 0.145632 -0.133749
C42   C     C_R   0.323556 0.857604 0.163373 0.027466
C43   C     C_R   0.291880 0.907637 0.082095 0.008513
C44   C     C_R   0.369252 0.368681 0.584269 0.022198
C45   C     C_R   0.407011 0.388786 0.548865 0.545861
C46   C     C_R   0.282142 0.448505 0.602779 -0.133523
C47   C     C_R   0.260150 0.438494 0.641189 -0.122847
C48   C     C_R   0.324580 0.348320 0.661593 0.035097
C49   C     C_R   0.405761 0.264834 0.641471 -0.121075
C50   C     C_R   0.428059 0.275021 0.603134 -0.131163
C51   C     C_R   0.305518 0.343694 0.785663 0.342224
C52   C     C_R   0.313721 0.345139 0.704771 0.342573
C53   C     C_R   0.208721 0.403743 0.850017 -0.013468
C54   C     C_R   0.203450 0.384466 0.889649 -0.134624
C55   C     C_R   0.380445 0.245259 0.889930 -0.134820
C56   C     C_R   0.701377 0.413618 0.562678 0.540104
C57   C     C_R   0.386831 0.264374 0.850616 -0.132802
C58   C     C_R   0.300153 0.340184 0.829475 0.020802
C59   C     C_R   0.287161 0.301879 0.909043 0.007980
C60   C     C_R   0.754559 0.380455 0.602818 0.018550
C61   C     C_R   0.779607 0.447260 0.629274 -0.128181
C62   C     C_R   0.808745 0.426511 0.669964 -0.109411
C63   C     C_R   0.813671 0.338703 0.684599 0.040536
C64   C     C_R   0.795036 0.268597 0.658049 -0.111837
C65   C     C_R   0.765926 0.289097 0.617352 -0.126043
C66   C     C_R   0.888708 0.211940 0.822458 -0.111246
C67   C     C_R   0.371300 0.365023 0.392277 0.004858
C68   C     C_R   0.915244 0.200931 0.863891 -0.127054
C69   C     C_R   0.874747 0.381529 0.873075 -0.123031
C70   C     C_R   0.848182 0.392303 0.831712 -0.104868
C71   C     C_R   0.857866 0.306891 0.806211 0.039659
C72   C     C_1   0.842475 0.315592 0.763207 -0.019055
C73   C     C_1   0.830376 0.324757 0.727266 -0.019613
C74   C     C_R   0.911774 0.284839 0.889419 0.017781
C75   C     C_R   0.376143 0.754953 0.601999 0.019623
C76   C     C_R   0.280712 0.790069 0.619140 -0.125590
C77   C     C_R   0.271094 0.819460 0.660343 -0.109931
C78   C     C_R   0.271881 0.430549 0.374145 -0.017285
C79   C     C_R   0.356435 0.814428 0.684824 0.041915
C80   C     C_R   0.449802 0.785754 0.667655 -0.110349
C81   C     C_R   0.459611 0.756514 0.626394 -0.127404
C82   C     C_R   0.396339 0.885549 0.832538 -0.109588
C83   C     C_R   0.376680 0.912803 0.873367 -0.125661
C84   C     C_R   0.228251 0.881738 0.862761 -0.125189
C85   C     C_R   0.248209 0.854389 0.821982 -0.109247
C86   C     C_R   0.330498 0.858993 0.806636 0.039648
C87   C     C_1   0.342726 0.843126 0.763898 -0.020022
C88   C     C_1   0.349991 0.830944 0.727873 -0.019480
C89   C     C_R   0.253496 0.422252 0.332090 -0.098083
C90   C     C_R   0.290382 0.914379 0.888617 0.018604
C91   C     C_R   0.963875 0.264040 0.045704 0.545140
C92   C     C_R   0.272783 0.259744 0.059943 0.545279
C93   C     C_R   0.258662 0.960249 0.043973 0.546395
C94   C     C_R   0.962936 0.267492 0.930630 0.542822
C95   C     C_R   0.270655 0.263910 0.945244 0.546628
C96   C     C_R   0.256142 0.965089 0.928910 0.543365
Cr1   Cr    Cr6+3 0.576280 0.580550 0.506370 1.018728
Cr2   Cr    Cr6+3 0.346780 0.572400 0.496520 1.039864
Cr3   Cr    Cr6+3 0.576960 0.347070 0.497150 1.010524
Cr4   Cr    Cr6+3 0.087320 0.083240 0.984860 1.013822
Cr5   Cr    Cr6+3 0.087720 0.316210 0.996740 1.012972
Cr6   Cr    Cr6+3 0.317350 0.090340 0.995890 1.014128
H1    H     H_    0.451234 0.175528 0.107585 0.129474
H2    H     H_    0.691297 0.269319 0.391941 0.136566
H3    H     H_    0.864777 0.444077 0.091625 0.128544
H4    H     H_    0.748887 0.230322 0.324241 0.136963
H5    H     H_    0.817291 0.461375 0.160674 0.135775
H6    H     H_    0.944968 0.119938 0.084028 0.131034
H7    H     H_    0.897129 0.137295 0.153179 0.120349
H8    H     H_    0.215850 0.771892 0.396242 0.143576
H9    H     H_    0.518751 0.754984 0.413652 0.128177
H10   H     H_    0.155047 0.888628 0.081180 0.133242
H11   H     H_    0.198257 0.823954 0.327900 0.133909
H12   H     H_    0.499662 0.808863 0.344926 0.129070
H13   H     H_    0.433350 0.919640 0.093357 0.131673
H14   H     H_    0.463113 0.872177 0.163333 0.134973
H15   H     H_    0.234710 0.521306 0.588776 0.129231
H16   H     H_    0.495000 0.211761 0.589368 0.129754
H17   H     H_    0.130956 0.429422 0.904221 0.133187
H18   H     H_    0.195877 0.503474 0.655649 0.134073
H19   H     H_    0.455948 0.193711 0.656189 0.134334
H20   H     H_    0.487798 0.220812 0.307915 0.121392
H21   H     H_    0.446610 0.181840 0.904353 0.132956
H22   H     H_    0.458634 0.216061 0.836024 0.136150
H23   H     H_    0.944174 0.125291 0.875439 0.129327
H24   H     H_    0.896238 0.145416 0.802906 0.112710
H25   H     H_    0.798896 0.200288 0.669114 0.111322
H26   H     H_    0.747058 0.236143 0.597828 0.126946
H27   H     H_    0.771317 0.518350 0.619113 0.126823
H28   H     H_    0.824067 0.466213 0.819392 0.123750
H29   H     H_    0.871382 0.447560 0.891850 0.132201
H30   H     H_    0.522787 0.234034 0.380549 0.130793
H31   H     H_    0.823277 0.481132 0.690335 0.119291
H32   H     H_    0.425778 0.937919 0.892409 0.129192
H33   H     H_    0.460374 0.889092 0.820886 0.115893
H34   H     H_    0.516248 0.781756 0.686429 0.113131
H35   H     H_    0.534282 0.729372 0.614189 0.127499
H36   H     H_    0.215063 0.789719 0.601206 0.127343
H37   H     H_    0.197009 0.833599 0.802101 0.118917
H38   H     H_    0.161134 0.882346 0.873499 0.131093
H39   H     H_    0.198410 0.841843 0.673418 0.112265
H40   H     H_    0.152863 0.453640 0.179203 0.119844
H41   H     H_    0.134648 0.422059 0.106142 0.131104
H42   H     H_    0.179128 0.474865 0.317809 0.136305
N1    N     N_R   0.833102 0.392861 0.229608 -0.225334
N2    N     N_R   0.248265 0.431781 0.726284 -0.229002
N3    N     N_R   0.375291 0.257927 0.724516 -0.235730
N4    N     N_R   0.370979 0.257151 0.764120 -0.234632
N5    N     N_R   0.829616 0.397279 0.269504 -0.203892
N6    N     N_R   0.853867 0.228038 0.265106 -0.243864
N7    N     N_R   0.857710 0.223531 0.225169 -0.265947
N8    N     N_R   0.295939 0.788881 0.222174 -0.209639
N9    N     N_R   0.299681 0.782079 0.261754 -0.223978
N10   N     N_R   0.391379 0.875890 0.272739 -0.232656
N11   N     N_R   0.386529 0.883666 0.232990 -0.239762
N12   N     N_R   0.244096 0.430989 0.765933 -0.203514
O1    O     O_R   0.679450 0.499830 0.463150 -0.501039
O2    O     O_R   0.356040 0.477400 0.534170 -0.500828
O3    O     O_R   0.495910 0.323070 0.537100 -0.519386
O4    O     O_R   0.663920 0.359620 0.542290 -0.501977
O5    O     O_3   0.500010 0.500010 0.500010 -0.240214
O6    O     O_R   0.170070 0.978950 0.027680 -0.522188
O7    O     O_R   0.001760 0.175230 0.026640 -0.501994
O8    O     O_R   0.984760 0.333570 0.037150 -0.519654
O9    O     O_R   0.183410 0.309240 0.041890 -0.501390
O10   O     O_R   0.340240 0.172500 0.045430 -0.518847
O11   O     O_R   0.309670 0.000990 0.032050 -0.499167
O12   O     O_R   0.480650 0.664000 0.464630 -0.502341
O13   O     O_R   0.168330 0.982130 0.939200 -0.519119
O14   O     O_R   0.000140 0.178170 0.944610 -0.501417
O15   O     O_R   0.983010 0.336750 0.948660 -0.519096
O16   O     O_R   0.181800 0.312190 0.959860 -0.502876
O17   O     O_R   0.338500 0.175680 0.956950 -0.518797
O18   O     O_R   0.308050 0.003930 0.950020 -0.501651
O19   O     O_3   0.164130 0.163270 0.992500 -0.236254
O20   O     O_R   0.323930 0.675950 0.455370 -0.510142
O21   O     O_R   0.354700 0.475360 0.451930 -0.481895
O22   O     O_R   0.494470 0.320860 0.448390 -0.524352
O23   O     O_R   0.662580 0.357570 0.460050 -0.506336
O24   O     O_R   0.680900 0.502040 0.551870 -0.519918
O25   O     O_R   0.481990 0.666040 0.546870 -0.503564
O26   O     O_R   0.325370 0.678160 0.544080 -0.518999
C97   C     C_1   0.927534 0.419502 0.347661 0.219895
N13   N     N_1   0.982997 0.447354 0.338295 -0.285884
C98   C     C_R   0.498058 0.187443 0.186743 0.028581
C99   C     C_R   0.503742 0.124525 0.216822 -0.092722
C100  C     C_R   0.599271 0.060587 0.236514 -0.120040
C101  C     C_R   0.689887 0.057932 0.226023 -0.101364
C102  C     C_R   0.685168 0.118924 0.195711 -0.093897
C103  C     C_R   0.589757 0.183446 0.176113 -0.093095
H43   H     H_    0.434519 0.124275 0.224790 0.128592
H44   H     H_    0.603086 0.012680 0.259768 0.119469
H45   H     H_    0.763810 0.008188 0.241203 0.109229
H46   H     H_    0.755464 0.115961 0.187285 0.126156
H47   H     H_    0.587282 0.230446 0.152726 0.111552
C104  C     C_R   0.150639 0.855284 0.156121 0.042996
C105  C     C_R   0.084917 0.936157 0.182434 -0.071653
C106  C     C_R   0.002347 0.931942 0.197702 -0.112309
C107  C     C_R   0.984440 0.847571 0.186584 -0.102701
C108  C     C_R   0.049023 0.767298 0.160139 -0.102077
C109  C     C_R   0.131673 0.771223 0.144771 -0.081883
H48   H     H_    0.097696 0.002225 0.191038 0.126544
H49   H     H_    0.952128 0.994146 0.218080 0.133897
H50   H     H_    0.920403 0.844506 0.198388 0.108769
H51   H     H_    0.034949 0.702096 0.151496 0.104046
H52   H     H_    0.181072 0.708783 0.124224 0.109037
C110  C     C_1   0.115969 0.482957 0.830549 0.214657
N14   N     N_1   0.041425 0.546415 0.815064 -0.291886
C111  C     C_1   0.188186 0.507753 0.397489 0.228406
N15   N     N_1   0.120952 0.569573 0.416136 -0.295095
C112  C     C_R   0.857438 0.471149 0.428808 0.053957
C113  C     C_R   0.918631 0.427873 0.464012 -0.071631
C114  C     C_R   0.949891 0.487007 0.491830 -0.099548
C115  C     C_R   0.920202 0.589575 0.484727 -0.087323
C116  C     C_R   0.858934 0.633298 0.449851 -0.092225
C117  C     C_R   0.827421 0.574482 0.421970 -0.062353
H53   H     H_    0.942227 0.348420 0.469793 0.099665
H54   H     H_    0.997192 0.453300 0.518880 0.108226
H55   H     H_    0.944567 0.635199 0.506267 0.108189
H56   H     H_    0.835776 0.712812 0.444440 0.109551
H57   H     H_    0.779438 0.609374 0.395172 0.108994

loop_
_geom_bond_atom_site_label_1
_geom_bond_atom_site_label_2
_ccdc_geom_bond_type
C8    C9    A    
C66   C68   A    
C87   C88   T    
C1    O20   A    
Cr6   O11   S    
Cr3   O3    S    
C41   C42   A    
C74   C94   S    
C36   C42   S    
N3    N4    A    
C45   O3    A    
C5    C98   S    
C75   C76   A    
C7    H41   S    
C98   C99   A    
C16   C97   S    
C7    C8    A    
C4    H30   S    
C114  C115  A    
C25   C28   A    
C81   H35   S    
C33   H12   S    
C108  H51   S    
C96   O18   A    
C34   O25   A    
C39   H10   S    
C93   O6    A    
C62   H31   S    
C38   C42   A    
C55   C59   A    
C115  H55   S    
C56   O24   A    
C30   C31   A    
C40   H13   S    
C16   C17   A    
C113  H53   S    
C68   C74   A    
C15   C16   A    
C99   H43   S    
C113  C114  A    
Cr5   O16   S    
C18   C19   A    
C82   H33   S    
C117  H57   S    
C83   H32   S    
C15   C112  S    
C33   C35   A    
Cr3   O5    S    
C8    H40   S    
C102  H46   S    
C40   C43   A    
Cr2   O2    S    
C53   C54   A    
C108  C109  A    
C47   C48   A    
C109  H52   S    
C104  C109  A    
Cr5   O15   S    
C106  C107  A    
C21   N5    A    
Cr4   O7    S    
C29   C30   A    
C24   C28   A    
C95   O16   A    
C85   H37   S    
C23   O23   A    
C61   C62   A    
C3    H20   S    
C61   H27   S    
C34   C75   S    
C72   C73   T    
C12   O21   A    
C107  C108  A    
Cr6   O10   S    
Cr3   O4    S    
C91   O7    A    
C105  C106  A    
C67   C78   A    
C59   C95   S    
C2    C11   S    
C92   O9    A    
C79   C88   S    
C44   C46   A    
C111  N15   T    
C54   C59   A    
C77   C79   A    
C78   C89   A    
C38   C39   A    
C12   C67   S    
C55   H21   S    
C51   N12   A    
C63   C64   A    
Cr4   O14   S    
C110  N14   T    
C65   H26   S    
C37   N9    A    
C98   C103  A    
C112  C117  A    
C76   C77   A    
Cr3   O22   S    
C115  C116  A    
C80   C81   A    
Cr1   O24   S    
C39   C43   A    
C63   C73   S    
C1    O12   A    
C25   C26   A    
C85   C86   A    
C17   C21   S    
C56   C60   S    
C46   H15   S    
C101  C102  A    
Cr6   O17   S    
Cr1   O1    S    
C14   C23   S    
Cr2   O26   S    
C2    C89   A    
Cr5   O9    S    
C97   N13   T    
C18   H4    S    
C112  C113  A    
Cr3   O23   S    
C62   C63   A    
C92   O10   A    
C94   O15   A    
Cr2   O20   S    
C19   H2    S    
C31   C32   A    
C26   H7    S    
C7    C13   A    
C69   H29   S    
C64   H25   S    
C49   H19   S    
Cr4   O19   S    
C1    C29   S    
C17   C18   A    
N10   N11   A    
C69   C74   A    
C51   C58   S    
C32   C37   S    
C84   C85   A    
Cr2   O21   S    
C90   C96   S    
C78   C111  S    
C84   H38   S    
C100  H44   S    
C70   C71   A    
C66   C71   A    
C103  H47   S    
C40   C41   A    
C30   H8    S    
C60   C65   A    
C49   C50   A    
C52   N3    A    
Cr1   O5    S    
C22   C27   A    
C55   C57   A    
C13   C92   S    
C26   C27   A    
C107  H50   S    
C22   C24   A    
C91   O8    A    
Cr5   O19   S    
C41   H14   S    
C3    C4    A    
Cr1   O12   S    
C70   H28   S    
Cr2   O5    S    
C35   H9    S    
C44   C45   S    
C86   C87   S    
C9    C10   S    
C84   C90   A    
C44   C50   A    
C102  C103  A    
C83   C90   A    
C6    H1    S    
C46   C47   A    
C47   H18   S    
C52   N2    A    
Cr4   O13   S    
C50   H16   S    
C37   N10   A    
Cr5   O8    S    
C75   C81   A    
C45   O2    A    
C14   C15   A    
C5    C9    A    
C104  C105  A    
C101  H45   S    
C4    C67   A    
C43   C93   S    
C53   C58   A    
Cr1   O25   S    
C20   C27   S    
C76   H36   S    
Cr6   O18   S    
C89   H42   S    
C29   C35   A    
C80   H34   S    
C20   N7    A    
C105  H48   S    
C96   O13   A    
C114  H54   S    
C32   C33   A    
C2    C3    A    
Cr6   O19   S    
C36   N11   A    
C100  C101  A    
C56   O4    A    
C82   C86   A    
C116  H56   S    
C94   O14   A    
C6    C13   A    
C21   N6    A    
C57   C58   A    
C5    C6    A    
C51   N4    A    
C48   C49   A    
C23   O1    A    
C64   C65   A    
C14   C19   A    
C53   C110  S    
C38   C104  S    
C34   O26   A    
C28   C91   S    
C116  C117  A    
C95   O17   A    
C69   C70   A    
C77   H39   S    
C12   O22   A    
C10   C11   T    
C79   C80   A    
C66   H24   S    
C48   C52   S    
N2    N12   A    
N8    N9    A    
C93   O11   A    
C82   C83   A    
C106  H49   S    
C20   N1    A    
C60   C61   A    
Cr4   O6    S    
C24   H3    S    
C71   C72   S    
C99   C100  A    
C54   H17   S    
C68   H23   S    
C31   H11   S    
N1    N5    A    
C36   N8    A    
C22   H5    S    
C25   H6    S    
N6    N7    A    
C57   H22   S    
