data_mof_unit_29904.cif
_audit_creation_date              2013-03-05T16:22:58-0500
_audit_creation_method            fapswitch 2.2
_symmetry_space_group_name_H-M    P1
_symmetry_Int_Tables_number       1
_space_group_crystal_system       triclinic
_cell_length_a                    15.232288
_cell_length_b                    13.816107
_cell_length_c                    10.924736
_cell_angle_alpha                 91.340359
_cell_angle_beta                  88.962518
_cell_angle_gamma                 90.325188
_cell_volume                      2298.08313824

loop_
_atom_site_label
_atom_site_type_symbol
_atom_site_description
_atom_site_fract_x
_atom_site_fract_y
_atom_site_fract_z
_atom_type_partial_charge
O1    O     O_R   0.371450 0.581430 0.500010 -0.599702
O2    O     O_R   0.371450 0.418570 0.500010 -0.572281
C1    C     C_R   0.330369 0.499445 0.496584 0.861115
O3    O     O_R   0.499980 0.581440 0.317690 -0.568090
O4    O     O_R   0.499980 0.418560 0.317690 -0.562509
C2    C     C_R   0.497843 0.499348 0.259688 0.842128
Cu1   Cu    Cu3+1 0.499990 0.596430 0.500000 1.084958
Cu2   Cu    Cu3+1 0.499990 0.403570 0.500000 1.084490
O5    O     O_R   0.628540 0.581440 0.499990 -0.551169
O6    O     O_R   0.628540 0.418560 0.499990 -0.530756
O7    O     O_R   0.500010 0.581440 0.682310 -0.513930
O8    O     O_R   0.500010 0.418560 0.682310 -0.552554
C3    C     C_R   0.671346 0.500267 0.498995 0.944249
C4    C     C_R   0.491961 0.501536 0.740172 0.946502
C5    C     C_3   0.488899 0.608248 0.078897 0.032686
C6    C     C_3   0.405837 0.448937 0.076537 0.025471
H1    H     H_    0.433323 0.641379 0.131016 0.152787
H2    H     H_    0.352954 0.500884 0.103306 0.137644
C7    C     C_3   0.470484 0.615138 0.936241 0.457237
C8    C     C_3   0.405627 0.435379 0.930830 0.502974
H3    H     H_    0.634460 0.473158 0.103836 0.223315
H4    H     H_    0.569944 0.369965 0.078203 0.267553
H5    H     H_    0.627543 0.517677 0.903030 0.270722
H6    H     H_    0.593657 0.398718 0.874600 0.251363
C9    C     C_3   0.572028 0.448680 0.062134 -0.314247
C10   C     C_3   0.491963 0.500033 0.122012 -0.249265
C11   C     C_3   0.484185 0.505314 0.878663 -0.321955
C12   C     C_3   0.573896 0.466218 0.923972 -0.405996
C13   C     C_R   0.099114 0.558000 0.414886 0.004356
C14   C     C_R   0.097167 0.428395 0.561075 -0.017742
H7    H     H_    0.064978 0.607071 0.356534 0.185986
H8    H     H_    0.061808 0.379226 0.620145 0.189032
C15   C     C_R   0.190332 0.561961 0.419584 -0.172835
C16   C     C_R   0.188220 0.428042 0.559510 -0.075896
H9    H     H_    0.226001 0.614141 0.365042 0.157577
H10   H     H_    0.221908 0.375748 0.613779 0.212201
C17   C     C_R   0.235032 0.497093 0.492344 -0.023133
C18   C     C_R   0.052097 0.492702 0.487999 0.214237
C19   C     C_R   0.906654 0.409515 0.470874 0.290070
C20   C     C_R   0.911313 0.581213 0.520797 0.303249
C21   C     C_R   0.816852 0.410363 0.502054 0.302636
C22   C     C_R   0.821723 0.586599 0.493165 0.278579
C23   C     C_R   0.770106 0.499718 0.497515 -0.367302
C24   C     C_R   0.955693 0.494460 0.492511 -0.260544
C25   C     C_R   0.543532 0.108918 0.589170 -0.225712
C26   C     C_R   0.571693 0.893972 0.541611 -0.200893
H11   H     H_    0.577641 0.073776 0.661754 0.153479
H12   H     H_    0.629066 0.931521 0.575805 0.177198
C27   C     C_R   0.542883 0.210464 0.588184 0.237443
C28   C     C_R   0.570235 0.792403 0.542261 0.230791
H13   H     H_    0.575662 0.250557 0.659639 0.173583
H14   H     H_    0.623336 0.754226 0.582547 0.180717
N1    N     N_R   0.500020 0.258690 0.500000 -0.198177
N2    N     N_R   0.500020 0.741310 0.500000 -0.184354
C29   C     C_R   0.451885 0.208057 0.416313 0.146415
C30   C     C_R   0.430202 0.788930 0.453830 0.171504
H15   H     H_    0.411766 0.246563 0.354112 0.201075
H16   H     H_    0.375147 0.748486 0.417730 0.126918
C31   C     C_R   0.451657 0.106382 0.412426 -0.214327
C32   C     C_R   0.428299 0.890504 0.452796 -0.211736
H17   H     H_    0.414969 0.069272 0.341490 0.171135
H18   H     H_    0.370428 0.925302 0.418989 0.155057
C33   C     C_R   0.498730 0.054527 0.499063 0.112566
C34   C     C_R   0.499648 0.945323 0.497420 0.107630
N3    N     N_R   0.566464 0.663709 0.120183 0.206232
O9    O     O_R   0.554776 0.739619 0.191507 -0.314809
O10   O     O_R   0.645536 0.643473 0.080799 -0.283864
N4    N     N_R   0.384802 0.360007 0.142703 0.179031
O11   O     O_R   0.310799 0.353442 0.203493 -0.330721
O12   O     O_R   0.440256 0.288848 0.146056 -0.315459
S1    S     S_3+6 0.773313 0.306616 0.575071 0.071110
O13   O     O_2   0.719820 0.247796 0.485966 -0.236229
O14   O     O_2   0.845860 0.244666 0.621258 -0.201927
O15   O     O_3   0.710830 0.343457 0.695719 -0.580285
H19   H     H_    0.716051 0.292087 0.756884 0.370512
S2    S     S_3+6 0.789371 0.695314 0.422806 0.080427
O16   O     O_2   0.772793 0.772760 0.518892 -0.266122
O17   O     O_2   0.863754 0.728252 0.341297 -0.196375
O18   O     O_3   0.701193 0.681850 0.334785 -0.481168
H20   H     H_    0.693358 0.746938 0.300802 0.413645
N5    N     N_R   0.378389 0.646262 0.915737 0.119933
O19   O     O_R   0.351131 0.657519 0.804718 -0.240865
O20   O     O_R   0.324398 0.670387 0.004938 -0.342184
N6    N     N_R   0.319240 0.465483 0.886005 0.134350
O21   O     O_R   0.308528 0.474686 0.769218 -0.354992
O22   O     O_R   0.248826 0.455015 0.954012 -0.254155
S3    S     S_3+6 0.538351 0.713931 0.869702 0.096222
O23   O     O_2   0.490997 0.757452 0.765456 -0.254232
O24   O     O_2   0.551876 0.796257 0.959821 -0.192039
O25   O     O_3   0.636976 0.674674 0.818350 -0.536898
H21   H     H_    0.671393 0.734117 0.801714 0.390649
S4    S     S_3+6 0.411793 0.306474 0.881585 0.090479
O26   O     O_2   0.342081 0.250094 0.948753 -0.158503
O27   O     O_2   0.391268 0.294061 0.748185 -0.272472
O28   O     O_3   0.509623 0.255894 0.907506 -0.558606
H22   H     H_    0.503514 0.187602 0.879176 0.377384
S5    S     S_3+6 0.953921 0.306964 0.393325 0.092754
O29   O     O_2   0.998724 0.243475 0.482652 -0.230794
O30   O     O_2   0.883689 0.249371 0.329235 -0.180823
O31   O     O_3   0.028209 0.344269 0.288560 -0.505422
H23   H     H_    0.056735 0.284308 0.256745 0.403190
S6    S     S_3+6 0.965030 0.679992 0.597183 0.096730
O32   O     O_2   0.000949 0.749699 0.505095 -0.220551
O33   O     O_2   0.900968 0.731831 0.681481 -0.185434
O34   O     O_3   0.048000 0.639462 0.681387 -0.504444
H24   H     H_    0.079806 0.698446 0.709294 0.403201

loop_
_geom_bond_atom_site_label_1
_geom_bond_atom_site_label_2
_geom_bond_distance
_ccdc_geom_bond_type
S3    O23   1.498517 D    
C29   C31   1.404396 A    
C16   C17   1.401102 A    
O28   H22   0.990492 S    
S2    O18   1.672995 S    
S5    O29   1.502813 D    
Cu1   Cu2   2.664576 S    
C19   C21   1.403713 A    
C9    C12   1.534030 S    
Cu1   O7    2.007245 S    
C8    S4    1.850758 S    
C28   N2    1.359946 A    
S2    O17   1.503435 D    
C7    S3    1.861001 S    
O4    C2    1.297177 A    
O7    C4    1.289051 A    
C19   S5    1.782403 S    
C5    N3    1.476255 S    
C13   C15   1.392047 A    
C14   C18   1.399278 A    
S6    O34   1.682639 S    
C32   H18   1.081443 S    
O5    C3    1.300187 A    
S4    O26   1.503984 D    
S5    O30   1.503076 D    
N4    O11   1.301729 A    
N3    O10   1.301311 A    
H4    C9    1.105855 S    
C13   C18   1.403720 A    
C28   H14   1.074582 S    
C6    N4    1.470866 S    
C4    C11   1.515171 S    
C7    C11   1.641875 S    
Cu2   O8    1.997607 S    
C21   S1    1.776030 S    
C25   H11   1.081777 S    
C21   C23   1.430972 A    
O3    Cu1   1.997606 S    
N5    O20   1.302298 A    
N5    O19   1.302069 A    
C26   H12   1.081680 S    
N1    C29   1.360646 A    
C6    C10   1.569383 S    
N2    C30   1.364258 A    
C31   H17   1.081458 S    
O15   H19   0.990608 S    
C14   C16   1.386784 A    
N6    O21   1.298459 A    
O3    C2    1.286729 A    
S1    O14   1.503136 D    
C5    C10   1.579218 S    
C27   H13   1.075303 S    
C9    C10   1.542032 S    
C25   C33   1.408321 A    
S4    O28   1.680926 S    
C15   C17   1.399470 A    
C30   C32   1.404122 A    
C26   C34   1.408826 A    
O1    C1    1.291057 A    
C5    C7    1.593631 S    
C18   C24   1.468715 S    
O4    Cu2   2.007243 S    
C25   C27   1.403355 A    
C6    C8    1.598491 S    
S4    O27   1.501752 D    
H5    C12   1.104451 S    
S2    O16   1.500489 D    
S6    O33   1.502603 D    
N4    O12   1.301403 A    
O8    C4    1.301437 A    
C8    N6    1.477646 S    
O18   H20   0.989536 S    
C22   C23   1.432441 A    
C3    C23   1.504198 S    
S5    O31   1.682301 S    
C5    H1    1.106863 S    
H3    C9    1.109571 S    
O1    Cu1   1.967725 S    
C22   S2    1.779292 S    
Cu2   O6    1.967860 S    
O2    Cu2   1.970064 S    
H6    C12   1.106815 S    
N6    O22   1.302958 A    
O6    C3    1.300605 A    
Cu2   N1    2.001679 S    
S1    O15   1.682521 S    
C19   C24   1.405229 A    
C8    C11   1.636532 S    
O34   H24   0.990459 S    
C26   C28   1.403516 A    
C31   C33   1.409030 A    
C32   C34   1.408900 A    
C29   H15   1.074186 S    
O2    C1    1.285400 A    
S1    O13   1.502045 D    
C13   H7    1.082874 S    
C14   H8    1.082481 S    
O25   H21   0.990445 S    
C2    C10   1.508611 S    
C27   N1    1.362381 A    
C20   C22   1.405744 A    
O31   H23   0.990479 S    
C15   H9    1.083468 S    
C30   H16   1.080456 S    
C16   H10   1.082632 S    
S6    O32   1.502793 D    
C20   S6    1.785272 S    
C33   C34   1.508610 S    
Cu1   O5    1.970197 S    
C20   C24   1.404768 A    
C1    C17   1.453927 S    
C6    H2    1.112535 S    
N3    O9    1.302942 A    
S3    O25   1.682323 S    
C11   C12   1.565087 S    
S3    O24   1.502590 D    
Cu1   N2    2.001674 S    
C7    N5    1.491885 S    
