data_mof_unit_10747.cif
_audit_creation_date              2012-12-11T15:22:32-0500
_audit_creation_method            fapswitch 2.2
_symmetry_space_group_name_H-M    P1
_symmetry_Int_Tables_number       1
_space_group_crystal_system       triclinic
_cell_length_a                    22.821238
_cell_length_b                    7.305117
_cell_length_c                    20.691966
_cell_angle_alpha                 90.000467
_cell_angle_beta                  93.358473
_cell_angle_gamma                 90.00037
_cell_volume                      3443.67067282

loop_
_atom_site_label
_atom_site_type_symbol
_atom_type_description
_atom_site_fract_x
_atom_site_fract_y
_atom_site_fract_z
_atom_type_partial_charge
O1    O     O_R   0.438030 0.494310 0.439340 -0.532511
O2    O     O_R   0.561970 0.994310 0.560660 -0.532508
O3    O     O_R   0.556900 0.822900 0.435960 -0.520041
O4    O     O_R   0.443100 0.322900 0.564040 -0.520041
C1    C     C_R   0.575475 0.655578 0.421019 0.700563
C2    C     C_R   0.424525 0.155579 0.578981 0.700539
O5    O     O_R   0.438170 0.823950 0.431660 -0.543459
O6    O     O_R   0.561830 0.323950 0.568340 -0.543445
O7    O     O_R   0.442390 0.995390 0.556340 -0.536905
O8    O     O_R   0.557610 0.495390 0.443660 -0.536902
C3    C     C_R   0.418543 0.655456 0.415957 0.702358
C4    C     C_R   0.581457 0.155457 0.584043 0.702347
O9    O     O_3   0.501520 0.661170 0.540910 -0.374046
O10   O     O_3   0.498480 0.161170 0.459090 -0.374053
V1    V     V_3+5 0.499720 0.935580 0.492410 1.551379
V2    V     V_3+5 0.500280 0.435580 0.507590 1.551407
C5    C     C_R   0.816294 0.186468 0.882689 0.495926
C6    C     C_R   0.183706 0.686483 0.117310 0.495853
C7    C     C_R   0.866607 0.083505 0.869478 -0.185148
C8    C     C_R   0.133394 0.583509 0.130520 -0.185171
C9    C     C_R   0.867675 0.986213 0.811432 -0.108572
C10   C     C_R   0.132328 0.486205 0.188564 -0.108593
C11   C     C_R   0.819670 0.990363 0.765543 0.037902
C12   C     C_R   0.180333 0.490352 0.234453 0.037937
C13   C     C_R   0.772764 0.113941 0.775136 -0.068250
C14   C     C_R   0.227240 0.613926 0.224861 -0.068168
C15   C     C_R   0.773188 0.223530 0.831753 -0.122100
C16   C     C_R   0.226817 0.723520 0.168245 -0.122100
C17   C     C_R   0.817283 0.875294 0.710150 0.399404
C18   C     C_R   0.182716 0.375291 0.289847 0.399385
C19   C     C_R   0.769615 0.888585 0.664698 -0.279693
C20   C     C_R   0.230380 0.388597 0.335304 -0.279786
C21   C     C_R   0.723884 0.011971 0.673087 0.073971
C22   C     C_R   0.276114 0.511974 0.326916 0.073941
C23   C     C_R   0.725221 0.126327 0.728259 0.031772
C24   C     C_R   0.274782 0.626309 0.271739 0.031841
C25   C     C_R   0.678161 0.248473 0.737144 -0.055740
C26   C     C_R   0.321849 0.748424 0.262850 -0.055646
C27   C     C_R   0.679086 0.359907 0.793368 0.294725
C28   C     C_R   0.320934 0.859814 0.206617 0.294729
C29   C     C_R   0.730268 0.364057 0.835722 0.326224
C30   C     C_R   0.269749 0.864012 0.164272 0.326070
C31   C     C_R   0.676368 0.020053 0.627028 -0.116955
C32   C     C_R   0.323628 0.520065 0.372977 -0.117078
C33   C     C_R   0.630765 0.145342 0.633789 -0.103943
C34   C     C_R   0.369236 0.645335 0.366211 -0.103908
C35   C     C_R   0.632279 0.260080 0.688134 -0.073257
C36   C     C_R   0.367730 0.760038 0.311858 -0.073171
H1    H     H_    0.906110 0.904805 0.803437 0.195943
H2    H     H_    0.093893 0.404795 0.196557 0.195946
H3    H     H_    0.767749 0.800941 0.622414 0.187497
H4    H     H_    0.232242 0.300968 0.377592 0.187471
H5    H     H_    0.675434 0.931232 0.584966 0.137003
H6    H     H_    0.324557 0.431264 0.415043 0.137016
H7    H     H_    0.597248 0.358491 0.691048 0.196746
H8    H     H_    0.402767 0.858430 0.308936 0.196682
C37   C     C_3   0.264123 0.194211 0.829423 -0.331391
C38   C     C_3   0.735877 0.694216 0.170577 -0.331433
C39   C     C_3   0.227910 0.916644 0.770975 -0.263239
C40   C     C_3   0.772088 0.416647 0.229021 -0.263217
C41   C     C_3   0.279720 0.929476 0.724675 -0.342750
C42   C     C_3   0.720278 0.429480 0.275321 -0.342774
H9    H     H_    0.276934 0.109846 0.872685 0.235170
H10   H     H_    0.723064 0.609852 0.127314 0.235167
H11   H     H_    0.189639 0.845225 0.746951 0.197310
H12   H     H_    0.810358 0.345226 0.253045 0.197310
H13   H     H_    0.241841 0.833188 0.814116 0.244181
H14   H     H_    0.758156 0.333192 0.185880 0.244188
H15   H     H_    0.318834 0.856455 0.744513 0.267686
H16   H     H_    0.681163 0.356461 0.255482 0.267677
H17   H     H_    0.269595 0.852298 0.679305 0.248542
H18   H     H_    0.730402 0.352299 0.320691 0.248550
C43   C     C_1   0.379614 0.146908 0.625587 -0.009215
C44   C     C_1   0.620385 0.646908 0.374412 -0.009204
C45   C     C_3   0.209353 0.109129 0.794076 -0.023158
C46   C     C_3   0.790646 0.609132 0.205923 -0.023141
C47   C     C_3   0.316052 0.212223 0.782783 0.632897
C48   C     C_3   0.683947 0.712230 0.217216 0.632903
C49   C     C_3   0.294673 0.132922 0.711493 -0.121585
C50   C     C_3   0.705326 0.632926 0.288506 -0.121582
C51   C     C_3   0.234244 0.217313 0.679514 0.593392
C52   C     C_3   0.765755 0.717314 0.320486 0.593398
C53   C     C_3   0.190708 0.234846 0.735281 -0.400565
C54   C     C_3   0.809292 0.734846 0.264719 -0.400565
C55   C     C_1   0.341766 0.140232 0.664443 0.197217
C56   C     C_1   0.658233 0.640234 0.335556 0.197206
C57   C     C_1   0.160816 0.094248 0.838944 0.032758
C58   C     C_1   0.839183 0.594250 0.161055 0.032759
C59   C     C_1   0.121587 0.083919 0.875998 -0.073711
C60   C     C_1   0.878412 0.583920 0.124001 -0.073697
H19   H     H_    0.188384 0.378058 0.752736 0.228572
H20   H     H_    0.811617 0.878059 0.247265 0.228576
H21   H     H_    0.145216 0.200477 0.716909 0.163492
H22   H     H_    0.854783 0.700475 0.283091 0.163490
H23   H     H_    0.251511 0.328254 0.850091 0.200161
H24   H     H_    0.748490 0.828260 0.149910 0.200138
O11   O     O_R   0.942420 0.735670 0.056390 -0.533621
O12   O     O_R   0.057580 0.235670 0.943610 -0.533616
O13   O     O_R   0.061840 0.404850 0.068350 -0.520291
O14   O     O_R   0.938160 0.904850 0.931650 -0.520278
C61   C     C_R   0.082033 0.573284 0.083239 0.754512
C62   C     C_R   0.917967 0.073283 0.916760 0.754489
O15   O     O_R   0.943100 0.406010 0.064050 -0.530777
O16   O     O_R   0.056900 0.906010 0.935950 -0.530784
O17   O     O_R   0.938020 0.234710 0.939330 -0.522919
O18   O     O_R   0.061980 0.734710 0.060670 -0.522916
C63   C     C_R   0.924538 0.574482 0.078822 0.749377
C64   C     C_R   0.075462 0.074482 0.921177 0.749371
O19   O     O_3   0.998500 0.567790 0.959120 -0.378870
O20   O     O_3   0.001500 0.067790 0.040880 -0.378877
V3    V     V_3+5 0.000280 0.293330 0.007580 1.646701
V4    V     V_3+5 0.999720 0.793330 0.992420 1.646702
S1    S     S_3+6 0.799009 0.209399 0.965222 0.113127
O21   O     O_2   0.825920 0.381499 0.993275 -0.313013
O22   O     O_2   0.733609 0.213991 0.970558 -0.236808
O23   O     O_3   0.826009 0.029494 0.008171 -0.499459
H25   H     H_    0.816542 0.054806 0.053428 0.355995
S2    S     S_3+6 0.200979 0.709492 0.034776 0.113131
O24   O     O_2   0.174074 0.881637 0.006753 -0.313055
O25   O     O_2   0.266378 0.714059 0.029428 -0.236790
O26   O     O_3   0.173963 0.529648 0.991804 -0.499474
H26   H     H_    0.183425 0.555006 0.946549 0.355989
S3    S     S_3+6 0.242146 0.433689 0.635055 0.034416
O27   O     O_2   0.302641 0.513818 0.642239 -0.294589
O28   O     O_2   0.229568 0.400760 0.563743 -0.323862
O29   O     O_3   0.193186 0.587649 0.659308 -0.516665
H27   H     H_    0.178482 0.652119 0.619500 0.370055
S4    S     S_3+6 0.757854 0.933690 0.364946 0.034432
O30   O     O_2   0.697359 0.013816 0.357765 -0.294576
O31   O     O_2   0.770434 0.900762 0.436258 -0.323857
O32   O     O_3   0.806814 0.087653 0.340693 -0.516660
H28   H     H_    0.821519 0.152122 0.380501 0.370057
S5    S     S_3+6 0.336837 0.449475 0.783192 0.078891
O33   O     O_2   0.283169 0.557867 0.764455 -0.359388
O34   O     O_2   0.357510 0.508719 0.850255 -0.239072
O35   O     O_3   0.390600 0.488790 0.732692 -0.462182
H29   H     H_    0.400286 0.620228 0.738232 0.396494
S6    S     S_3+6 0.663165 0.949483 0.216810 0.078754
O36   O     O_2   0.716833 0.057870 0.235549 -0.359366
O37   O     O_2   0.642493 0.008731 0.149748 -0.239267
O38   O     O_3   0.609401 0.988798 0.267310 -0.462216
H30   H     H_    0.599715 0.120234 0.261769 0.396476
N1    N     N_3   0.207337 0.090706 0.629895 -0.622573
H31   H     H_    0.172086 0.155386 0.604628 0.287602
H32   H     H_    0.186240 0.980397 0.650397 0.209000
N2    N     N_3   0.792661 0.590705 0.370103 -0.622571
H33   H     H_    0.827913 0.655383 0.395371 0.287602
H34   H     H_    0.813758 0.480395 0.349600 0.209002
S7    S     S_3+6 0.871145 0.705978 0.697255 0.045088
O39   O     O_2   0.928268 0.798372 0.685011 -0.281282
O40   O     O_2   0.879797 0.586633 0.756244 -0.329393
O41   O     O_3   0.851190 0.573811 0.633089 -0.455852
H35   H     H_    0.820445 0.491383 0.648456 0.336117
S8    S     S_3+6 0.128853 0.205978 0.302741 0.045112
O42   O     O_2   0.071730 0.298377 0.314983 -0.281276
O43   O     O_2   0.120201 0.086627 0.243752 -0.329370
O44   O     O_3   0.148802 0.073814 0.366907 -0.455811
H36   H     H_    0.179590 0.991507 0.351560 0.336048
S9    S     S_3+6 0.614787 0.482989 0.813066 0.115880
O45   O     O_2   0.607705 0.647901 0.769837 -0.321796
O46   O     O_2   0.561907 0.361621 0.802145 -0.297281
O47   O     O_3   0.617937 0.550536 0.890805 -0.382889
H37   H     H_    0.582406 0.626482 0.895015 0.419252
S10   S     S_3+6 0.385259 0.982683 0.186875 0.116090
O48   O     O_2   0.392431 0.147658 0.230058 -0.320323
O49   O     O_2   0.438085 0.861084 0.197801 -0.298533
O50   O     O_3   0.382107 0.050174 0.109126 -0.382757
H38   H     H_    0.418722 0.120434 0.104327 0.418965
S11   S     S_3+6 0.750229 0.575458 0.874800 0.172920
O51   O     O_2   0.728725 0.582091 0.941984 -0.171482
O52   O     O_2   0.815788 0.598487 0.878768 -0.307904
O53   O     O_3   0.720434 0.752553 0.832812 -0.438382
H39   H     H_    0.727668 0.725525 0.787095 0.315585
S12   S     S_3+6 0.249803 0.075461 0.125224 0.173659
O54   O     O_2   0.271293 0.082134 0.058034 -0.171118
O55   O     O_2   0.184246 0.098556 0.121276 -0.308038
O56   O     O_3   0.279628 0.252487 0.167228 -0.437608
H40   H     H_    0.272392 0.225444 0.212944 0.315455
S13   S     S_3+6 0.380388 0.088945 0.819141 0.114141
O57   O     O_2   0.362352 0.911420 0.848888 -0.264410
O58   O     O_2   0.423437 0.047359 0.768833 -0.335880
O59   O     O_3   0.415296 0.210257 0.878918 -0.385927
H41   H     H_    0.449751 0.265643 0.859440 0.424209
S14   S     S_3+6 0.619610 0.588959 0.180856 0.114280
O60   O     O_2   0.637644 0.411429 0.151110 -0.264354
O61   O     O_2   0.576560 0.547381 0.231163 -0.335745
O62   O     O_3   0.584705 0.710272 0.121079 -0.386002
H42   H     H_    0.550255 0.765683 0.140558 0.423936

loop_
_geom_bond_atom_site_label_1
_geom_bond_atom_site_label_2
_ccdc_geom_bond_type
C18   C20   A    
O29   H27   S    
S11   O51   D    
O1    C3    A    
O16   C64   A    
O2    C4    A    
S4    O30   D    
C46   C54   S    
C2    O7    A    
C9    H1    S    
C5    S1    S    
S3    O27   D    
C27   C29   A    
O18   V4    S    
O23   H25   S    
O5    C3    A    
O44   H36   S    
C51   S3    S    
C11   C17   A    
C42   C50   S    
S10   O48   D    
C23   C25   A    
C12   C14   A    
C60   C63   S    
C28   S10   S    
S7    O40   D    
C7    C62   S    
C48   C50   S    
S3    O28   D    
N1    H31   S    
C53   H21   S    
O5    V1    S    
C14   C24   A    
O12   C64   A    
S14   O60   D    
C42   H16   S    
C62   O17   A    
C40   C42   S    
C1    C44   S    
C38   H24   S    
S2    O24   D    
C20   H4    S    
C50   C56   S    
C39   H13   S    
S12   O54   D    
C31   H5    S    
S5    O35   S    
S9    O46   D    
C25   C35   A    
C46   C58   S    
C26   C36   A    
C36   H8    S    
C10   H2    S    
S1    O23   S    
C27   S9    S    
C41   H17   S    
C33   C35   A    
O17   V3    S    
C40   H12   S    
O6    V2    S    
S11   O52   D    
C47   S5    S    
C48   S6    S    
O14   C62   A    
C14   C16   A    
C51   C53   S    
C32   C34   A    
C37   H9    S    
N2    H34   S    
C47   C49   S    
C38   H10   S    
C34   C36   A    
C39   C41   S    
C38   C46   S    
C5    C15   A    
C45   C53   S    
C37   C47   S    
C6    C16   A    
S8    O44   S    
O4    C2    A    
C30   S12   S    
O19   V4    S    
C19   H3    S    
O50   H38   S    
O16   V4    S    
O11   V4    S    
O35   H29   S    
S3    O29   S    
C54   H22   S    
C8    C61   S    
C29   S11   S    
C40   C46   S    
O20   V3    S    
S2    O26   S    
C20   C22   A    
O4    V2    S    
C15   C29   A    
S9    O45   D    
C18   S8    S    
O6    C4    A    
O13   V3    S    
C19   C21   A    
S8    O42   D    
S9    O47   S    
C42   H18   S    
O1    V2    S    
C47   S13   S    
C44   C56   T    
O2    V1    S    
C31   C33   A    
S12   O56   S    
C52   S4    S    
O26   H26   S    
S1    O21   D    
S6    O37   D    
C13   C23   A    
S2    O25   D    
C45   C57   S    
O13   C61   A    
C8    C10   A    
O14   V4    S    
C52   C54   S    
C9    C11   A    
S5    O33   D    
S11   O53   S    
C10   C12   A    
S7    O41   S    
C12   C18   A    
C13   C15   A    
C52   N2    S    
C5    C7    A    
O32   H28   S    
S4    O32   S    
C39   C45   S    
C49   C55   S    
O3    V1    S    
O53   H39   S    
C2    C43   S    
C35   H7    S    
N2    H33   S    
C43   C55   T    
C41   H15   S    
C61   O18   A    
N1    H32   S    
C22   C32   A    
C6    S2    S    
O12   V3    S    
C48   S14   S    
C7    C9    A    
S8    O43   D    
S10   O50   S    
C58   C60   T    
C28   C30   A    
O3    C1    A    
S6    O38   S    
S4    O31   D    
C6    C8    A    
O15   C63   A    
C4    C33   S    
O15   V3    S    
O47   H37   S    
C53   H19   S    
C49   C51   S    
S14   O62   S    
S13   O59   S    
S10   O49   D    
O7    V1    S    
C1    O8    A    
C17   C19   A    
O8    V2    S    
S7    O39   D    
C39   H11   S    
C24   C26   A    
C26   C28   A    
C37   C45   S    
C41   C49   S    
C59   C64   S    
C16   C30   A    
C21   C23   A    
C50   C52   S    
S14   O61   D    
C22   C24   A    
C11   C13   A    
S12   O55   D    
S6    O36   D    
C38   C48   S    
C17   S7    S    
S13   O57   D    
O11   C63   A    
C32   H6    S    
C51   N1    S    
O41   H35   S    
C40   H14   S    
C25   C27   A    
O56   H40   S    
C37   H23   S    
O9    V2    S    
S5    O34   D    
C57   C59   T    
O10   V1    S    
C3    C34   S    
O62   H42   S    
C54   H20   S    
S1    O22   D    
O38   H30   S    
C21   C31   A    
O59   H41   S    
S13   O58   D    
