data_mof_unit_56932.cif
_audit_creation_date              2012-12-10T17:22:43-0500
_audit_creation_method            fapswitch 2.2
_symmetry_space_group_name_H-M    P1
_symmetry_Int_Tables_number       1
_space_group_crystal_system       triclinic
_cell_length_a                    10.704709
_cell_length_b                    10.871202
_cell_length_c                    9.668842
_cell_angle_alpha                 92.000971
_cell_angle_beta                  90.038493
_cell_angle_gamma                 96.421552
_cell_volume                      1117.43945631

loop_
_atom_site_label
_atom_site_type_symbol
_atom_type_description
_atom_site_fract_x
_atom_site_fract_y
_atom_site_fract_z
_atom_type_partial_charge
C1    C     C_R   0.505550 0.263598 0.497843 0.840498
C2    C     C_3   0.955069 0.470755 0.371916 -0.132996
C3    C     C_3   0.026464 0.383489 0.457059 0.317454
C4    C     C_3   0.121726 0.493248 0.501675 -0.025913
C5    C     C_R   0.639952 0.144557 0.708635 -0.171583
C6    C     C_R   0.662215 0.097032 0.835941 -0.167596
C7    C     C_R   0.605752 0.980471 0.866935 0.291242
C8    C     C_R   0.539800 0.904770 0.764902 -0.189546
C9    C     C_R   0.525460 0.948139 0.629620 -0.015180
C10   C     C_R   0.560251 0.075358 0.610675 0.089874
C11   C     C_R   0.513995 0.130778 0.494968 -0.170793
C12   C     C_R   0.259221 0.496353 0.500132 0.826389
C13   C     C_R   0.461968 0.057666 0.383791 -0.221749
C14   C     C_R   0.451280 0.929318 0.388455 0.455751
C15   C     C_R   0.482503 0.872068 0.511082 -0.231229
C16   C     C_R   0.705154 0.655546 0.137640 0.439736
C17   C     C_R   0.808251 0.701857 0.048177 0.374044
C18   C     C_R   0.792615 0.691407 0.906578 -0.333482
C19   C     C_R   0.679832 0.647508 0.851746 -0.181127
C20   C     C_R   0.590668 0.574837 0.925904 0.128166
C21   C     C_R   0.596740 0.575564 0.075407 0.058395
C22   C     C_R   0.414702 0.425674 0.069216 0.320867
C23   C     C_R   0.491169 0.736966 0.503289 0.847335
C24   C     C_R   0.414735 0.426684 0.922579 -0.067963
C25   C     C_R   0.740373 0.498765 0.500220 0.790636
C26   C     C_3   0.043644 0.517875 0.631074 -0.169040
C27   C     C_3   0.946481 0.407605 0.585666 -0.189578
C28   C     C_3   0.877269 0.496177 0.501151 -0.027523
C29   C     C_3   0.972129 0.606367 0.547365 -0.187984
C30   C     C_3   0.051730 0.581463 0.417980 -0.213287
Cu1   Cu    Cu3+1 0.499990 0.499990 0.640660 0.936505
Cu2   Cu    Cu3+1 0.500010 0.500010 0.359340 1.045859
H1    H     H_    0.901832 0.335972 0.654500 0.148918
H2    H     H_    0.494775 0.817061 0.797179 0.189643
H3    H     H_    0.865921 0.727550 0.836947 0.157375
H4    H     H_    0.669258 0.667992 0.746864 0.225582
H5    H     H_    0.345166 0.365731 0.864616 0.170202
H6    H     H_    0.081280 0.537309 0.737596 0.161589
H7    H     H_    0.950740 0.697969 0.588235 0.134985
H8    H     H_    0.095732 0.652501 0.348525 0.155036
H9    H     H_    0.917554 0.451394 0.265341 0.163736
H10   H     H_    0.432681 0.099961 0.291140 0.213325
H11   H     H_    0.684061 0.236529 0.688335 0.156058
H12   H     H_    0.718171 0.153435 0.912825 0.165974
N1    N     N_R   0.501210 0.501210 0.147910 -0.204222
N2    N     N_R   0.501250 0.501290 0.852040 -0.210182
O1    O     O_R   0.499990 0.319640 0.618810 -0.581993
O2    O     O_R   0.500000 0.319660 0.381240 -0.545625
O3    O     O_R   0.316850 0.499960 0.618770 -0.595144
O4    O     O_R   0.316860 0.499980 0.381190 -0.548877
O5    O     O_R   0.500000 0.680340 0.618760 -0.643906
O6    O     O_R   0.500010 0.680360 0.381190 -0.448562
O7    O     O_R   0.683140 0.500020 0.618810 -0.614553
O8    O     O_R   0.683150 0.500040 0.381230 -0.544529
Br1   Br    Br    0.616709 0.929563 0.051163 -0.567545
O9    O     O_3   0.426261 0.859843 0.267382 -0.509918
C31   C     C_3   0.297756 0.851428 0.234844 0.083596
H13   H     H_    0.237871 0.832098 0.327580 0.102523
H14   H     H_    0.276548 0.938949 0.188794 0.175897
C32   C     C_3   0.268359 0.745578 0.128454 -0.733601
H15   H     H_    0.296228 0.658470 0.169285 0.268496
H16   H     H_    0.166406 0.731571 0.105663 0.228589
H17   H     H_    0.320514 0.766347 0.031203 0.249976
Br2   Br    Br    0.293969 0.308231 0.151156 -0.500660
O10   O     O_3   0.700453 0.696717 0.276530 -0.526350
C33   C     C_3   0.799466 0.785980 0.323956 0.149588
H18   H     H_    0.805941 0.867512 0.257995 0.222782
H19   H     H_    0.887781 0.742249 0.329734 0.186368
C34   C     C_3   0.779265 0.836951 0.469101 -0.861144
H20   H     H_    0.741287 0.762829 0.537937 0.233075
H21   H     H_    0.870252 0.880693 0.512622 0.212133
H22   H     H_    0.717932 0.911651 0.464571 0.258840
O11   O     O_3   0.924331 0.756586 0.098744 -0.636229
C35   C     C_3   0.966878 0.869352 0.033369 -0.002615
H23   H     H_    0.892305 0.910045 0.975294 0.184582
H24   H     H_    0.042573 0.851165 0.959330 0.166541
C36   C     C_3   0.019379 0.968121 0.140374 -0.758001
H25   H     H_    0.094895 0.031720 0.093612 0.248973
H26   H     H_    0.944323 0.024284 0.176016 0.265026
H27   H     H_    0.056964 0.925249 0.231642 0.247793
Br3   Br    Br    0.062194 0.218284 0.402457 -0.559727

loop_
_geom_bond_atom_site_label_1
_geom_bond_atom_site_label_2
_ccdc_geom_bond_type
C8    C9    A    
C14   O9    S    
C16   C21   A    
Cu2   N1    S    
C33   H19   S    
C19   C20   A    
C1    C11   S    
C7    Br1   S    
C12   O3    A    
C31   H13   S    
C7    C8    A    
C36   H25   S    
C27   H1    S    
C25   C28   S    
C26   C27   S    
C35   H24   S    
C32   H17   S    
C28   C29   S    
C25   O7    A    
C19   H4    S    
C5    C6    A    
C31   H14   S    
C33   C34   S    
C2    H9    S    
O9    C31   S    
C32   H16   S    
C18   C19   A    
O11   C35   S    
C34   H21   S    
Cu2   O6    S    
C23   O5    A    
C16   C17   A    
Cu1   N2    S    
C3    Br3   S    
C4    C12   S    
C18   H3    S    
C15   C23   S    
C33   H18   S    
C5    H11   S    
Cu1   O1    S    
C13   C14   A    
C17   O11   S    
Cu2   O2    S    
Cu1   O3    S    
Cu2   O8    S    
C13   H10   S    
C24   H5    S    
C21   N1    A    
C36   H26   S    
C35   H23   S    
C25   O8    A    
C26   H6    S    
C31   C32   S    
C35   C36   S    
C32   H15   S    
C34   H22   S    
C29   C30   S    
C12   O4    A    
Cu1   Cu2   S    
C29   H7    S    
C17   C18   A    
C30   H8    S    
C8    H2    S    
Cu1   O7    S    
Cu2   O4    S    
C22   C24   A    
C3    C4    S    
C6    H12   S    
C9    C10   A    
C36   H27   S    
C1    O1    A    
Cu1   O5    S    
C4    C26   S    
C1    O2    A    
C6    C7    A    
C2    C30   S    
C24   N2    A    
C3    C27   S    
C2    C3    S    
C9    C15   A    
C5    C10   A    
C11   C13   A    
C23   O6    A    
C34   H20   S    
C4    C30   S    
C10   C11   A    
C22   Br2   S    
C22   N1    A    
C20   C21   A    
C26   C29   S    
O10   C33   S    
C27   C28   S    
C14   C15   A    
C2    C28   S    
C16   O10   S    
C20   N2    A    
