data_mof_unit_62371.cif
_audit_creation_date              2012-12-10T18:40:14-0500
_audit_creation_method            fapswitch 2.2
_symmetry_space_group_name_H-M    P1
_symmetry_Int_Tables_number       1
_space_group_crystal_system       triclinic
_cell_length_a                    30.331884
_cell_length_b                    30.158284
_cell_length_c                    24.582583
_cell_angle_alpha                 89.83722
_cell_angle_beta                  128.19633
_cell_angle_gamma                 89.962569
_cell_volume                      17672.3819203

loop_
_atom_site_label
_atom_site_type_symbol
_atom_type_description
_atom_site_fract_x
_atom_site_fract_y
_atom_site_fract_z
_atom_type_partial_charge
C1    C     C_R   0.810766 0.810674 0.500309 1.024473
C2    C     C_R   0.527758 0.743263 0.069975 0.364849
C3    C     C_3   0.821777 0.108142 0.465038 -0.232746
C4    C     C_3   0.652476 0.608441 0.565512 0.447449
C5    C     C_3   0.351597 0.613913 0.432548 0.439898
C6    C     C_3   0.152476 0.108441 0.565512 0.447450
C7    C     C_3   0.851596 0.113912 0.432547 0.439900
C8    C     C_3   0.635180 0.657457 0.545213 -0.192050
C9    C     C_3   0.370862 0.661232 0.461633 -0.201836
C10   C     C_3   0.135179 0.157457 0.545212 -0.192049
C11   C     C_3   0.870862 0.161232 0.461632 -0.201840
C12   C     C_3   0.658221 0.655193 0.503982 -0.314213
C13   C     C_R   0.960193 0.243987 0.930231 0.357927
C14   C     C_3   0.341314 0.655654 0.494651 -0.296586
C15   C     C_3   0.158221 0.155193 0.503982 -0.314211
C16   C     C_3   0.841314 0.155654 0.494651 -0.296587
C17   C     C_R   0.439402 0.561117 0.499872 1.043316
C18   C     C_R   0.561056 0.560502 0.499948 1.046790
C19   C     C_R   0.939402 0.061117 0.499872 1.043317
C20   C     C_R   0.061056 0.060502 0.499948 1.046788
C21   C     C_R   0.939783 0.938438 0.499993 0.977296
C22   C     C_R   0.059925 0.938120 0.500165 0.977566
C23   C     C_R   0.439783 0.438438 0.499993 0.977296
C24   C     C_R   0.027754 0.243267 0.069978 0.364854
C25   C     C_R   0.559925 0.438120 0.500165 0.977565
C26   C     C_R   0.817592 0.750133 0.634771 0.955465
C27   C     C_R   0.183213 0.749603 0.365545 0.960121
C28   C     C_R   0.317592 0.250133 0.634771 0.955464
C29   C     C_R   0.683213 0.249603 0.365545 0.960119
C30   C     C_R   0.618937 0.787662 0.251086 0.529872
C31   C     C_R   0.375757 0.787993 0.748575 0.527049
C32   C     C_R   0.118961 0.287665 0.251089 0.529853
C33   C     C_R   0.875784 0.287993 0.748578 0.527071
C34   C     C_R   0.580962 0.784802 0.178890 -0.270780
C35   C     C_3   0.884439 0.875783 0.561454 -0.189706
C36   C     C_R   0.408668 0.785428 0.820731 -0.264456
C37   C     C_R   0.080985 0.284807 0.178892 -0.270775
C38   C     C_R   0.908692 0.285429 0.820733 -0.264463
C39   C     C_R   0.564851 0.743495 0.145782 -0.062474
C40   C     C_R   0.423233 0.744225 0.854512 -0.063686
C41   C     C_R   0.064847 0.243500 0.145784 -0.062475
C42   C     C_R   0.923229 0.244228 0.854514 -0.063688
C43   C     C_R   0.586950 0.703962 0.185574 -0.016551
C44   C     C_R   0.403070 0.704573 0.815445 -0.017140
C45   C     C_R   0.086923 0.203965 0.185576 -0.016545
C46   C     C_3   0.114573 0.875765 0.438161 -0.189026
C47   C     C_R   0.903039 0.204577 0.815447 -0.017146
C48   C     C_R   0.627127 0.707230 0.257469 -0.280266
C49   C     C_R   0.369406 0.707512 0.743343 -0.282290
C50   C     C_R   0.127103 0.207231 0.257471 -0.280266
C51   C     C_R   0.869378 0.207514 0.743345 -0.282286
C52   C     C_3   0.593403 0.851508 0.274831 -0.242100
C53   C     C_3   0.404101 0.850998 0.727047 -0.241908
C54   C     C_3   0.093469 0.351537 0.274833 -0.242091
C55   C     C_3   0.904174 0.350967 0.727048 -0.241919
C56   C     C_3   0.751218 0.922738 0.352523 -0.144747
C57   C     C_3   0.384439 0.375783 0.561454 -0.189709
C58   C     C_3   0.248813 0.923944 0.645393 -0.151772
C59   C     C_3   0.251218 0.422737 0.352520 -0.144756
C60   C     C_3   0.748813 0.423944 0.645393 -0.151754
C61   C     C_3   0.781307 0.824579 0.723143 -0.255291
C62   C     C_3   0.243936 0.788974 0.280675 -0.210785
C63   C     C_3   0.281302 0.324572 0.723144 -0.255288
C64   C     C_3   0.743935 0.288977 0.280676 -0.210781
C65   C     C_2   0.014434 0.736665 0.845607 0.957948
C66   C     C_2   0.990332 0.741957 0.144921 0.942618
C67   C     C_2   0.514436 0.236678 0.845605 0.957952
C68   C     C_3   0.614574 0.375765 0.438161 -0.189023
C69   C     C_2   0.490332 0.241953 0.144921 0.942616
C70   C     C_2   0.521771 0.663346 0.452730 0.977482
C71   C     C_2   0.482699 0.662068 0.564520 0.979006
C72   C     C_2   0.021770 0.163345 0.452729 0.977481
C73   C     C_2   0.982698 0.162069 0.564519 0.979006
C74   C     C_3   0.520827 0.648570 0.323966 -0.254255
C75   C     C_3   0.468187 0.634968 0.679642 -0.240585
C76   C     C_3   0.020827 0.148570 0.323965 -0.254240
C77   C     C_3   0.968188 0.134969 0.679642 -0.240608
C78   C     C_3   0.618161 0.566135 0.370975 -0.140443
C79   C     C_3   0.860999 0.913709 0.508275 0.415002
C80   C     C_3   0.356256 0.557545 0.599498 -0.188248
C81   C     C_3   0.118162 0.066135 0.370976 -0.140422
C82   C     C_3   0.856257 0.057545 0.599498 -0.188237
C83   C     C_2   0.729675 0.583727 0.549446 0.975980
C84   C     C_2   0.265275 0.586694 0.427806 0.910777
C85   C     C_2   0.229675 0.083728 0.549447 0.975979
C86   C     C_2   0.765276 0.086693 0.427807 0.910779
C87   C     C_3   0.724561 0.612268 0.683940 -0.139735
C88   C     C_3   0.277211 0.614796 0.314557 -0.133770
C89   C     C_3   0.224561 0.112269 0.683940 -0.139735
C90   C     C_3   0.137686 0.914052 0.490306 0.414323
C91   C     C_3   0.777210 0.114795 0.314557 -0.133768
C92   C     C_2   0.643713 0.692661 0.594031 0.969717
C93   C     C_2   0.368003 0.701581 0.423363 0.993368
C94   C     C_2   0.143711 0.192661 0.594030 0.969719
C95   C     C_2   0.868001 0.201580 0.423362 0.993370
C96   C     C_2   0.567495 0.658978 0.155023 0.932663
C97   C     C_2   0.413196 0.659867 0.846920 0.940252
C98   C     C_2   0.067438 0.158984 0.155026 0.932660
C99   C     C_2   0.913134 0.159875 0.846922 0.940257
C100  C     C_3   0.805821 0.954969 0.524417 -0.183795
C101  C     C_3   0.360998 0.413709 0.508274 0.414999
C102  C     C_3   0.188743 0.958661 0.470969 -0.198244
C103  C     C_3   0.305819 0.454969 0.524414 -0.183799
C104  C     C_3   0.688742 0.458661 0.470969 -0.198237
C105  C     C_2   0.896045 0.877624 0.630270 0.939674
C106  C     C_2   0.102126 0.877133 0.368829 0.942472
C107  C     C_2   0.396043 0.377625 0.630270 0.939674
C108  C     C_2   0.602126 0.377133 0.368829 0.942470
C109  C     C_2   0.989001 0.853465 0.612064 0.996410
C110  C     C_2   0.011213 0.852606 0.390160 0.998528
C111  C     C_2   0.489001 0.353466 0.612065 0.996412
C112  C     C_R   0.189336 0.810759 0.499836 1.025261
C113  C     C_3   0.637686 0.414052 0.490306 0.414328
C114  C     C_2   0.511213 0.352606 0.390159 0.998528
C115  C     C_2   0.856732 0.867551 0.372206 0.984955
C116  C     C_2   0.145218 0.868227 0.629359 0.983020
C117  C     C_2   0.356733 0.367551 0.372207 0.984962
C118  C     C_2   0.645217 0.368227 0.629359 0.983012
C119  C     C_3   0.906542 0.904158 0.499887 -0.236307
C120  C     C_3   0.093305 0.903914 0.500472 -0.229399
C121  C     C_3   0.406542 0.404159 0.499887 -0.236308
C122  C     C_3   0.593305 0.403914 0.500472 -0.229396
C123  C     C_3   0.929681 0.865898 0.552802 -0.113212
C124  C     C_3   0.070447 0.865444 0.448525 -0.117525
C125  C     C_3   0.429680 0.365898 0.552803 -0.113213
C126  C     C_3   0.570447 0.365444 0.448525 -0.117524
C127  C     C_3   0.890140 0.833296 0.493043 -0.268583
C128  C     C_R   0.310766 0.310674 0.500309 1.024485
C129  C     C_3   0.111296 0.833386 0.508991 -0.271463
C130  C     C_3   0.390140 0.333296 0.493044 -0.268584
C131  C     C_3   0.611296 0.333386 0.508991 -0.271463
C132  C     C_3   0.866832 0.871746 0.439896 -0.145546
C133  C     C_3   0.134430 0.872136 0.561172 -0.147641
C134  C     C_3   0.366833 0.371745 0.439897 -0.145547
C135  C     C_3   0.634430 0.372136 0.561172 -0.147642
C136  C     C_3   0.821739 0.881768 0.448236 0.393225
C137  C     C_3   0.178437 0.882634 0.551069 0.396454
C138  C     C_3   0.321739 0.381768 0.448236 0.393235
C139  C     C_R   0.689336 0.310759 0.499836 1.025245
C140  C     C_3   0.678437 0.382634 0.551069 0.396440
C141  C     C_3   0.844921 0.844008 0.501358 -0.188062
C142  C     C_3   0.155426 0.844407 0.498949 -0.186391
C143  C     C_3   0.344921 0.344008 0.501358 -0.188063
C144  C     C_3   0.655426 0.344407 0.498949 -0.186390
C145  C     C_R   0.682728 0.750133 0.365479 0.943923
C146  C     C_R   0.317232 0.749915 0.634498 0.947607
C147  C     C_R   0.182729 0.250133 0.365479 0.943943
C148  C     C_R   0.817232 0.249915 0.634499 0.947585
C149  C     C_R   0.842243 0.768619 0.749841 0.523058
C150  C     C_R   0.643078 0.748572 0.290096 -0.143556
C151  C     C_R   0.168995 0.749640 0.254589 0.501512
C152  C     C_R   0.342242 0.268615 0.749842 0.523056
C153  C     C_R   0.668996 0.249641 0.254589 0.501511
C154  C     C_R   0.881938 0.769777 0.821861 -0.267599
C155  C     C_R   0.132718 0.747217 0.182365 -0.265596
C156  C     C_R   0.381937 0.269774 0.821861 -0.267600
C157  C     C_R   0.632719 0.247218 0.182365 -0.265594
C158  C     C_R   0.937956 0.757756 0.855158 -0.066844
C159  C     C_R   0.074518 0.746446 0.145540 -0.063769
C160  C     C_R   0.437956 0.257756 0.855157 -0.066847
C161  C     C_R   0.355230 0.748708 0.709968 -0.145345
C162  C     C_R   0.574518 0.246446 0.145540 -0.063769
C163  C     C_R   0.954921 0.744692 0.815274 -0.023586
C164  C     C_R   0.051637 0.745625 0.181198 -0.022911
C165  C     C_R   0.454922 0.244697 0.815273 -0.023592
C166  C     C_R   0.551637 0.245623 0.181198 -0.022910
C167  C     C_R   0.914245 0.741045 0.743462 -0.268860
C168  C     C_R   0.088360 0.746595 0.253652 -0.280475
C169  C     C_R   0.414246 0.241050 0.743461 -0.268859
C170  C     C_R   0.588361 0.246593 0.253651 -0.280473
C171  C     C_R   0.858115 0.752533 0.710532 -0.159778
C172  C     C_R   0.143079 0.248573 0.290097 -0.143544
C173  C     C_R   0.146440 0.748695 0.290135 -0.149519
C174  C     C_R   0.358115 0.252533 0.710532 -0.159780
C175  C     C_R   0.646440 0.248695 0.290135 -0.149521
C176  C     C_R   0.039262 0.749311 0.070271 0.376630
C177  C     C_R   0.975713 0.756027 0.931146 0.364935
C178  C     C_R   0.539263 0.249311 0.070271 0.376630
C179  C     C_R   0.475713 0.256028 0.931146 0.364943
C180  C     C_3   0.600049 0.641153 0.438326 0.425148
C181  C     C_3   0.396050 0.637498 0.561479 0.441861
C182  C     C_3   0.100049 0.141153 0.438326 0.425145
C183  C     C_R   0.855230 0.248709 0.709969 -0.145363
C184  C     C_3   0.896050 0.137498 0.561479 0.441867
C185  C     C_3   0.577059 0.643280 0.479295 -0.221845
C186  C     C_3   0.425410 0.642704 0.528509 -0.251120
C187  C     C_3   0.077058 0.143280 0.479295 -0.221845
C188  C     C_3   0.925410 0.142704 0.528508 -0.251118
C189  C     C_3   0.594625 0.594294 0.500135 -0.249554
C190  C     C_3   0.405947 0.595369 0.499245 -0.262487
C191  C     C_3   0.094625 0.094294 0.500135 -0.249554
C192  C     C_3   0.905947 0.095369 0.499245 -0.262486
C193  C     C_R   0.690565 0.689168 0.502240 1.004089
C194  C     C_R   0.460197 0.743983 0.930229 0.357925
C195  C     C_R   0.308965 0.689293 0.496838 1.006774
C196  C     C_R   0.190565 0.189168 0.502240 1.004088
C197  C     C_R   0.808964 0.189293 0.496838 1.006773
C198  C     C_3   0.617613 0.592380 0.459229 0.375682
C199  C     C_3   0.376458 0.590404 0.532251 0.386882
C200  C     C_3   0.117613 0.092380 0.459229 0.375679
C201  C     C_3   0.876458 0.090404 0.532251 0.386879
C202  C     C_3   0.675680 0.605908 0.524784 -0.234557
C203  C     C_3   0.321777 0.608142 0.465037 -0.232744
C204  C     C_3   0.175680 0.105908 0.524784 -0.234558
H1    H     H_    0.868313 0.778830 0.852002 0.176738
H2    H     H_    0.422973 0.815747 0.850611 0.164351
H3    H     H_    0.246989 0.129861 0.667622 0.132774
H4    H     H_    0.254834 0.088841 0.725906 0.191505
H5    H     H_    0.771974 0.121513 0.266470 0.196864
H6    H     H_    0.765539 0.145701 0.327738 0.164325
H7    H     H_    0.747684 0.087879 0.303099 0.164248
H8    H     H_    0.680186 0.750065 0.643373 0.363094
H9    H     H_    0.385983 0.766424 0.427568 0.333338
H10   H     H_    0.180181 0.250066 0.643369 0.363088
H11   H     H_    0.885981 0.266424 0.427565 0.333339
H12   H     H_    0.585476 0.593688 0.163352 0.354122
H13   H     H_    0.065383 0.315026 0.148373 0.164919
H14   H     H_    0.421621 0.594170 0.839996 0.355060
H15   H     H_    0.085377 0.093686 0.163356 0.354118
H16   H     H_    0.921514 0.094170 0.839998 0.355062
H17   H     H_    0.826073 0.949272 0.579904 0.152689
H18   H     H_    0.773152 0.929386 0.492470 0.168380
H19   H     H_    0.783686 0.987251 0.509412 0.206032
H20   H     H_    0.169222 0.949561 0.416726 0.165940
H21   H     H_    0.225399 0.936854 0.507431 0.172056
H22   H     H_    0.204934 0.992916 0.479084 0.203229
H23   H     H_    0.326070 0.449272 0.579901 0.152689
H24   H     H_    0.923018 0.315749 0.850614 0.164355
H25   H     H_    0.273150 0.429387 0.492465 0.168375
H26   H     H_    0.283685 0.487251 0.509410 0.206034
H27   H     H_    0.669222 0.449562 0.416725 0.165939
H28   H     H_    0.725399 0.436853 0.507430 0.172062
H29   H     H_    0.704934 0.492916 0.479084 0.203228
H30   H     H_    0.881123 0.852573 0.693558 0.333546
H31   H     H_    0.117077 0.851996 0.305706 0.342204
H32   H     H_    0.381121 0.352574 0.693556 0.333548
H33   H     H_    0.617077 0.351996 0.305706 0.342204
H34   H     H_    0.071166 0.867705 0.670191 0.360821
H35   H     H_    0.644456 0.677344 0.288790 0.209116
H36   H     H_    0.929135 0.867617 0.330365 0.361964
H37   H     H_    0.571166 0.367706 0.670192 0.360821
H38   H     H_    0.429135 0.367618 0.330363 0.361963
H39   H     H_    0.833302 0.897212 0.284272 0.341248
H40   H     H_    0.168181 0.898368 0.716483 0.341852
H41   H     H_    0.333303 0.397210 0.284272 0.341247
H42   H     H_    0.668180 0.398367 0.716483 0.341853
H43   H     H_    0.352955 0.677521 0.712585 0.207693
H44   H     H_    0.144414 0.177345 0.288793 0.209110
H45   H     H_    0.852908 0.177523 0.712588 0.207700
H46   H     H_    0.901747 0.799644 0.487415 0.219064
H47   H     H_    0.100763 0.799672 0.516035 0.219692
H48   H     H_    0.401748 0.299644 0.487417 0.219064
H49   H     H_    0.149958 0.746785 0.154732 0.172513
H50   H     H_    0.600763 0.299672 0.516035 0.219691
H51   H     H_    0.610884 0.881025 0.308905 0.194833
H52   H     H_    0.572335 0.830855 0.290331 0.162068
H53   H     H_    0.562422 0.863576 0.220756 0.150589
H54   H     H_    0.388306 0.881087 0.693846 0.197900
H55   H     H_    0.425887 0.830159 0.712795 0.163942
H56   H     H_    0.434134 0.862067 0.781689 0.146952
H57   H     H_    0.110970 0.381052 0.308908 0.194843
H58   H     H_    0.072385 0.330902 0.290328 0.162060
H59   H     H_    0.062498 0.363608 0.220758 0.150583
H60   H     H_    0.368311 0.278824 0.852002 0.176736
H61   H     H_    0.888403 0.381057 0.693851 0.197889
H62   H     H_    0.925940 0.330106 0.712789 0.163955
H63   H     H_    0.934220 0.362031 0.781691 0.146958
H64   H     H_    0.744584 0.910719 0.305370 0.195864
H65   H     H_    0.783709 0.949212 0.377442 0.200735
H66   H     H_    0.711341 0.938114 0.335806 0.178876
H67   H     H_    0.255154 0.911631 0.692331 0.200377
H68   H     H_    0.216352 0.950598 0.620181 0.194921
H69   H     H_    0.288821 0.939166 0.662535 0.180109
H70   H     H_    0.244584 0.410717 0.305369 0.195877
H71   H     H_    0.649959 0.246787 0.154732 0.172515
H72   H     H_    0.283708 0.449211 0.377439 0.200735
H73   H     H_    0.211340 0.438112 0.335803 0.178845
H74   H     H_    0.755154 0.411632 0.692331 0.200363
H75   H     H_    0.716352 0.450598 0.620180 0.194918
H76   H     H_    0.788820 0.439167 0.662534 0.180147
H77   H     H_    0.736028 0.832845 0.691417 0.190567
H78   H     H_    0.798996 0.844152 0.702216 0.165594
H79   H     H_    0.801160 0.834541 0.777282 0.157175
H80   H     H_    0.290419 0.790055 0.316597 0.195732
H81   H     H_    0.228537 0.818102 0.292449 0.151786
H82   H     H_    0.926803 0.730897 0.712550 0.223975
H83   H     H_    0.230384 0.791448 0.227178 0.157380
H84   H     H_    0.236022 0.332835 0.691419 0.190563
H85   H     H_    0.298989 0.344147 0.702217 0.165595
H86   H     H_    0.301153 0.334533 0.777283 0.157174
H87   H     H_    0.790418 0.290058 0.316597 0.195730
H88   H     H_    0.728536 0.318104 0.292451 0.151787
H89   H     H_    0.730383 0.291452 0.227179 0.157380
H90   H     H_    0.069180 0.704075 0.839158 0.360704
H91   H     H_    0.914623 0.720540 0.061687 0.354983
H92   H     H_    0.569185 0.204101 0.839150 0.360708
H93   H     H_    0.071777 0.745658 0.282066 0.218652
H94   H     H_    0.414625 0.220535 0.061687 0.354982
H95   H     H_    0.440677 0.653217 0.409921 0.357590
H96   H     H_    0.532191 0.715839 0.609716 0.373813
H97   H     H_    0.940677 0.153217 0.409920 0.357590
H98   H     H_    0.032190 0.215840 0.609714 0.373810
H99   H     H_    0.493734 0.672895 0.324663 0.200169
H100  H     H_    0.511281 0.614333 0.331050 0.179638
H101  H     H_    0.510022 0.650190 0.271868 0.190116
H102  H     H_    0.501445 0.656154 0.687225 0.193347
H103  H     H_    0.473587 0.600063 0.670004 0.181017
H104  H     H_    0.426804 0.230906 0.712549 0.223981
H105  H     H_    0.473934 0.635218 0.728805 0.203768
H106  H     H_    0.993734 0.172895 0.324661 0.200172
H107  H     H_    0.011282 0.114332 0.331049 0.179634
H108  H     H_    0.010023 0.150189 0.271868 0.190120
H109  H     H_    0.001445 0.156154 0.687224 0.193350
H110  H     H_    0.973588 0.100063 0.670004 0.181024
H111  H     H_    0.973935 0.135218 0.728805 0.203727
H112  H     H_    0.651619 0.591410 0.391016 0.189638
H113  H     H_    0.579319 0.577633 0.320823 0.174475
H114  H     H_    0.632200 0.535525 0.360759 0.176906
H115  H     H_    0.571777 0.245656 0.282066 0.218651
H116  H     H_    0.310864 0.565006 0.560198 0.141700
H117  H     H_    0.376708 0.583581 0.639755 0.192824
H118  H     H_    0.360083 0.526279 0.625930 0.185665
H119  H     H_    0.151620 0.091410 0.391016 0.189639
H120  H     H_    0.079320 0.077632 0.320823 0.174482
H121  H     H_    0.132202 0.035525 0.360761 0.176905
H122  H     H_    0.810864 0.065004 0.560198 0.141701
H123  H     H_    0.876707 0.083582 0.639753 0.192817
H124  H     H_    0.860085 0.026280 0.625933 0.185664
H125  H     H_    0.784071 0.569142 0.530764 0.334522
H126  H     H_    0.565342 0.815020 0.148370 0.164921
H127  H     H_    0.182950 0.593387 0.381823 0.337461
H128  H     H_    0.284071 0.069142 0.530765 0.334520
H129  H     H_    0.682951 0.093385 0.381826 0.337462
H130  H     H_    0.711897 0.636374 0.706013 0.175037
H131  H     H_    0.746990 0.629860 0.667622 0.132775
H132  H     H_    0.754834 0.588840 0.725906 0.191507
H133  H     H_    0.271975 0.621513 0.266470 0.196862
H134  H     H_    0.265539 0.645702 0.327737 0.164331
H135  H     H_    0.247685 0.587880 0.303099 0.164246
H136  H     H_    0.211897 0.136375 0.706013 0.175038
N1    N     N_R   0.538754 0.716384 0.035505 -0.124991
N2    N     N_R   0.000600 0.782111 0.035997 -0.142282
N3    N     N_R   0.514421 0.223181 0.965647 -0.135309
N4    N     N_R   0.500598 0.282110 0.035997 -0.142281
N5    N     N_R   0.046113 0.720139 0.034185 -0.143206
N6    N     N_R   0.969177 0.785281 0.967536 -0.159590
N7    N     N_R   0.546115 0.220141 0.034184 -0.143206
N8    N     N_R   0.469175 0.285280 0.967536 -0.159590
N9    N     N_R   0.505471 0.716697 0.966734 -0.132592
N10   N     N_R   0.038732 0.216370 0.035507 -0.124993
N11   N     N_R   0.005449 0.216683 0.966736 -0.132595
N12   N     N_R   0.450127 0.771790 0.964698 -0.154680
N13   N     N_R   0.483399 0.771455 0.033474 -0.165043
N14   N     N_R   0.950142 0.271812 0.964700 -0.154679
N15   N     N_R   0.983413 0.271477 0.033476 -0.165044
N16   N     N_R   0.014419 0.723179 0.965648 -0.135312
O1    O     O_R   0.822760 0.770240 0.499990 -0.628253
O2    O     O_R   0.075230 0.953450 0.557500 -0.597617
O3    O     O_R   0.389422 0.741860 0.458228 -0.723935
O4    O     O_2   0.120138 0.189201 0.619939 -0.603594
O5    O     O_R   0.178874 0.228633 0.610716 -0.766245
O6    O     O_2   0.847928 0.198992 0.362450 -0.617400
O7    O     O_R   0.889420 0.241860 0.458226 -0.723937
O8    O     O_2   0.519512 0.653254 0.102350 -0.580312
O9    O     O_R   0.603625 0.622632 0.188356 -0.804437
O10   O     O_2   0.417934 0.655000 0.899726 -0.572549
O11   O     O_R   0.415177 0.622840 0.814333 -0.816437
O12   O     O_2   0.019452 0.153274 0.102353 -0.580312
O13   O     O_R   0.424770 0.453450 0.442500 -0.597882
O14   O     O_R   0.103545 0.122626 0.188359 -0.804457
O15   O     O_2   0.917868 0.155023 0.899728 -0.572547
O16   O     O_R   0.915091 0.122835 0.814336 -0.816413
O17   O     O_3   0.846717 0.957014 0.514144 -0.558238
O18   O     O_3   0.148572 0.958156 0.482363 -0.579588
O19   O     O_3   0.346716 0.457014 0.514142 -0.558237
O20   O     O_3   0.648572 0.458156 0.482363 -0.579591
O21   O     O_2   0.929235 0.904894 0.673093 -0.588101
O22   O     O_R   0.869374 0.848203 0.645344 -0.829207
O23   O     O_2   0.067865 0.903818 0.325206 -0.582821
O24   O     O_R   0.575230 0.453450 0.557500 -0.597617
O25   O     O_R   0.129293 0.847935 0.354231 -0.824032
O26   O     O_2   0.429234 0.404895 0.673092 -0.588101
O27   O     O_R   0.369372 0.348204 0.645343 -0.829207
O28   O     O_2   0.567866 0.403818 0.325207 -0.582821
O29   O     O_R   0.629293 0.347935 0.354231 -0.824030
O30   O     O_2   0.997658 0.821093 0.647535 -0.593184
O31   O     O_R   0.033876 0.878521 0.626957 -0.774390
O32   O     O_2   0.002718 0.819368 0.356596 -0.580673
O33   O     O_R   0.966258 0.878518 0.373478 -0.773257
O34   O     O_2   0.497658 0.321095 0.647537 -0.593183
O35   O     O_R   0.982280 0.953430 0.557510 -0.575116
O36   O     O_R   0.533876 0.378521 0.626958 -0.774389
O37   O     O_2   0.502719 0.319368 0.356596 -0.580674
O38   O     O_R   0.466258 0.378519 0.373477 -0.773258
O39   O     O_2   0.862850 0.831587 0.354836 -0.608291
O40   O     O_R   0.839739 0.904458 0.328929 -0.802074
O41   O     O_2   0.140089 0.832289 0.647968 -0.609477
O42   O     O_R   0.161510 0.905399 0.671565 -0.800139
O43   O     O_2   0.362853 0.331586 0.354838 -0.608289
O44   O     O_R   0.339739 0.404457 0.328929 -0.802075
O45   O     O_2   0.640088 0.332289 0.647967 -0.609480
O46   O     O_R   0.017720 0.953430 0.442490 -0.572603
O47   O     O_R   0.661509 0.405399 0.671565 -0.800136
O48   O     O_R   0.482280 0.453430 0.557510 -0.575116
O49   O     O_R   0.517720 0.453430 0.442490 -0.572603
O50   O     O_R   0.770230 0.822760 0.499990 -0.602448
O51   O     O_R   0.229770 0.822760 0.500010 -0.595710
O52   O     O_R   0.270230 0.322760 0.499990 -0.602452
O53   O     O_R   0.177240 0.770240 0.500010 -0.629878
O54   O     O_R   0.729770 0.322760 0.500010 -0.595703
O55   O     O_R   0.725330 0.723740 0.398130 -0.623216
O56   O     O_R   0.274670 0.723740 0.601870 -0.633765
O57   O     O_R   0.225330 0.223740 0.398130 -0.623206
O58   O     O_R   0.774670 0.223740 0.601870 -0.633774
O59   O     O_R   0.672800 0.776260 0.398130 -0.597714
O60   O     O_R   0.327200 0.776260 0.601870 -0.590728
O61   O     O_R   0.172800 0.276260 0.398130 -0.597744
O62   O     O_R   0.827200 0.276260 0.601870 -0.590699
O63   O     O_R   0.729750 0.677220 0.500010 -0.609802
O64   O     O_R   0.322760 0.270240 0.499990 -0.628255
O65   O     O_R   0.270250 0.677220 0.499990 -0.596358
O66   O     O_R   0.229750 0.177220 0.500010 -0.609804
O67   O     O_R   0.770250 0.177220 0.499990 -0.596355
O68   O     O_R   0.677220 0.729740 0.500010 -0.567946
O69   O     O_R   0.322780 0.729740 0.499990 -0.581368
O70   O     O_R   0.177220 0.229740 0.500010 -0.567940
O71   O     O_R   0.822780 0.229740 0.499990 -0.581370
O72   O     O_R   0.827180 0.723730 0.601860 -0.638003
O73   O     O_R   0.172820 0.723730 0.398140 -0.614059
O74   O     O_R   0.327180 0.223730 0.601860 -0.638004
O75   O     O_R   0.677240 0.270240 0.500010 -0.629878
O76   O     O_R   0.672820 0.223730 0.398140 -0.614060
O77   O     O_R   0.774660 0.776250 0.601860 -0.559544
O78   O     O_R   0.225340 0.776250 0.398140 -0.596525
O79   O     O_R   0.274660 0.276250 0.601860 -0.559547
O80   O     O_R   0.725340 0.276250 0.398140 -0.596523
O81   O     O_R   0.424770 0.546480 0.442520 -0.571809
O82   O     O_R   0.575230 0.546480 0.557480 -0.574398
O83   O     O_R   0.924770 0.046480 0.442520 -0.571809
O84   O     O_R   0.075230 0.046480 0.557480 -0.574397
O85   O     O_3   0.637865 0.828470 0.283499 -0.583282
O86   O     O_R   0.482280 0.546460 0.557530 -0.611419
O87   O     O_3   0.358023 0.828674 0.715124 -0.581225
O88   O     O_3   0.137917 0.328472 0.283503 -0.583281
O89   O     O_3   0.858080 0.328674 0.715128 -0.581224
O90   O     O_3   0.763271 0.886416 0.396053 -0.607650
O91   O     O_3   0.236940 0.887958 0.601784 -0.605337
O92   O     O_3   0.263271 0.386415 0.396052 -0.607637
O93   O     O_3   0.736940 0.387958 0.601784 -0.605349
O94   O     O_3   0.786692 0.778560 0.718408 -0.593418
O95   O     O_3   0.226567 0.748610 0.291059 -0.605997
O96   O     O_3   0.286690 0.278553 0.718408 -0.593420
O97   O     O_R   0.517720 0.546460 0.442470 -0.600535
O98   O     O_3   0.726567 0.248612 0.291059 -0.605995
O99   O     O_2   0.052008 0.757654 0.896082 -0.601819
O100  O     O_R   0.027385 0.706259 0.814476 -0.785267
O101  O     O_2   0.970564 0.756276 0.172250 -0.583412
O102  O     O_R   0.955273 0.721046 0.080592 -0.795473
O103  O     O_2   0.552008 0.257665 0.896085 -0.601822
O104  O     O_R   0.527390 0.206280 0.814469 -0.785264
O105  O     O_2   0.470563 0.256271 0.172249 -0.583414
O106  O     O_R   0.455275 0.221042 0.080592 -0.795475
O107  O     O_2   0.516457 0.703646 0.449804 -0.592126
O108  O     O_R   0.982280 0.046460 0.557530 -0.611420
O109  O     O_R   0.476158 0.635903 0.429174 -0.802767
O110  O     O_2   0.521172 0.638950 0.577275 -0.596398
O111  O     O_R   0.491898 0.706435 0.584900 -0.729928
O112  O     O_2   0.016456 0.203645 0.449801 -0.592124
O113  O     O_R   0.976158 0.135903 0.429174 -0.802766
O114  O     O_2   0.021171 0.138950 0.577273 -0.596398
O115  O     O_R   0.991897 0.206436 0.584898 -0.729935
O116  O     O_3   0.577675 0.660319 0.373403 -0.621416
O117  O     O_3   0.414805 0.652762 0.626933 -0.616018
O118  O     O_3   0.077675 0.160318 0.373403 -0.621418
O119  O     O_R   0.017720 0.046460 0.442470 -0.600535
O120  O     O_3   0.914805 0.152762 0.626933 -0.616013
O121  O     O_3   0.606507 0.555671 0.416899 -0.577652
O122  O     O_3   0.383009 0.551761 0.569239 -0.557810
O123  O     O_3   0.106507 0.055671 0.416899 -0.577657
O124  O     O_3   0.883010 0.051761 0.569240 -0.557812
O125  O     O_2   0.757195 0.563133 0.604038 -0.622807
O126  O     O_R   0.747581 0.585735 0.509073 -0.809308
O127  O     O_2   0.260328 0.547239 0.413992 -0.622284
O128  O     O_R   0.218461 0.611738 0.407097 -0.795636
O129  O     O_2   0.257195 0.063133 0.604039 -0.622811
O130  O     O_R   0.924770 0.953450 0.442500 -0.597881
O131  O     O_R   0.247581 0.085735 0.509074 -0.809308
O132  O     O_2   0.760329 0.047238 0.413992 -0.622282
O133  O     O_R   0.718461 0.111737 0.407099 -0.795636
O134  O     O_3   0.677322 0.588070 0.630444 -0.553055
O135  O     O_3   0.332868 0.600560 0.366252 -0.562852
O136  O     O_3   0.177322 0.088071 0.630444 -0.553055
O137  O     O_3   0.832867 0.100559 0.366252 -0.562852
O138  O     O_2   0.620138 0.689202 0.619939 -0.603590
O139  O     O_R   0.678878 0.728632 0.610719 -0.766254
O140  O     O_2   0.347929 0.698993 0.362451 -0.617405
Zn1   Zn    Zn3+2 0.785070 0.714920 0.500000 1.035465
Zn2   Zn    Zn3+2 0.038370 0.999960 0.576800 1.117222
Zn3   Zn    Zn3+2 0.461630 0.499960 0.423200 1.118882
Zn4   Zn    Zn3+2 0.538370 0.499960 0.576800 1.117223
Zn5   Zn    Zn3+2 0.214930 0.714920 0.500000 1.030830
Zn6   Zn    Zn3+2 0.285070 0.214920 0.500000 1.035466
Zn7   Zn    Zn3+2 0.714930 0.214920 0.500000 1.030828
Zn8   Zn    Zn3+2 0.714920 0.785060 0.500000 1.052112
Zn9   Zn    Zn3+2 0.285080 0.785060 0.500000 1.052121
Zn10  Zn    Zn3+2 0.214920 0.285060 0.500000 1.052102
Zn11  Zn    Zn3+2 0.785080 0.285060 0.500000 1.052130
Zn12  Zn    Zn3+2 0.961630 0.999960 0.423200 1.118883

loop_
_geom_bond_atom_site_label_1
_geom_bond_atom_site_label_2
_ccdc_geom_bond_type
C31   C161  A    
C133  C137  S    
C55   H61   S    
C56   H66   S    
C73   C188  S    
C102  H20   S    
O51   Zn9   S    
C108  O28   D    
C177  N16   A    
C22   C120  S    
C95   O7    S    
C124  C129  S    
C34   H126  S    
C64   H87   S    
O35   Zn2   S    
O108  Zn2   S    
C154  C158  A    
C51   C183  A    
C138  C143  S    
H32   O27   S    
C20   O119  A    
O54   Zn11  S    
C10   C94   S    
C103  H23   S    
C58   H68   S    
H11   O7    S    
C91   O137  S    
C120  C133  S    
C88   O135  S    
C69   C166  S    
C70   C185  S    
C138  O92   S    
C113  C122  S    
N4    N8    A    
C44   C49   A    
C111  C125  S    
C169  C174  A    
C197  O67   A    
C8    C92   S    
C151  C155  A    
C193  O63   A    
C103  H26   S    
C32   C172  A    
C58   H69   S    
C65   O99   D    
C24   C41   S    
C46   C124  S    
C130  C134  S    
C29   C175  S    
C91   H6    S    
C50   H44   S    
C13   C42   S    
C105  O22   S    
O76   Zn7   S    
C114  O38   S    
C165  C169  A    
C77   H111  S    
C146  C161  S    
C78   H112  S    
C80   O122  S    
C66   O102  S    
C7    O137  S    
C164  C168  A    
C23   C121  S    
C58   O91   S    
C167  C171  A    
C129  C142  S    
C102  H21   S    
C34   C39   A    
C83   O126  S    
C61   H77   S    
C186  C190  S    
C157  H71   S    
C136  C141  S    
C76   H107  S    
C139  O75   A    
C36   C40   A    
N12   N13   A    
C27   O73   A    
C43   C96   S    
C74   H99   S    
C36   H2    S    
C191  C200  S    
C74   H101  S    
C129  C133  S    
C15   C196  S    
C90   O18   S    
C117  O43   D    
C99   O15   D    
C97   O11   S    
C7    C192  S    
C18   O82   A    
C48   H35   S    
O73   Zn5   S    
C70   O109  S    
O97   Zn3   S    
C67   O104  S    
C94   O5    S    
C109  C123  S    
C104  H27   S    
O82   Zn4   S    
C16   C184  S    
C119  C123  S    
C179  N8    A    
C81   H119  S    
C153  C175  A    
C33   C38   A    
C102  O18   S    
C159  C176  S    
C45   C98   S    
H30   O22   S    
C21   C119  S    
C54   O88   S    
O86   Zn4   S    
H16   O16   S    
C89   H3    S    
C62   O95   S    
H94   O106  S    
C96   O8    D    
N10   N11   A    
C180  C198  S    
C101  O19   S    
C19   O83   A    
C41   C45   A    
C31   C36   A    
C157  C162  A    
O55   Zn1   S    
C137  C142  S    
C129  H47   S    
N3    N7    A    
C149  O94   S    
C65   O100  S    
C96   O9    S    
C20   C191  S    
C72   C187  S    
C148  O58   A    
C5    C9    S    
C79   C136  S    
C68   C126  S    
C54   H59   S    
C61   H79   S    
H127  O128  S    
C52   H51   S    
C182  O118  S    
C167  H82   S    
C57   C125  S    
O61   Zn10  S    
C114  C126  S    
C87   H132  S    
C52   O85   S    
C29   O76   A    
C84   O128  S    
C15   C182  S    
O71   Zn11  S    
C47   C99   S    
C127  C141  S    
O69   Zn9   S    
C85   C204  S    
C156  H60   S    
C103  O19   S    
O13   Zn3   S    
C60   H75   S    
C6    C191  S    
C198  C202  S    
C77   O120  S    
C82   H124  S    
C12   C202  S    
O24   Zn4   S    
O64   Zn6   S    
C49   C161  A    
C145  C150  S    
C132  C136  S    
C74   O116  S    
C67   C165  S    
O75   Zn7   S    
C53   O87   S    
C53   H56   S    
C162  C166  A    
C80   H117  S    
C83   C202  S    
O130  Zn12  S    
C79   O17   S    
C119  C132  S    
C115  C132  S    
C81   H121  S    
O59   Zn8   S    
C25   O24   A    
C30   C34   A    
C78   O121  S    
C155  C159  A    
C116  O41   D    
C152  C156  A    
C156  C160  A    
O65   Zn5   S    
C115  O40   S    
C91   H7    S    
C9    C186  S    
C109  O30   D    
C75   H102  S    
C73   O115  S    
C110  O33   S    
C100  H19   S    
C61   O94   S    
C104  O20   S    
C90   C120  S    
C92   O139  S    
C121  C125  S    
C35   C105  S    
C123  C127  S    
C8    C12   S    
C59   H72   S    
C65   C163  S    
H128  O131  S    
H129  O133  S    
C24   N10   A    
C66   C164  S    
C32   C37   A    
C69   O106  S    
C87   O134  S    
C158  C163  A    
C13   N11   A    
C76   H106  S    
H14   O11   S    
C12   C180  S    
O72   Zn1   S    
C166  C170  A    
O119  Zn12  S    
C86   O133  S    
H90   O100  S    
C93   O140  D    
C181  C199  S    
C147  C172  S    
H31   O25   S    
C33   O89   S    
C13   N14   A    
O83   Zn12  S    
C184  C201  S    
C149  C171  A    
C54   H57   S    
C53   H54   S    
C29   O80   A    
C106  O23   D    
C5    C203  S    
C181  C186  S    
C87   H130  S    
C185  C189  S    
C17   C190  S    
C57   C101  S    
C68   C113  S    
C188  C192  S    
C35   C123  S    
C26   O72   A    
C195  O69   A    
C28   C174  S    
C194  N9    A    
C46   C106  S    
C35   C79   S    
C82   H122  S    
C88   H133  S    
C37   C41   A    
C81   O123  S    
C176  N2    A    
C162  C178  S    
C154  H1    S    
C118  C135  S    
C75   H105  S    
C40   C44   A    
C85   O129  D    
H98   O115  S    
H91   O102  S    
O84   Zn2   S    
C159  C164  A    
C50   C172  A    
C139  O54   A    
C3    C16   S    
C136  O90   S    
C103  H25   S    
C14   C195  S    
C48   C150  A    
C12   C193  S    
H15   O14   S    
C37   H13   S    
C17   O86   A    
C91   H5    S    
C71   O110  D    
C18   O97   A    
O52   Zn10  S    
C105  O21   D    
C1    O50   A    
C46   C142  S    
H39   O40   S    
O50   Zn8   S    
C77   H110  S    
O66   Zn6   S    
C108  O29   S    
C78   H113  S    
C53   H55   S    
C62   H80   S    
C3    C7    S    
C112  O53   A    
O80   Zn11  S    
C30   C150  A    
O77   Zn8   S    
C117  C134  S    
C179  N3    A    
C59   H70   S    
C1    O1    A    
C178  N7    A    
C102  H22   S    
C44   C97   S    
C83   O125  D    
C110  C124  S    
C76   H108  S    
H92   O104  S    
C107  O26   D    
C79   C119  S    
C190  C199  S    
C63   H86   S    
H97   O113  S    
C192  C201  S    
C74   H100  S    
C64   H89   S    
C121  C134  S    
O57   Zn6   S    
C22   O2    A    
C4    C8    S    
C177  N6    A    
C148  O62   A    
H34   O31   S    
C60   H74   S    
C3    C86   S    
C199  C203  S    
C97   O10   D    
C27   C173  S    
C72   O112  D    
C55   H62   S    
C56   H65   S    
C28   O79   A    
C170  C175  A    
C135  C140  S    
C112  O51   A    
C67   O103  D    
C145  O55   A    
C182  C200  S    
O56   Zn5   S    
C5    O135  S    
O79   Zn10  S    
C47   C51   A    
C100  O17   S    
C201  O124  S    
C58   H67   S    
C101  C121  S    
C88   H135  S    
C9    C14   S    
C6    C204  S    
O62   Zn11  S    
C64   O98   S    
C75   H103  S    
C11   C16   S    
C4    C202  S    
C85   O131  S    
C27   O78   A    
C100  H18   S    
O49   Zn3   S    
C93   O3    S    
C146  O56   A    
C160  C165  A    
C92   O138  D    
C49   H43   S    
C63   H84   S    
C84   C203  S    
C118  O47   S    
C26   C171  S    
H38   O38   S    
N2    N6    A    
C3    C201  S    
C111  O36   S    
C98   O14   S    
C82   O124  S    
C75   O117  S    
C128  O64   A    
C14   C181  S    
O74   Zn6   S    
C25   O49   A    
C114  O37   D    
C137  O91   S    
C66   O101  D    
O60   Zn9   S    
C128  O52   A    
C140  C144  S    
C196  O66   A    
C117  O44   S    
C6    C10   S    
C101  C138  S    
C116  C133  S    
C130  H48   S    
C140  O93   S    
C71   O111  S    
C64   H88   S    
C20   O84   A    
C127  H46   S    
C61   H78   S    
C72   O113  S    
C52   H52   S    
C45   C50   A    
C87   H131  S    
H125  O126  S    
C52   H53   S    
H42   O47   S    
C60   O93   S    
C153  C157  A    
H95   O109  S    
C128  C143  S    
C122  C135  S    
H10   O5    S    
C1    C141  S    
C94   O4    D    
C198  O121  S    
C194  N12   A    
C60   H76   S    
C99   O16   S    
C70   O107  D    
C131  C144  S    
C147  O57   A    
C189  C198  S    
C18   C189  S    
C151  C173  A    
C95   O6    D    
C23   O13   A    
C113  O20   S    
C80   H118  S    
C149  C154  A    
C195  O65   A    
C15   C204  S    
C131  H50   S    
C199  O122  S    
C40   C194  S    
C81   H120  S    
C7    C11   S    
C116  O42   S    
C158  C177  S    
C115  O39   D    
C5    C190  S    
C38   C42   A    
C131  C135  S    
C10   C15   S    
C148  C183  S    
C181  O117  S    
C19   O108  A    
C73   O114  D    
C104  H28   S    
C89   H4    S    
C170  H115  S    
C24   N15   A    
H41   O44   S    
C109  O31   S    
O70   Zn10  S    
C26   O77   A    
C112  C142  S    
C6    O136  S    
C62   H83   S    
C127  C132  S    
C200  O123  S    
N1    N9    A    
C2    C39   S    
C118  O45   D    
C11   C188  S    
O53   Zn5   S    
C46   C90   S    
C33   C183  A    
C111  O34   D    
C68   C144  S    
O2    Zn2   S    
C25   C122  S    
C187  C191  S    
C19   C192  S    
C176  N5    A    
C86   O132  D    
C107  O27   S    
C28   O74   A    
C4    O134  S    
H40   O42   S    
C21   O130  A    
C125  C130  S    
C42   C47   A    
H33   O29   S    
C168  C173  A    
H8    O139  S    
C57   C143  S    
N5    N16   A    
C54   H58   S    
C17   O81   A    
C184  O120  S    
C55   H63   S    
C31   O87   S    
C32   O88   S    
C63   O96   S    
C39   C43   A    
C84   O127  D    
C21   O35   A    
C184  C188  S    
O46   Zn12  S    
C122  C126  S    
C163  C167  A    
C16   C197  S    
C160  C179  S    
C200  C204  S    
C139  C144  S    
C169  H104  S    
H9    O3    S    
C178  N4    A    
C43   C48   A    
C14   C203  S    
C10   C187  S    
C113  C140  S    
C82   H123  S    
C88   H134  S    
C130  C143  S    
C80   H116  S    
C106  O25   S    
C35   C141  S    
C55   O89   S    
C104  H29   S    
C57   C107  S    
N14   N15   A    
C89   H136  S    
C147  O61   A    
C145  O59   A    
C146  O60   A    
O58   Zn7   S    
C71   C186  S    
C9    C93   S    
C90   C137  S    
O1    Zn1   S    
C89   O136  S    
C2    N1    A    
C38   H24   S    
C23   O48   A    
C11   C95   S    
C151  O95   S    
O68   Zn8   S    
C56   H64   S    
C69   O105  D    
C4    C189  S    
C22   O46   A    
C2    N13   A    
C76   O118  S    
C134  C138  S    
C110  O32   D    
C8    C185  S    
C77   H109  S    
C78   H114  S    
H36   O33   S    
H96   O111  S    
C59   H73   S    
C62   H81   S    
C152  C174  A    
C100  H17   S    
C155  H49   S    
C193  O68   A    
C59   O92   S    
O78   Zn9   S    
C126  C131  S    
O67   Zn7   S    
H12   O9    S    
C168  H93   S    
O63   Zn1   S    
C182  C187  S    
C51   H45   S    
C56   O90   S    
C98   O12   D    
C180  C185  S    
C152  O96   S    
C30   O85   S    
O81   Zn3   S    
C180  O116  S    
O48   Zn4   S    
C197  O71   A    
C63   H85   S    
C153  O98   S    
C68   C108  S    
C196  O70   A    
C120  C124  S    
H37   O36   S    
