data_mof_unit_6466.cif
_audit_creation_date              2012-12-10T20:49:11-0500
_audit_creation_method            fapswitch 2.2
_symmetry_space_group_name_H-M    P1
_symmetry_Int_Tables_number       1
_space_group_crystal_system       triclinic
_cell_length_a                    8.952375
_cell_length_b                    8.117635
_cell_length_c                    10.621142
_cell_angle_alpha                 89.956878
_cell_angle_beta                  90.144248
_cell_angle_gamma                 90.055286
_cell_volume                      771.857805039

loop_
_atom_site_label
_atom_site_type_symbol
_atom_type_description
_atom_site_fract_x
_atom_site_fract_y
_atom_site_fract_z
_atom_type_partial_charge
C1    C     C_R   0.218030 0.499913 0.497594 0.927278
C2    C     C_R   0.782010 0.500060 0.499353 0.904324
C3    C     C_R   0.501366 0.500026 0.257278 0.984058
C4    C     C_R   0.501810 0.499897 0.742727 0.993538
C5    C     C_3   0.461987 0.645999 0.040653 0.334274
C6    C     C_3   0.545863 0.350623 0.958456 0.248911
C7    C     C_3   0.598133 0.612508 0.958007 0.277918
C8    C     C_3   0.408836 0.384174 0.042479 0.204568
C9    C     C_3   0.364515 0.531821 0.959724 0.317975
C10   C     C_3   0.642888 0.464355 0.040247 0.300055
C11   C     C_3   0.501563 0.499350 0.876097 -0.321518
C12   C     C_3   0.505993 0.499263 0.123969 -0.325526
C13   C     C_1   0.065178 0.499724 0.495438 -0.174881
C14   C     C_1   0.934833 0.499940 0.496060 -0.183363
N1    N     N_1   0.500000 0.073640 0.500000 -0.009731
N2    N     N_1   0.500000 0.926360 0.500000 -0.007147
O1    O     O_R   0.285350 0.636850 0.500000 -0.614097
O2    O     O_R   0.714650 0.363150 0.500000 -0.635743
O3    O     O_R   0.714650 0.636850 0.500000 -0.611192
O4    O     O_R   0.285350 0.363150 0.500000 -0.622214
O5    O     O_R   0.499970 0.636850 0.313950 -0.584019
O6    O     O_R   0.500030 0.363150 0.686050 -0.596462
O7    O     O_R   0.500030 0.636850 0.686050 -0.587751
O8    O     O_R   0.499970 0.363150 0.313950 -0.619881
Zn1   Zn    Zn3+2 0.500000 0.682780 0.500000 1.053624
Zn2   Zn    Zn3+2 0.500000 0.317220 0.500000 1.025219
O9    O     O_3   0.221898 0.584181 0.920021 -0.576644
C15   C     C_3   0.146119 0.454657 0.859199 0.096337
H1    H     H_    0.123251 0.352414 0.925661 0.184699
H2    H     H_    0.210064 0.407545 0.777253 0.120953
C16   C     C_3   0.996937 0.518882 0.812379 -0.666992
H3    H     H_    0.932011 0.417818 0.767829 0.208068
H4    H     H_    0.933031 0.568629 0.892690 0.319580
H5    H     H_    0.014685 0.619805 0.743470 0.241021
O10   O     O_3   0.793299 0.436526 0.074354 -0.601104
C17   C     C_3   0.803265 0.311156 0.165817 0.111091
H6    H     H_    0.724493 0.207473 0.148339 0.156785
H7    H     H_    0.781430 0.364327 0.259719 0.148089
C18   C     C_3   0.960919 0.242256 0.167237 -0.702029
H8    H     H_    0.042382 0.343128 0.184348 0.286293
H9    H     H_    0.971954 0.149403 0.243531 0.215324
H10   H     H_    0.985582 0.182205 0.075757 0.253920
O11   O     O_3   0.419500 0.800937 0.085492 -0.704753
H11   H     H_    0.396205 0.866863 0.009375 0.354863
O12   O     O_3   0.589418 0.197594 0.910341 -0.702828
H12   H     H_    0.575158 0.117630 0.979751 0.346209
O13   O     O_3   0.693214 0.734675 0.911288 -0.722092
H13   H     H_    0.737128 0.788190 0.986639 0.357351
O14   O     O_3   0.313930 0.263995 0.092531 -0.740254
H14   H     H_    0.301704 0.180179 0.025526 0.337898

loop_
_geom_bond_atom_site_label_1
_geom_bond_atom_site_label_2
_ccdc_geom_bond_type
C6    C10   S    
C7    C10   S    
O11   H11   S    
C16   H4    S    
C5    C9    S    
C10   O10   S    
N2    Zn1   S    
C6    O12   S    
C2    O2    A    
C4    O6    A    
C1    O1    A    
C16   H3    S    
O2    Zn2   S    
C8    C12   S    
O1    Zn1   S    
C15   H2    S    
C5    O11   S    
C16   H5    S    
C18   H9    S    
O12   H12   S    
C4    C11   S    
C7    C11   S    
C9    C11   S    
C6    C11   S    
C3    O8    A    
O4    Zn2   S    
O3    Zn1   S    
C10   C12   S    
C17   H7    S    
C15   H1    S    
O8    Zn2   S    
C18   H10   S    
O7    Zn1   S    
C2    C14   S    
C3    O5    A    
C1    C13   S    
N1    N2    T    
C18   H8    S    
C9    O9    S    
C5    C12   S    
O14   H14   S    
O6    Zn2   S    
O9    C15   S    
C5    C7    S    
C4    O7    A    
O5    Zn1   S    
C17   H6    S    
C1    O4    A    
C6    C8    S    
C3    C12   S    
C2    O3    A    
C13   C14   T    
C8    O14   S    
C17   C18   S    
C15   C16   S    
O13   H13   S    
C8    C9    S    
N1    Zn2   S    
O10   C17   S    
C7    O13   S    
