data_mof_unit_29341.cif
_audit_creation_date              2012-12-11T14:23:04-0500
_audit_creation_method            fapswitch 2.2
_symmetry_space_group_name_H-M    P1
_symmetry_Int_Tables_number       1
_space_group_crystal_system       triclinic
_cell_length_a                    11.025879
_cell_length_b                    11.012965
_cell_length_c                    18.809246
_cell_angle_alpha                 90.032135
_cell_angle_beta                  90.631433
_cell_angle_gamma                 59.749449
_cell_volume                      1972.80363115

loop_
_atom_site_label
_atom_site_type_symbol
_atom_type_description
_atom_site_fract_x
_atom_site_fract_y
_atom_site_fract_z
_atom_type_partial_charge
C1    C     C_R   0.234450 0.646529 0.609203 0.525524
C2    C     C_3   0.749820 0.493815 0.804253 -0.236453
C3    C     C_3   0.687771 0.653647 0.817927 0.061496
C4    C     C_3   0.647655 0.611855 0.684537 0.043221
C5    C     C_3   0.726619 0.694371 0.689136 -0.226981
C6    C     C_3   0.733034 0.469587 0.724787 -0.230015
C7    C     C_R   0.717307 0.084591 0.811697 0.018896
C8    C     C_R   0.817595 0.107963 0.775351 -0.022653
C9    C     C_R   0.809746 0.118615 0.699915 0.004331
C10   C     C_R   0.601039 0.100167 0.698730 -0.147599
C11   C     C_R   0.612142 0.076091 0.771085 0.201208
C12   C     C_R   0.628163 0.585636 0.608804 0.560370
C13   C     C_R   0.923668 0.124286 0.809755 -0.110287
C14   C     C_R   0.026630 0.131735 0.770765 -0.158647
C15   C     C_R   0.027491 0.122470 0.697160 -0.139485
C16   C     C_R   0.920452 0.115653 0.661917 -0.079885
C17   C     C_R   0.689728 0.134817 0.664296 -0.044534
C18   C     C_R   0.176209 0.670775 0.833311 -0.005493
C19   C     C_R   0.193523 0.550605 0.797316 -0.010795
C20   C     C_R   0.179115 0.553410 0.721782 0.005781
C21   C     C_R   0.176345 0.775587 0.720906 -0.163156
C22   C     C_R   0.175152 0.778505 0.794124 -0.156500
C23   C     C_R   0.633169 0.220105 0.599593 0.530820
C24   C     C_R   0.226927 0.427071 0.835039 -0.091247
C25   C     C_R   0.235399 0.312468 0.800199 -0.157241
C26   C     C_R   0.206557 0.320074 0.727793 -0.067743
C27   C     C_R   0.168412 0.442276 0.689086 0.270423
C28   C     C_R   0.181693 0.663621 0.683022 -0.026739
C29   C     C_R   0.725669 0.700468 0.181885 -0.050855
C30   C     C_R   0.788558 0.563795 0.212307 0.016438
C31   C     C_R   0.726232 0.547097 0.271875 -0.013325
C32   C     C_R   0.624447 0.797268 0.296927 0.204484
C33   C     C_R   0.647371 0.816831 0.225612 -0.095797
C34   C     C_R   0.283069 0.625466 0.392560 0.572187
C35   C     C_R   0.907185 0.441716 0.184944 -0.080874
C36   C     C_R   0.940687 0.308466 0.206599 -0.148925
C37   C     C_R   0.856964 0.295064 0.255698 -0.117279
C38   C     C_R   0.744055 0.413471 0.284598 -0.067675
C39   C     C_R   0.658224 0.660450 0.319537 -0.004027
C40   C     C_R   0.658100 0.148392 0.176974 0.012346
C41   C     C_R   0.521641 0.235181 0.201060 -0.025682
C42   C     C_R   0.494085 0.236713 0.274070 0.060033
C43   C     C_R   0.746272 0.085742 0.297071 -0.166509
C44   C     C_R   0.767384 0.065552 0.224907 -0.170014
C45   C     C_R   0.641815 0.624576 0.392579 0.522011
C46   C     C_R   0.410404 0.305188 0.151830 -0.097429
C47   C     C_R   0.280172 0.326786 0.167980 -0.148002
C48   C     C_R   0.251958 0.308416 0.237154 -0.123292
C49   C     C_R   0.350392 0.278243 0.291942 0.311857
C50   C     C_R   0.615743 0.185178 0.321383 0.040950
C51   C     C_R   0.168359 0.658567 0.177682 0.018786
C52   C     C_R   0.266169 0.698656 0.198003 -0.063424
C53   C     C_R   0.274754 0.725256 0.270215 -0.018082
C54   C     C_R   0.136950 0.614148 0.298592 -0.131159
C55   C     C_R   0.098804 0.624937 0.228381 -0.159903
C56   C     C_R   0.608212 0.236143 0.393398 0.531408
C57   C     C_R   0.326432 0.744588 0.146539 -0.092123
C58   C     C_R   0.344776 0.858414 0.161578 0.231884
C59   C     C_R   0.332200 0.903562 0.231309 -0.079982
C60   C     C_R   0.301425 0.837358 0.286159 0.251408
C61   C     C_R   0.231938 0.655348 0.319890 0.023054
C62   C     C_R   0.725035 0.049511 0.888529 0.585436
C63   C     C_R   0.717454 0.682041 0.891438 0.548004
C64   C     C_R   0.118174 0.705954 0.905638 0.529155
C65   C     C_R   0.677955 0.102840 0.104370 0.535406
C66   C     C_R   0.737899 0.717130 0.105176 0.572176
C67   C     C_3   0.528540 0.726512 0.800813 -0.242953
C68   C     C_R   0.097550 0.706271 0.110563 0.527069
C69   C     C_3   0.505242 0.697758 0.722799 -0.240788
C70   C     C_3   0.763296 0.704271 0.766881 -0.223847
Cr1   Cr    Cr6+3 0.392940 0.397950 0.502230 1.030393
Cr2   Cr    Cr6+3 0.398400 0.708500 0.501260 1.011399
Cr3   Cr    Cr6+3 0.708640 0.393530 0.496460 0.975674
Cr4   Cr    Cr6+3 0.937880 0.938320 0.007620 0.966964
Cr5   Cr    Cr6+3 0.625560 0.937220 0.994510 1.031800
Cr6   Cr    Cr6+3 0.938080 0.625010 0.001190 0.970179
H1    H     H_    0.476175 0.840802 0.810171 0.156765
H2    H     H_    0.838825 0.407798 0.701057 0.174762
H3    H     H_    0.879085 0.638010 0.774654 0.132684
H4    H     H_    0.824668 0.641791 0.657894 0.146097
H5    H     H_    0.515405 0.100277 0.669789 0.129366
H6    H     H_    0.930466 0.134622 0.866085 0.155359
H7    H     H_    0.109351 0.138507 0.798292 0.095661
H8    H     H_    0.112578 0.116255 0.666626 0.103848
H9    H     H_    0.927528 0.103808 0.604768 0.131709
H10   H     H_    0.185458 0.856774 0.694026 0.153506
H11   H     H_    0.478100 0.685503 0.837014 0.110712
H12   H     H_    0.252449 0.415907 0.891249 0.138952
H13   H     H_    0.172311 0.867095 0.820419 0.148724
H14   H     H_    0.261640 0.218508 0.830180 0.136068
H15   H     H_    0.211825 0.231029 0.701561 0.110201
H16   H     H_    0.979630 0.446771 0.149201 0.141223
H17   H     H_    0.606273 0.922140 0.204902 0.169303
H18   H     H_    0.032290 0.216385 0.186182 0.101031
H19   H     H_    0.886853 0.193118 0.274548 0.110784
H20   H     H_    0.451219 0.635765 0.721953 0.130089
H21   H     H_    0.674995 0.401916 0.319673 0.146735
H22   H     H_    0.833117 0.029532 0.333876 0.108304
H23   H     H_    0.427619 0.326313 0.097746 0.131452
H24   H     H_    0.870197 0.986426 0.206644 0.144707
H25   H     H_    0.200226 0.363714 0.127005 0.114053
H26   H     H_    0.146232 0.339304 0.250287 0.107748
H27   H     H_    0.088342 0.578187 0.336474 0.162995
H28   H     H_    0.336498 0.708261 0.092240 0.124250
H29   H     H_    0.013635 0.608519 0.213735 0.116892
H30   H     H_    0.437123 0.799642 0.695097 0.130428
H31   H     H_    0.340417 0.995534 0.242951 0.157249
H32   H     H_    0.737709 0.812086 0.779041 0.155904
H33   H     H_    0.660104 0.801886 0.666571 0.126714
H34   H     H_    0.863442 0.432894 0.818623 0.151602
H35   H     H_    0.695516 0.452491 0.837464 0.122205
H36   H     H_    0.678990 0.407772 0.719649 0.124558
O1    O     O_R   0.507340 0.255690 0.581430 -0.518334
O2    O     O_R   0.524510 0.695820 0.424050 -0.479747
O3    O     O_R   0.736370 0.504260 0.414810 -0.525993
O4    O     O_R   0.691220 0.277270 0.422180 -0.542787
O5    O     O_3   0.499990 0.499990 0.499980 -0.295729
O6    O     O_R   0.089570 0.825450 0.930590 -0.544401
O7    O     O_R   0.818700 0.054260 0.929860 -0.532629
O8    O     O_R   0.606310 0.077010 0.915520 -0.455610
O9    O     O_R   0.646730 0.806540 0.917560 -0.491420
O10   O     O_R   0.837290 0.593240 0.915240 -0.527633
O11   O     O_R   0.065320 0.635310 0.931580 -0.508092
O12   O     O_R   0.280360 0.527380 0.578910 -0.462497
O13   O     O_R   0.068470 0.828620 0.091850 -0.538894
O14   O     O_R   0.799150 0.057200 0.079350 -0.504818
O15   O     O_R   0.585220 0.080180 0.076770 -0.522602
O16   O     O_R   0.627170 0.809480 0.067050 -0.437780
O17   O     O_R   0.816200 0.596410 0.076500 -0.533082
O18   O     O_R   0.045770 0.638240 0.081070 -0.541930
O19   O     O_3   0.833840 0.833520 0.001110 -0.289597
O20   O     O_R   0.260600 0.739610 0.584580 -0.547674
O21   O     O_R   0.532370 0.695050 0.573830 -0.512759
O22   O     O_R   0.744850 0.503430 0.576380 -0.508642
O23   O     O_R   0.699080 0.276500 0.571950 -0.525027
O24   O     O_R   0.498860 0.256520 0.419860 -0.458656
O25   O     O_R   0.272490 0.528150 0.429140 -0.474911
O26   O     O_R   0.252110 0.740440 0.423010 -0.469898
O27   O     O_3   0.520782 0.041638 0.802753 -0.705755
H37   H     H_    0.456790 0.038011 0.766461 0.291241
O28   O     O_3   0.110260 0.452623 0.622495 -0.710725
H38   H     H_    0.050837 0.553535 0.610147 0.314081
O29   O     O_3   0.564501 0.913771 0.340300 -0.711709
H39   H     H_    0.570755 0.883746 0.390336 0.341856
O30   O     O_3   0.296053 0.317445 0.359243 -0.527876
C71   C     C_3   0.231553 0.243625 0.384419 -0.027329
H40   H     H_    0.296628 0.129204 0.373553 0.192303
H41   H     H_    0.124736 0.288360 0.360843 0.112521
C72   C     C_3   0.213767 0.265050 0.464564 -0.283355
H42   H     H_    0.162265 0.378730 0.477101 0.203582
H43   H     H_    0.146361 0.225933 0.485460 0.064780
H44   H     H_    0.317484 0.208520 0.492002 0.172158
O31   O     O_3   0.368810 0.931633 0.109064 -0.537041
C73   C     C_3   0.256174 0.989700 0.059329 0.004657
H45   H     H_    0.153429 0.051214 0.086478 0.124652
H46   H     H_    0.255355 0.906250 0.026436 0.146985
C74   C     C_3   0.273541 0.087931 0.009048 -0.346025
H47   H     H_    0.371561 0.028091 0.978317 0.186776
H48   H     H_    0.183175 0.137379 0.971212 0.062418
H49   H     H_    0.278326 0.171687 0.039516 0.149113
O32   O     O_3   0.266069 0.906938 0.350103 -0.519345
C75   C     C_3   0.121267 0.008647 0.347743 -0.011709
H50   H     H_    0.057808 0.972182 0.317850 0.115598
H51   H     H_    0.108242 0.103786 0.320858 0.098258
C76   C     C_3   0.062711 0.045768 0.422774 -0.342843
H52   H     H_    0.147027 0.025844 0.461763 0.164333
H53   H     H_    0.978969 0.157998 0.424920 0.116138
H54   H     H_    0.016534 0.980499 0.438304 0.145593

loop_
_geom_bond_atom_site_label_1
_geom_bond_atom_site_label_2
_ccdc_geom_bond_type
C46   H23   S    
C74   H47   S    
C47   H25   S    
C29   C33   A    
C41   C42   A    
C54   C55   A    
C35   C36   A    
C67   H1    S    
C43   H22   S    
C1    O20   A    
O32   C75   S    
Cr2   O21   S    
C7    C8    A    
Cr1   O25   S    
C7    C11   A    
Cr4   O7    S    
C37   H19   S    
C26   C27   A    
C76   H52   S    
Cr3   O4    S    
C30   C35   A    
C55   H29   S    
C65   O15   A    
C36   C37   A    
C9    C16   A    
C18   C19   A    
C72   H43   S    
C71   H41   S    
O30   C71   S    
C30   C31   A    
Cr6   O19   S    
C6    H2    S    
Cr4   O13   S    
C10   C17   A    
C15   C16   A    
C71   C72   S    
Cr2   O2    S    
C64   O6    A    
Cr1   O1    S    
Cr5   O16   S    
C32   C39   A    
C11   O27   S    
C32   O29   S    
C56   O24   A    
C21   H10   S    
C53   C61   A    
C45   O2    A    
C2    H34   S    
Cr3   O23   S    
C66   O16   A    
C8    C9    A    
Cr2   O5    S    
C1    C28   S    
C41   C46   A    
C13   C14   A    
C4    C12   S    
C62   O8    A    
C45   O3    A    
C39   C45   S    
C66   O17   A    
C35   H16   S    
C69   H20   S    
Cr2   O26   S    
C59   C60   A    
C76   H53   S    
C12   O22   A    
C21   C22   A    
C2    C6    S    
Cr6   O18   S    
C14   H7    S    
C38   H21   S    
C4    C69   S    
C63   O9    A    
C53   C60   A    
Cr5   O19   S    
Cr2   O20   S    
C75   H51   S    
C56   O4    A    
Cr4   O6    S    
C2    H35   S    
Cr3   O5    S    
Cr1   O5    S    
C51   C52   A    
Cr1   O12   S    
C3    C70   S    
C24   C25   A    
C73   C74   S    
C4    C6    S    
C10   C11   A    
C72   H44   S    
Cr1   O24   S    
C20   C28   A    
C25   C26   A    
C13   H6    S    
C34   O26   A    
C34   C61   S    
C59   H31   S    
C67   C69   S    
C75   H50   S    
C37   C38   A    
C43   C44   A    
C7    C62   S    
C29   C30   A    
C58   O31   S    
C23   O1    A    
C75   C76   S    
Cr6   O17   S    
C54   H27   S    
C47   C48   A    
C26   H15   S    
O27   H37   S    
C48   H26   S    
C60   O32   S    
C25   H14   S    
C49   O30   S    
C17   C23   S    
C5    H4    S    
C68   O18   A    
C24   H12   S    
C73   H45   S    
C42   C50   A    
C9    C17   A    
C40   C41   A    
C54   C61   A    
C21   C28   A    
C74   H49   S    
C40   C65   S    
O28   H38   S    
C16   H9    S    
C63   O10   A    
C52   C53   A    
C71   H40   S    
C57   H28   S    
C46   C47   A    
C48   C49   A    
C34   O25   A    
C70   H3    S    
Cr5   O9    S    
Cr6   O11   S    
C73   H46   S    
C3    C67   S    
Cr5   O8    S    
C4    C5    S    
C5    C70   S    
C33   H17   S    
C69   H30   S    
C43   C50   A    
C15   H8    S    
C20   C27   A    
C3    C63   S    
C76   H54   S    
C64   O11   A    
C10   H5    S    
C67   H11   S    
Cr3   O3    S    
C31   C38   A    
C23   O23   A    
C12   O21   A    
Cr6   O10   S    
C32   C33   A    
C19   C20   A    
C18   C22   A    
C19   C24   A    
C58   C59   A    
C1    O12   A    
C70   H32   S    
C72   H42   S    
C65   O14   A    
C44   H24   S    
C18   C64   S    
C57   C58   A    
Cr4   O14   S    
C5    H33   S    
C27   O28   S    
C22   H13   S    
C31   C39   A    
C2    C3    S    
C62   O7    A    
C51   C55   A    
C51   C68   S    
C50   C56   S    
C52   C57   A    
C42   C49   A    
C29   C66   S    
C8    C13   A    
C36   H18   S    
C40   C44   A    
Cr3   O22   S    
C74   H48   S    
C14   C15   A    
C6    H36   S    
O31   C73   S    
Cr4   O19   S    
C68   O13   A    
O29   H39   S    
Cr5   O15   S    
