data_mof_unit_42500.cif
_audit_creation_date              2012-12-10T20:03:09-0500
_audit_creation_method            fapswitch 2.2
_symmetry_space_group_name_H-M    P1
_symmetry_Int_Tables_number       1
_space_group_crystal_system       triclinic
_cell_length_a                    8.571401
_cell_length_b                    19.19764
_cell_length_c                    18.487384
_cell_angle_alpha                 89.607107
_cell_angle_beta                  98.997785
_cell_angle_gamma                 90.245459
_cell_volume                      3004.58986419

loop_
_atom_site_label
_atom_site_type_symbol
_atom_type_description
_atom_site_fract_x
_atom_site_fract_y
_atom_site_fract_z
_atom_type_partial_charge
C1    C     C_R   0.498413 0.365320 0.500269 0.910078
C2    C     C_R   0.502234 0.634364 0.499782 0.917233
C3    C     C_R   0.313547 0.961278 0.444235 -0.173166
C4    C     C_R   0.564623 0.038482 0.519621 -0.175718
C5    C     C_R   0.307285 0.033525 0.442494 -0.171020
C6    C     C_R   0.571186 0.966522 0.521081 -0.166759
C7    C     C_R   0.432863 0.071787 0.480391 0.208646
C8    C     C_R   0.445729 0.928137 0.483459 0.205593
C9    C     C_R   0.607272 0.539486 0.734128 0.372442
C10   C     C_R   0.390275 0.461534 0.266073 0.370028
C11   C     C_R   0.603611 0.541615 0.810002 -0.331434
C12   C     C_R   0.386133 0.462924 0.189615 -0.329804
C13   C     C_R   0.492023 0.502104 0.840868 0.095784
C14   C     C_R   0.497151 0.502369 0.158326 0.091473
C15   C     C_R   0.383469 0.461948 0.793259 -0.297955
C16   C     C_R   0.608922 0.541193 0.205750 -0.290432
C17   C     C_R   0.388865 0.462039 0.717710 -0.041058
C18   C     C_R   0.607923 0.539450 0.281675 -0.037180
C19   C     C_R   0.456496 0.441581 0.959455 -0.186467
C20   C     C_R   0.529530 0.563547 0.039586 -0.186789
C21   C     C_R   0.459038 0.441574 0.035588 -0.187968
C22   C     C_R   0.526795 0.563580 0.963411 -0.189313
C23   C     C_R   0.200812 0.500131 0.480783 0.973649
C24   C     C_R   0.799185 0.500155 0.519209 0.968473
C25   C     C_R   0.495691 0.502540 0.076938 0.138741
C26   C     C_R   0.490655 0.502539 0.922079 0.139775
C27   C     C_2   0.035527 0.500583 0.470434 -0.389422
C28   C     C_2   0.964465 0.500238 0.529524 -0.394205
C29   C     C_R   0.576674 0.747319 0.448142 0.157146
C30   C     C_R   0.407001 0.252661 0.549723 0.146260
C31   C     C_R   0.553952 0.819682 0.441150 0.126970
C32   C     C_R   0.373038 0.181387 0.538046 0.131055
C33   C     C_R   0.455958 0.852857 0.484760 -0.027683
C34   C     C_R   0.429827 0.147214 0.480383 -0.023166
C35   C     C_R   0.382368 0.815296 0.535488 0.199930
C36   C     C_R   0.512273 0.183506 0.432089 0.202648
C37   C     C_R   0.405631 0.743891 0.542221 -0.333319
C38   C     C_R   0.538153 0.254422 0.441615 -0.335761
C39   C     C_R   0.498502 0.709817 0.497873 -0.127779
C40   C     C_R   0.484466 0.289516 0.498991 -0.131994
H1    H     H_    0.972880 0.501122 0.414495 0.174375
H2    H     H_    0.027175 0.499721 0.585435 0.175800
H3    H     H_    0.293245 0.431513 0.813959 0.141453
H4    H     H_    0.697782 0.572063 0.184534 0.140775
H5    H     H_    0.303530 0.431756 0.681476 0.151561
H6    H     H_    0.693881 0.569675 0.317657 0.148895
H7    H     H_    0.430930 0.393250 0.930078 0.129051
H8    H     H_    0.555635 0.611784 0.069076 0.129503
H9    H     H_    0.434924 0.393224 0.062287 0.130499
H10   H     H_    0.551076 0.611919 0.936753 0.128206
H11   H     H_    0.346686 0.714678 0.580541 0.173642
H12   H     H_    0.601791 0.282202 0.404074 0.168674
H13   H     H_    0.217471 0.931296 0.414360 0.122568
H14   H     H_    0.661835 0.068366 0.548853 0.128014
H15   H     H_    0.206052 0.059469 0.411585 0.118192
H16   H     H_    0.673551 0.940639 0.551243 0.128497
H17   H     H_    0.689885 0.573024 0.844536 0.140735
H18   H     H_    0.295496 0.433710 0.155054 0.142294
N1    N     N_R   0.500020 0.499980 0.689440 -0.103201
N2    N     N_R   0.499980 0.500020 0.310560 -0.105945
O1    O     O_R   0.500010 0.398180 0.560840 -0.599447
O2    O     O_R   0.499990 0.601820 0.439160 -0.596981
O3    O     O_R   0.499930 0.398180 0.439210 -0.605601
O4    O     O_R   0.500070 0.601820 0.560790 -0.623505
O5    O     O_R   0.271780 0.500000 0.546590 -0.624914
O6    O     O_R   0.728220 0.500000 0.453410 -0.622514
O7    O     O_R   0.271710 0.499990 0.424960 -0.616819
O8    O     O_R   0.728290 0.500010 0.575040 -0.604611
Zn1   Zn    Zn3+2 0.500050 0.500000 0.581210 0.951609
Zn2   Zn    Zn3+2 0.499950 0.500000 0.418790 0.957582
N3    N     N_2   0.675365 0.711771 0.405066 -0.295145
H19   H     H_    0.676534 0.731912 0.353363 0.226218
C41   C     C_3   0.831398 0.695059 0.443142 -0.803496
H20   H     H_    0.900660 0.743533 0.456507 0.227834
H21   H     H_    0.893767 0.662249 0.407592 0.237383
H22   H     H_    0.824038 0.665467 0.494349 0.242307
N4    N     N_2   0.362995 0.287139 0.611501 -0.293930
H23   H     H_    0.252719 0.273975 0.622915 0.220353
C42   C     C_3   0.483296 0.285535 0.675977 -0.773898
H24   H     H_    0.509177 0.231139 0.694668 0.214364
H25   H     H_    0.441604 0.314460 0.721023 0.230471
H26   H     H_    0.594164 0.310238 0.664323 0.260987
N5    N     N_2   0.635049 0.860151 0.393644 -0.303364
H27   H     H_    0.748912 0.844320 0.391319 0.226970
C43   C     C_3   0.544871 0.874053 0.322155 -0.796112
H28   H     H_    0.613653 0.909077 0.290849 0.240018
H29   H     H_    0.431897 0.900150 0.327203 0.252551
H30   H     H_    0.519347 0.824807 0.291299 0.224874
N6    N     N_2   0.289483 0.142529 0.585890 -0.299444
H31   H     H_    0.318344 0.154344 0.640593 0.230260
C44   C     C_3   0.120570 0.138671 0.562256 -0.801299
H32   H     H_    0.066488 0.191014 0.563698 0.224131
H33   H     H_    0.067064 0.103199 0.599319 0.240708
H34   H     H_    0.093356 0.117965 0.505825 0.247507
N7    N     N_2   0.290272 0.849905 0.581881 -0.292173
H35   H     H_    0.320859 0.836084 0.636259 0.223296
C45   C     C_3   0.121640 0.844937 0.558172 -0.797551
H36   H     H_    0.059620 0.878499 0.593168 0.240298
H37   H     H_    0.081154 0.790296 0.563159 0.230653
H38   H     H_    0.090026 0.862810 0.500517 0.241574
N8    N     N_2   0.575187 0.148101 0.375735 -0.295355
H39   H     H_    0.682921 0.167468 0.366567 0.221063
C46   C     C_3   0.465361 0.141012 0.308357 -0.791807
H40   H     H_    0.520014 0.109305 0.269061 0.237334
H41   H     H_    0.435321 0.193100 0.283558 0.233514
H42   H     H_    0.355586 0.114391 0.318477 0.245103
N9    N     N_2   0.719667 0.580044 0.703539 -0.264110
H43   H     H_    0.708406 0.632630 0.712436 0.202733
C47   C     C_3   0.881354 0.556908 0.723280 -0.789362
H44   H     H_    0.923905 0.566038 0.782370 0.220609
H45   H     H_    0.958071 0.586545 0.690779 0.235334
H46   H     H_    0.891270 0.500575 0.711349 0.250014
N10   N     N_2   0.277874 0.421447 0.297158 -0.261774
H47   H     H_    0.163667 0.438302 0.280723 0.204961
C48   C     C_3   0.292239 0.346924 0.289350 -0.788458
H48   H     H_    0.251091 0.331251 0.231762 0.211992
H49   H     H_    0.218727 0.319844 0.325306 0.244502
H50   H     H_    0.416816 0.330465 0.305574 0.251440

loop_
_geom_bond_atom_site_label_1
_geom_bond_atom_site_label_2
_ccdc_geom_bond_type
C38   C40   A    
N8    H39   S    
N9    C47   S    
C41   H20   S    
N7    H35   S    
C21   H9    S    
C45   H36   S    
C43   H28   S    
C19   C21   A    
C17   H5    S    
C47   H45   S    
C37   H11   S    
C19   H7    S    
C38   H12   S    
C20   C25   A    
C48   H48   S    
C1    O3    A    
C31   N5    S    
O2    Zn2   S    
C23   O7    A    
C19   C26   A    
C1    C40   S    
C33   C35   A    
C30   N4    S    
C2    C39   S    
N5    H27   S    
O8    Zn1   S    
C48   H49   S    
N9    H43   S    
C31   C33   A    
C23   C27   S    
N6    C44   S    
C16   H4    S    
C24   O6    A    
C22   H10   S    
C12   H18   S    
C43   H29   S    
N8    C46   S    
C3    H13   S    
C41   H21   S    
C4    C7    A    
C18   H6    S    
C45   H37   S    
C2    O4    A    
N4    C42   S    
C4    C6    A    
C3    C8    A    
C47   H46   S    
C6    H16   S    
C44   H32   S    
C42   H25   S    
C6    C8    A    
N4    H23   S    
C36   N8    S    
C9    N1    A    
C32   C34   A    
C10   N2    A    
C44   H33   S    
C27   H1    S    
N1    Zn1   S    
C32   N6    S    
O3    Zn2   S    
N2    Zn2   S    
C29   C31   A    
C48   H50   S    
C29   C39   A    
C30   C40   A    
C46   H41   S    
O4    Zn1   S    
C9    C11   A    
C20   H8    S    
C10   N10   S    
C10   C12   A    
C17   N1    A    
C18   N2    A    
N5    C43   S    
C12   C14   A    
C4    H14   S    
C13   C15   A    
C41   H22   S    
C14   C16   A    
C13   C26   S    
C46   H40   S    
C45   H38   S    
C5    C7    A    
N10   H47   S    
C43   H30   S    
O1    Zn1   S    
C15   C17   A    
C21   C25   A    
C35   C37   A    
C5    H15   S    
C24   C28   S    
C20   C22   A    
C3    C5    A    
C1    O1    A    
C42   H26   S    
N7    C45   S    
C35   N7    S    
C9    N9    S    
O7    Zn2   S    
C23   O5    A    
C36   C38   A    
C15   H3    S    
N3    H19   S    
C37   C39   A    
C47   H44   S    
C44   H34   S    
C30   C32   A    
C11   C13   A    
O6    Zn2   S    
O5    Zn1   S    
C28   H2    S    
C7    C34   S    
C46   H42   S    
C34   C36   A    
C8    C33   S    
C14   C25   S    
C24   O8    A    
C42   H24   S    
C16   C18   A    
C22   C26   A    
N3    C41   S    
C27   C28   D    
C29   N3    S    
N6    H31   S    
C11   H17   S    
C2    O2    A    
N10   C48   S    
