data_mof_unit_8759.cif
_audit_creation_date              2012-12-11T14:25:00-0500
_audit_creation_method            fapswitch 2.2
_symmetry_space_group_name_H-M    P1
_symmetry_Int_Tables_number       1
_space_group_crystal_system       triclinic
_cell_length_a                    18.854576
_cell_length_b                    11.177941
_cell_length_c                    18.772273
_cell_angle_alpha                 89.802982
_cell_angle_beta                  90.970333
_cell_angle_gamma                 90.084347
_cell_volume                      3955.7620508

loop_
_atom_site_label
_atom_site_type_symbol
_atom_type_description
_atom_site_fract_x
_atom_site_fract_y
_atom_site_fract_z
_atom_type_partial_charge
C1    C     C_R   0.729248 0.372580 0.144596 0.555960
C2    C     C_R   0.242705 0.898776 0.068923 0.008566
C3    C     C_R   0.714287 0.628346 0.383062 -0.092913
C4    C     C_R   0.943655 0.956740 0.528177 -0.082870
C5    C     C_R   0.168243 0.218521 0.398832 -0.067400
C6    C     C_R   0.443663 0.456779 0.528145 -0.082877
C7    C     C_R   0.668052 0.718531 0.398884 -0.067274
C8    C     C_R   0.942223 0.034202 0.472245 -0.049697
C9    C     C_R   0.147806 0.234725 0.468161 -0.080016
C10   C     C_R   0.442213 0.534247 0.472216 -0.049612
C11   C     C_R   0.647729 0.734783 0.468247 -0.080058
C12   C     C_R   0.878082 0.065461 0.440347 0.008476
C13   C     C_R   0.251559 0.406839 0.928011 -0.000807
C14   C     C_R   0.173880 0.163139 0.523764 -0.023815
C15   C     C_R   0.378062 0.565529 0.440349 0.008480
C16   C     C_R   0.673837 0.663170 0.523817 -0.023894
C17   C     C_R   0.740146 0.023626 0.438292 -0.007222
C18   C     C_R   0.262388 0.996163 0.560315 -0.003952
C19   C     C_R   0.240137 0.523640 0.438295 -0.007335
C20   C     C_R   0.762428 0.496269 0.560297 -0.004066
C21   C     C_R   0.732667 0.380704 0.352484 0.529278
C22   C     C_R   0.270316 0.377382 0.644291 0.530214
C23   C     C_R   0.232663 0.880675 0.352492 0.529125
C24   C     C_R   0.742473 0.396874 0.068632 0.016442
C25   C     C_R   0.770314 0.877387 0.644293 0.530658
C26   C     C_R   0.533907 0.157297 0.354094 0.514863
C27   C     C_R   0.470792 0.155225 0.648920 0.514728
C28   C     C_R   0.033901 0.657297 0.354091 0.515120
C29   C     C_R   0.970793 0.655225 0.648918 0.513811
C30   C     C_R   0.728046 0.031213 0.361779 0.554929
C31   C     C_R   0.270828 0.023015 0.635998 0.541146
C32   C     C_R   0.228044 0.531215 0.361779 0.555020
C33   C     C_R   0.770836 0.523044 0.636000 0.541219
C34   C     C_3   0.551445 0.220459 0.966256 -0.135366
C35   C     C_R   0.699440 0.844938 0.968599 -0.035239
C36   C     C_3   0.502534 0.276058 0.022838 -0.116878
C37   C     C_3   0.011120 0.773346 0.973843 -0.118541
C38   C     C_3   0.956324 0.739581 0.031285 -0.128583
C39   C     C_3   0.561354 0.108149 0.013600 -0.107515
C40   C     C_3   0.437271 0.215694 0.986963 -0.116475
C41   C     C_3   0.067728 0.695031 0.012286 -0.118804
C42   C     C_3   0.933496 0.629157 0.986975 -0.105095
C43   C     C_3   0.511776 0.163260 0.069001 0.054143
C44   C     C_3   0.486847 0.160339 0.931764 0.047354
C45   C     C_3   0.012428 0.661512 0.068375 0.046104
C46   C     C_R   0.302580 0.854850 0.032367 -0.039009
C47   C     C_3   0.988849 0.662650 0.930762 0.055296
C48   C     C_1   0.888927 0.147212 0.381249 0.305401
C49   C     C_1   0.133232 0.174130 0.587636 0.300567
C50   C     C_1   0.388885 0.647330 0.381270 0.305489
C51   C     C_1   0.633199 0.674119 0.587697 0.300566
C52   C     C_R   0.198826 0.345737 0.967917 -0.036751
C53   C     C_R   0.802028 0.351759 0.031831 -0.034684
C54   C     C_R   0.705032 0.842374 0.044316 0.019508
C55   C     C_R   0.299559 0.847848 0.956775 0.030680
C56   C     C_R   0.204673 0.343778 0.043615 0.025542
C57   C     C_R   0.269367 0.374829 0.854212 0.555630
C58   C     C_R   0.798913 0.345838 0.956189 0.025694
C59   C     C_R   0.806953 0.974624 0.038641 -0.184840
C60   C     C_R   0.185144 0.945693 0.955721 -0.172942
C61   C     C_R   0.304390 0.480988 0.037113 -0.181433
C62   C     C_R   0.685521 0.447011 0.955833 -0.180650
C63   C     C_R   0.805817 0.968284 0.965801 -0.143494
C64   C     C_R   0.183989 0.939932 0.028799 -0.149099
C65   C     C_R   0.302613 0.475154 0.964244 -0.153991
C66   C     C_R   0.683869 0.438709 0.028725 -0.139626
C67   C     C_R   0.641367 0.785825 0.935831 -0.108470
C68   C     C_R   0.229368 0.873144 0.144755 0.551130
C69   C     C_R   0.364596 0.814950 0.068198 -0.121707
C70   C     C_R   0.141152 0.284996 0.935408 -0.110061
C71   C     C_R   0.863600 0.309151 0.067336 -0.123205
C72   C     C_R   0.096953 0.212342 0.975340 -0.197993
C73   C     C_R   0.914817 0.246177 0.030423 -0.212586
C74   C     C_R   0.597218 0.712486 0.975353 -0.203937
C75   C     C_R   0.416692 0.753634 0.031640 -0.204690
C76   C     C_R   0.607571 0.700165 0.048357 -0.091511
C77   C     C_R   0.408077 0.731303 0.959195 -0.115249
C78   C     C_R   0.107595 0.200737 0.048342 -0.092974
C79   C     C_R   0.769711 0.874179 0.854561 0.560226
C80   C     C_R   0.906384 0.226364 0.957740 -0.100271
C81   C     C_R   0.661285 0.763336 0.082979 0.405880
C82   C     C_R   0.350404 0.778025 0.921595 0.396082
C83   C     C_R   0.161534 0.264054 0.082534 0.404301
C84   C     C_R   0.849137 0.275330 0.920501 0.402390
C85   C     C_R   0.533720 0.155359 0.143975 0.540131
C86   C     C_R   0.465549 0.154655 0.856472 0.539880
C87   C     C_R   0.033808 0.655044 0.143780 0.539413
C88   C     C_R   0.967072 0.655239 0.855645 0.537263
C89   C     C_R   0.754885 0.917917 0.078695 0.009999
C90   C     C_3   0.447219 0.103218 0.034263 -0.122841
C91   C     C_R   0.244753 0.908670 0.919163 0.022353
C92   C     C_R   0.254012 0.420767 0.077699 0.015689
C93   C     C_R   0.744679 0.408767 0.919024 0.013751
C94   C     C_R   0.504381 0.149229 0.578097 0.006147
C95   C     C_R   0.510326 0.164881 0.428652 0.007884
C96   C     C_R   0.004385 0.649229 0.578094 0.006308
C97   C     C_R   0.010331 0.664870 0.428650 0.007778
C98   C     C_R   0.491182 0.047422 0.535301 -0.042276
C99   C     C_R   0.481235 0.062248 0.461478 -0.054081
C100  C     C_R   0.991193 0.547416 0.535302 -0.042132
C101  C     C_3   0.496344 0.047919 0.978227 -0.100665
C102  C     C_R   0.981248 0.562232 0.461478 -0.054085
C103  C     C_R   0.542331 0.253032 0.472665 -0.151141
C104  C     C_R   0.539570 0.244374 0.547134 -0.172580
C105  C     C_R   0.042339 0.753015 0.472659 -0.151172
C106  C     C_R   0.039580 0.744367 0.547127 -0.172587
C107  C     C_R   0.494031 0.929631 0.563161 -0.106732
C108  C     C_R   0.457790 0.962984 0.421655 -0.097741
C109  C     C_R   0.994055 0.429626 0.563166 -0.106784
C110  C     C_R   0.957817 0.462956 0.421657 -0.097784
C111  C     C_R   0.982745 0.332423 0.519959 0.349111
C112  C     C_3   0.990085 0.551348 0.024955 -0.104378
C113  C     C_R   0.973671 0.350057 0.447587 0.359410
C114  C     C_R   0.482702 0.832440 0.519956 0.349146
C115  C     C_R   0.473639 0.850085 0.447582 0.359480
C116  C     C_R   0.756977 0.921613 0.571953 0.010282
C117  C     C_R   0.260372 0.934664 0.417087 0.001978
C118  C     C_R   0.256978 0.421615 0.571952 0.010268
C119  C     C_R   0.760370 0.434776 0.417059 0.002024
C120  C     C_R   0.816606 0.942917 0.528126 0.021880
C121  C     C_R   0.236623 0.047635 0.436492 0.008614
C122  C     C_R   0.316609 0.442957 0.528130 0.021942
C123  C     C_3   0.044836 0.584855 0.968093 -0.118290
C124  C     C_R   0.736514 0.547680 0.436481 0.008653
C125  C     C_R   0.811143 0.017166 0.468341 0.015735
C126  C     C_R   0.224920 0.071275 0.509434 -0.014885
C127  C     C_R   0.311133 0.517210 0.468349 0.015583
C128  C     C_R   0.724875 0.571317 0.509443 -0.014892
C129  C     C_R   0.681342 0.007088 0.481805 -0.173178
C130  C     C_R   0.296834 0.892910 0.537021 -0.143072
C131  C     C_R   0.181330 0.507062 0.481803 -0.173174
C132  C     C_R   0.796991 0.393161 0.536963 -0.143084
C133  C     C_R   0.742962 0.967661 0.149690 0.599286
C134  C     C_R   0.753112 0.904192 0.929002 0.008038
C135  C     C_R   0.256969 0.966052 0.849826 0.594554
C136  C     C_R   0.242786 0.468263 0.149374 0.602666
C137  C     C_R   0.756964 0.466080 0.849777 0.592388
C138  C     C_R   0.690392 0.962865 0.550644 -0.161221
C139  C     C_R   0.291634 0.859361 0.467264 -0.161965
C140  C     C_R   0.190382 0.462828 0.550639 -0.161355
C141  C     C_R   0.791789 0.359603 0.467209 -0.162015
C142  C     C_R   0.883134 0.894868 0.545124 -0.081936
C143  C     C_R   0.214504 0.128348 0.383074 -0.092987
C144  C     C_R   0.383143 0.394921 0.545122 -0.081859
Cr1   Cr    Cr6+3 0.772820 0.169820 0.252640 1.032626
Cr2   Cr    Cr6+3 0.383280 0.011130 0.749340 1.086539
Cr3   Cr    Cr6+3 0.116720 0.511130 0.250660 1.079525
Cr4   Cr    Cr6+3 0.883280 0.511130 0.749340 1.086960
Cr5   Cr    Cr6+3 0.227180 0.169820 0.747360 1.035566
Cr6   Cr    Cr6+3 0.272820 0.669820 0.252640 1.032706
Cr7   Cr    Cr6+3 0.727180 0.669820 0.747360 1.036197
Cr8   Cr    Cr6+3 0.615040 0.323610 0.249150 1.040209
Cr9   Cr    Cr6+3 0.384960 0.323610 0.750850 1.052316
Cr10  Cr    Cr6+3 0.115040 0.823610 0.249150 1.040008
Cr11  Cr    Cr6+3 0.884960 0.823610 0.750850 1.051483
Cr12  Cr    Cr6+3 0.616720 0.011130 0.250660 1.080285
F1    F     F_    0.990831 0.221962 0.547551 -0.660357
F2    F     F_    0.003872 0.271529 0.402863 -0.669386
F3    F     F_    0.490802 0.721981 0.547548 -0.660369
F4    F     F_    0.503873 0.771587 0.402860 -0.669334
F5    F     F_    0.674284 0.737910 0.152770 -0.633796
F6    F     F_    0.340722 0.743616 0.852794 -0.624259
F7    F     F_    0.175092 0.238541 0.152213 -0.634711
F8    F     F_    0.839224 0.242654 0.851430 -0.622997
H1    H     H_    0.612783 0.063787 0.025975 0.124382
H2    H     H_    0.441956 0.970813 0.366202 0.168498
H3    H     H_    0.014245 0.409242 0.616046 0.183157
H4    H     H_    0.941985 0.470771 0.366201 0.168682
H5    H     H_    0.628372 0.021659 0.460973 0.139047
H6    H     H_    0.322993 0.831369 0.573598 0.178264
H7    H     H_    0.128357 0.521596 0.460967 0.139074
H8    H     H_    0.823266 0.331716 0.573507 0.178398
H9    H     H_    0.886894 0.816147 0.576965 0.155587
H10   H     H_    0.227687 0.114738 0.327710 0.155644
H11   H     H_    0.386915 0.316201 0.576962 0.155513
H12   H     H_    0.385801 0.259423 0.974260 0.129893
H13   H     H_    0.727388 0.614739 0.327667 0.156082
H14   H     H_    0.645207 0.952517 0.584898 0.123402
H15   H     H_    0.306715 0.770092 0.454206 0.133588
H16   H     H_    0.145191 0.452441 0.584887 0.123268
H17   H     H_    0.807018 0.270415 0.454136 0.133712
H18   H     H_    0.991899 0.947164 0.558163 0.149985
H19   H     H_    0.143202 0.268510 0.356291 0.212163
H20   H     H_    0.491922 0.447195 0.558106 0.149975
H21   H     H_    0.642964 0.768543 0.356372 0.212485
H22   H     H_    0.992352 0.069721 0.454106 0.213031
H23   H     H_    0.123650 0.719052 0.024539 0.125735
H24   H     H_    0.109424 0.302819 0.478256 0.173158
H25   H     H_    0.492337 0.569760 0.454059 0.213009
H26   H     H_    0.609392 0.802914 0.478383 0.173038
H27   H     H_    0.593691 0.265112 0.935717 0.125010
H28   H     H_    0.504381 0.369575 0.042528 0.111689
H29   H     H_    0.020275 0.864047 0.951525 0.109660
H30   H     H_    0.920102 0.801701 0.058745 0.123980
H31   H     H_    0.404304 0.057705 0.063597 0.125903
H32   H     H_    0.495035 0.954150 0.959023 0.146260
H33   H     H_    0.982182 0.460819 0.047503 0.144710
H34   H     H_    0.877920 0.601488 0.975166 0.120760
H35   H     H_    0.081277 0.522908 0.940823 0.127291
H36   H     H_    0.847986 0.028870 0.063408 0.156654
H37   H     H_    0.139883 0.984238 0.927862 0.142783
H38   H     H_    0.344473 0.537703 0.061455 0.159429
H39   H     H_    0.640555 0.486991 0.928232 0.145503
H40   H     H_    0.628270 0.795997 0.880010 0.163171
H41   H     H_    0.374147 0.831378 0.124183 0.161249
H42   H     H_    0.127916 0.294558 0.879571 0.161886
H43   H     H_    0.873645 0.324559 0.123320 0.162388
H44   H     H_    0.848860 0.011051 0.938322 0.170411
H45   H     H_    0.571782 0.326592 0.449757 0.151780
H46   H     H_    0.134800 0.964101 0.053532 0.151656
H47   H     H_    0.344324 0.520682 0.936241 0.177249
H48   H     H_    0.634813 0.463334 0.053528 0.148373
H49   H     H_    0.056338 0.160492 0.948857 0.107964
H50   H     H_    0.959777 0.209232 0.059052 0.123561
H51   H     H_    0.557077 0.660300 0.948468 0.108990
H52   H     H_    0.462089 0.718914 0.060514 0.129339
H53   H     H_    0.074902 0.140099 0.078589 0.123895
H54   H     H_    0.942723 0.169569 0.929908 0.122869
H55   H     H_    0.574786 0.639157 0.078253 0.121686
H56   H     H_    0.564984 0.310722 0.580747 0.128792
H57   H     H_    0.444595 0.674496 0.931741 0.125206
H58   H     H_    0.071784 0.826569 0.449749 0.151780
H59   H     H_    0.064996 0.810718 0.580736 0.128667
H60   H     H_    0.514224 0.909237 0.616038 0.183286
N1    N     N_1   0.897361 0.207385 0.331664 -0.205339
N2    N     N_1   0.099582 0.184276 0.638365 -0.212958
N3    N     N_1   0.397313 0.707537 0.331698 -0.204861
N4    N     N_1   0.599547 0.684228 0.638426 -0.212629
O1    O     O_R   0.788190 0.043000 0.172520 -0.529884
O2    O     O_R   0.454170 0.051610 0.669840 -0.534313
O3    O     O_R   0.045830 0.551610 0.330160 -0.517842
O4    O     O_R   0.954170 0.551610 0.669840 -0.534887
O5    O     O_R   0.681920 0.959720 0.327070 -0.498292
O6    O     O_R   0.318080 0.959720 0.672930 -0.480834
O7    O     O_R   0.181920 0.459720 0.327070 -0.498470
O8    O     O_R   0.818080 0.459720 0.672930 -0.480267
O9    O     O_3   0.668190 0.168190 0.250820 -0.299609
O10   O     O_3   0.331810 0.168190 0.749180 -0.297655
O11   O     O_3   0.168190 0.668190 0.250820 -0.299780
O12   O     O_R   0.211810 0.043000 0.827480 -0.529537
O13   O     O_3   0.831810 0.668190 0.749180 -0.297596
O14   O     O_R   0.766240 0.292300 0.176860 -0.513779
O15   O     O_R   0.233760 0.292300 0.823140 -0.516217
O16   O     O_R   0.266240 0.792300 0.176860 -0.513567
O17   O     O_R   0.733760 0.792300 0.823140 -0.516849
O18   O     O_R   0.670310 0.409160 0.168720 -0.497675
O19   O     O_R   0.329690 0.409160 0.831280 -0.491137
O20   O     O_R   0.170310 0.909160 0.168720 -0.497208
O21   O     O_R   0.829690 0.909160 0.831280 -0.489769
O22   O     O_R   0.556160 0.251900 0.173380 -0.507189
O23   O     O_R   0.288190 0.543000 0.172520 -0.530262
O24   O     O_R   0.443840 0.251900 0.826620 -0.503716
O25   O     O_R   0.056160 0.751900 0.173380 -0.505287
O26   O     O_R   0.943840 0.751900 0.826620 -0.504993
O27   O     O_R   0.545410 0.050140 0.168240 -0.510977
O28   O     O_R   0.454590 0.050140 0.831760 -0.515076
O29   O     O_R   0.045410 0.550140 0.168240 -0.515016
O30   O     O_R   0.954590 0.550140 0.831760 -0.510336
O31   O     O_R   0.681530 0.958350 0.176970 -0.437663
O32   O     O_R   0.318470 0.958350 0.823030 -0.430614
O33   O     O_R   0.181530 0.458350 0.176970 -0.435258
O34   O     O_R   0.711810 0.543000 0.827480 -0.529300
O35   O     O_R   0.818470 0.458350 0.823030 -0.431419
O36   O     O_R   0.788610 0.044480 0.334450 -0.528655
O37   O     O_R   0.211390 0.044480 0.665550 -0.507204
O38   O     O_R   0.288610 0.544480 0.334450 -0.528296
O39   O     O_R   0.711390 0.544480 0.665550 -0.507030
O40   O     O_R   0.766630 0.293670 0.326970 -0.520993
O41   O     O_R   0.233370 0.293670 0.673030 -0.522651
O42   O     O_R   0.266630 0.793670 0.326970 -0.521063
O43   O     O_R   0.733370 0.793670 0.673030 -0.522552
O44   O     O_R   0.670730 0.410640 0.330640 -0.508736
O45   O     O_R   0.556550 0.253260 0.323480 -0.502035
O46   O     O_R   0.329270 0.410640 0.669360 -0.495969
O47   O     O_R   0.170730 0.910640 0.330640 -0.508640
O48   O     O_R   0.829270 0.910640 0.669360 -0.495893
O49   O     O_R   0.443450 0.253260 0.676520 -0.517397
O50   O     O_R   0.056550 0.753260 0.323480 -0.501955
O51   O     O_R   0.943450 0.753260 0.676520 -0.517976
O52   O     O_R   0.545830 0.051610 0.330160 -0.517980

loop_
_geom_bond_atom_site_label_1
_geom_bond_atom_site_label_2
_ccdc_geom_bond_type
Cr2   O6    S    
Cr5   O37   S    
C57   O19   A    
C26   O52   A    
C114  C115  A    
C27   O49   A    
C131  H7    S    
C135  O32   A    
C45   C87   S    
C4    C142  A    
C95   C99   A    
C5    C143  A    
C105  H58   S    
C41   H23   S    
C38   C45   S    
C131  C140  A    
C23   O47   A    
C90   H31   S    
C46   C55   A    
C80   C84   A    
C97   C105  A    
C137  O34   A    
C71   H43   S    
C72   H49   S    
C94   C104  A    
C100  C109  A    
C15   C127  A    
C17   C30   S    
C64   H46   S    
C117  C139  A    
C20   C132  A    
C118  C140  A    
C19   C32   S    
C35   C134  A    
C31   O6    A    
C85   O27   A    
C43   C85   S    
C42   H34   S    
C71   C73   A    
C120  C125  A    
C6    H20   S    
C37   H29   S    
C39   H1    S    
Cr7   O17   S    
C37   C38   S    
C47   C123  S    
C36   C40   S    
Cr5   O15   S    
Cr1   O36   S    
C34   C44   S    
C111  C113  A    
C67   C74   A    
C33   O8    A    
C20   C33   S    
C63   H44   S    
C119  C141  A    
C73   H50   S    
C18   C130  A    
C66   H48   S    
C53   C71   A    
C56   C83   A    
C22   C118  S    
C108  H2    S    
C136  O33   A    
C29   O4    A    
Cr11  O48   S    
C53   C58   A    
Cr12  O9    S    
C29   O51   A    
C59   C63   A    
C14   C126  A    
C115  F4    S    
C60   C64   A    
C11   H26   S    
C21   C119  S    
C77   C82   A    
C140  H16   S    
Cr1   O40   S    
C141  H17   S    
C30   O5    A    
C139  H15   S    
C61   C65   A    
Cr6   O11   S    
C62   C93   A    
C51   N4    T    
C41   C45   S    
C18   C31   S    
C132  H8    S    
C54   C81   A    
C21   O44   A    
Cr10  O25   S    
C28   C97   S    
C23   O42   A    
Cr2   O32   S    
C16   C51   S    
C87   O29   A    
Cr8   O22   S    
Cr11  O21   S    
C68   O20   A    
C99   C108  A    
C74   C76   A    
C108  C115  A    
C123  H35   S    
C25   O48   A    
C2    C68   S    
C109  C111  A    
C78   H53   S    
C13   C57   S    
C76   H55   S    
C86   O28   A    
C93   C137  S    
C118  C122  A    
C122  C127  A    
C42   C112  S    
Cr11  O51   S    
Cr7   O34   S    
Cr8   O9    S    
Cr2   O10   S    
C37   C47   S    
C101  H32   S    
Cr3   O3    S    
C95   C103  A    
C142  H9    S    
C10   H25   S    
C89   C133  S    
C62   C66   A    
C34   C39   S    
C25   C116  S    
C40   H12   S    
C82   F6    S    
C8    H22   S    
C116  C120  A    
C5    C9    A    
C61   H38   S    
Cr7   O13   S    
C106  H59   S    
C28   O3    A    
C35   C67   A    
C59   H36   S    
C8    C12   A    
C75   C77   A    
C25   O43   A    
C22   O41   A    
C98   C99   A    
C6    C144  A    
C107  H60   S    
C132  C141  A    
C79   C134  S    
Cr1   O1    S    
C36   H28   S    
C7    H21   S    
C27   C94   S    
C23   C117  S    
C29   C96   S    
C61   C92   A    
Cr3   O11   S    
C69   H41   S    
C40   C90   S    
C18   C126  A    
C96   C100  A    
Cr1   O14   S    
C34   C36   S    
C37   C41   S    
C1    O14   A    
C40   C44   S    
C24   C66   A    
C1    C24   S    
C74   H51   S    
C31   O37   A    
C12   C48   S    
C9    H24   S    
C103  H45   S    
Cr9   O10   S    
C79   O17   A    
C58   C93   A    
Cr12  O52   S    
C3    C7    A    
Cr8   O45   S    
Cr11  O26   S    
C94   C98   A    
C135  O12   A    
Cr9   O49   S    
C55   C91   A    
C21   O40   A    
C78   C83   A    
Cr4   O4    S    
Cr6   O38   S    
Cr8   O18   S    
C97   C102  A    
Cr12  O27   S    
C88   O30   A    
C124  C128  A    
Cr12  O31   S    
Cr6   O16   S    
C35   C54   A    
Cr6   O42   S    
C50   N3    T    
C92   C136  S    
C130  C139  A    
C86   O24   A    
Cr9   O24   S    
C43   C90   S    
C63   C134  A    
C112  C123  S    
C88   O26   A    
C12   C125  A    
C24   C53   A    
C98   C107  A    
C38   H30   S    
Cr3   O29   S    
C9    C14   A    
C107  C114  A    
C26   O45   A    
C13   C52   A    
C11   C16   A    
C27   O2    A    
Cr5   O10   S    
C137  O35   A    
Cr7   O39   S    
C102  C110  A    
C112  H33   S    
C3    C124  A    
C83   F7    S    
C81   F5    S    
C6    C10   A    
C38   C42   S    
C105  C106  A    
C1    O18   A    
C111  F1    S    
Cr5   O41   S    
C57   O15   A    
C80   H54   S    
C48   N1    T    
C130  H6    S    
Cr9   O19   S    
C69   C75   A    
C133  O1    A    
C60   H37   S    
C133  O31   A    
C91   C135  S    
C103  C104  A    
C36   C43   S    
C143  H10   S    
C4    H18   S    
C5    H19   S    
C22   O46   A    
C32   O7    A    
Cr3   O7    S    
C121  C143  A    
C122  C144  A    
C4    C8    A    
C17   C125  A    
C45   C112  S    
Cr6   O23   S    
C13   C65   A    
C119  C124  A    
C2    C46   A    
C7    C11   A    
C33   O39   A    
C129  H5    S    
C34   H27   S    
C68   O16   A    
C20   C128  A    
C10   C15   A    
C59   C89   A    
C14   C49   S    
C75   H52   S    
Cr5   O12   S    
C15   C50   S    
C117  C121  A    
C104  H56   S    
C46   C69   A    
C67   H40   S    
C109  H3    S    
C110  H4    S    
C129  C138  A    
Cr1   O9    S    
C72   C78   A    
C136  O23   A    
C32   O38   A    
Cr9   O46   S    
C44   C101  S    
C113  F2    S    
C84   F8    S    
C85   O22   A    
C79   O21   A    
C44   C86   S    
C2    C64   A    
C39   C101  S    
C116  C138  A    
C19   C131  A    
C114  F3    S    
C17   C129  A    
Cr10  O50   S    
C120  C142  A    
C54   C89   A    
C87   O25   A    
C39   C43   S    
Cr10  O11   S    
Cr4   O8    S    
C90   C101  S    
C58   C84   A    
Cr12  O5    S    
C100  C102  A    
C55   C82   A    
C16   C128  A    
C110  C113  A    
C77   H57   S    
Cr10  O20   S    
Cr4   O13   S    
Cr3   O33   S    
C138  H14   S    
Cr11  O13   S    
Cr2   O2    S    
C60   C91   A    
C26   C95   S    
C96   C106  A    
Cr2   O28   S    
Cr4   O30   S    
C76   C81   A    
C28   O50   A    
C70   H42   S    
C47   C88   S    
C41   C123  S    
C3    H13   S    
C121  C126  A    
Cr7   O43   S    
Cr8   O44   S    
C144  H11   S    
C19   C127  A    
C73   C80   A    
C30   O36   A    
C42   C47   S    
Cr4   O35   S    
Cr10  O47   S    
C62   H39   S    
C65   H47   S    
C52   C70   A    
C56   C92   A    
C70   C72   A    
C49   N2    T    
C52   C56   A    
