data_mof_unit_42359.cif
_audit_creation_date              2013-03-05T15:52:30-0500
_audit_creation_method            fapswitch 2.2
_symmetry_space_group_name_H-M    P1
_symmetry_Int_Tables_number       1
_space_group_crystal_system       triclinic
_cell_length_a                    27.77431
_cell_length_b                    10.822424
_cell_length_c                    9.593761
_cell_angle_alpha                 91.141447
_cell_angle_beta                  90.148865
_cell_angle_gamma                 94.167407
_cell_volume                      2875.52501558

loop_
_atom_site_label
_atom_site_type_symbol
_atom_site_description
_atom_site_fract_x
_atom_site_fract_y
_atom_site_fract_z
_atom_type_partial_charge
O1    O     O_R   0.500000 0.319640 0.618810 -0.592003
O2    O     O_R   0.500000 0.319660 0.381240 -0.552003
C1    C     C_R   0.502501 0.262673 0.499269 0.802537
O3    O     O_R   0.430260 0.500010 0.618770 -0.595952
O4    O     O_R   0.430270 0.500030 0.381200 -0.518920
C2    C     C_R   0.407526 0.500207 0.499768 0.834010
Cu1   Cu    Cu3+1 0.500000 0.499990 0.640660 0.954072
Cu2   Cu    Cu3+1 0.500000 0.500010 0.359340 1.002710
O5    O     O_R   0.500000 0.680340 0.618760 -0.574040
O6    O     O_R   0.500000 0.680360 0.381190 -0.573371
O7    O     O_R   0.569730 0.499970 0.618800 -0.576115
O8    O     O_R   0.569740 0.499990 0.381230 -0.607086
C3    C     C_R   0.494056 0.736021 0.502067 0.845989
C4    C     C_R   0.592353 0.495633 0.500032 0.821119
C5    C     C_R   0.175199 0.419316 0.426416 0.609150
O9    O     O_2   0.197339 0.330910 0.355232 -0.510783
N1    N     N_R   0.202096 0.510849 0.498043 -0.452483
C6    C     C_R   0.180649 0.601635 0.571369 0.533412
C7    C     C_R   0.280008 0.534400 0.374916 0.532664
C8    C     C_R   0.330195 0.528166 0.375445 -0.259428
C9    C     C_R   0.328239 0.483447 0.622173 -0.214190
C10   C     C_R   0.278164 0.486160 0.621193 -0.170309
C11   C     C_R   0.253787 0.510575 0.497875 0.253448
C12   C     C_R   0.101837 0.506514 0.506084 -0.049651
C13   C     C_R   0.124622 0.416008 0.428163 -0.044136
C14   C     C_R   0.096435 0.326194 0.351511 -0.132115
C15   C     C_R   0.130120 0.601308 0.576554 -0.020966
C16   C     C_R   0.354655 0.503587 0.499106 -0.109593
H1    H     H_    0.346179 0.464141 0.718881 0.174894
H2    H     H_    0.258140 0.468459 0.716305 0.175921
H3    H     H_    0.112919 0.260011 0.283953 0.192468
C17   C     C_R   0.645195 0.489442 0.500982 -0.057709
C18   C     C_R   0.972267 0.389781 0.470596 -0.004089
C19   C     C_R   0.976885 0.600977 0.573076 0.014242
C20   C     C_R   0.949145 0.494885 0.520818 0.052136
C21   C     C_R   0.943627 0.276932 0.446723 0.127171
C22   C     C_R   0.893534 0.276624 0.446120 -0.125434
C23   C     C_R   0.870461 0.384170 0.477884 -0.051763
C24   C     C_R   0.897976 0.493192 0.519967 -0.074542
C25   C     C_R   0.874309 0.599577 0.561928 -0.081639
C26   C     C_R   0.823336 0.594133 0.552950 0.589407
N2    N     N_R   0.797773 0.487504 0.509565 -0.467321
C27   C     C_R   0.820038 0.383111 0.474593 0.595557
C28   C     C_R   0.719954 0.474141 0.628843 -0.119529
C29   C     C_R   0.669898 0.476406 0.627224 -0.194683
C30   C     C_R   0.671449 0.496872 0.376132 -0.244547
C31   C     C_R   0.721679 0.495801 0.377460 0.211667
C32   C     C_R   0.746094 0.484611 0.504603 0.305775
O10   O     O_2   0.793311 0.278661 0.436503 -0.501616
C33   C     C_R   0.022881 0.401720 0.449596 0.049044
C34   C     C_R   0.050745 0.502418 0.512809 0.078626
C35   C     C_R   0.027960 0.599673 0.580777 0.058689
C36   C     C_R   0.046346 0.321207 0.359660 -0.159048
H4    H     H_    0.650642 0.468406 0.724934 0.167216
H5    H     H_    0.738615 0.465422 0.727027 0.165027
H6    H     H_    0.872539 0.189859 0.425400 0.219130
H7    H     H_    0.026199 0.256797 0.290397 0.180265
O11   O     O_2   0.208154 0.692190 0.638417 -0.541734
C37   C     C_R   0.107400 0.692996 0.650866 -0.133303
H8    H     H_    0.349872 0.543880 0.279301 0.201184
H9    H     H_    0.128303 0.766018 0.707728 0.190883
C38   C     C_R   0.952695 0.705397 0.615090 -0.215797
C39   C     C_R   0.902583 0.706118 0.610459 0.228465
O12   O     O_2   0.799021 0.693806 0.585561 -0.474441
C40   C     C_R   0.057279 0.692820 0.652451 -0.189129
H10   H     H_    0.972171 0.790518 0.648763 0.172592
H11   H     H_    0.653147 0.504607 0.277511 0.179179
H12   H     H_    0.042471 0.765159 0.714160 0.153718
H13   H     H_    0.473620 0.107567 0.291547 0.180768
C41   C     C_R   0.539189 0.125388 0.737538 -0.122832
H14   H     H_    0.559131 0.214383 0.727887 0.153739
C42   C     C_R   0.539444 0.069872 0.867174 -0.139315
H15   H     H_    0.557800 0.117286 0.954764 0.146478
C43   C     C_R   0.514573 0.955332 0.884826 -0.115752
H16   H     H_    0.513133 0.914223 0.986547 0.174418
C44   C     C_R   0.493313 0.891274 0.770180 -0.104989
H17   H     H_    0.473073 0.804583 0.790419 0.175123
C45   C     C_R   0.497914 0.940245 0.634382 0.081127
C46   C     C_R   0.514050 0.065820 0.623185 0.095483
C47   C     C_R   0.503330 0.127869 0.499672 -0.151315
C48   C     C_R   0.484052 0.060476 0.384043 -0.215270
C49   C     C_R   0.476446 0.932549 0.387143 0.138889
C50   C     C_R   0.487170 0.869891 0.509473 -0.158321
C51   C     C_R   0.571837 0.641177 0.152610 -0.096920
H18   H     H_    0.568190 0.671562 0.257890 0.212904
C52   C     C_R   0.616294 0.671274 0.094620 -0.242963
H19   H     H_    0.645508 0.714194 0.157845 0.189712
C53   C     C_R   0.622454 0.653236 0.954186 -0.196185
H20   H     H_    0.657346 0.684070 0.911693 0.200079
C54   C     C_R   0.582004 0.625654 0.868804 0.201044
C55   C     C_R   0.537825 0.567006 0.927734 0.117877
C56   C     C_R   0.535787 0.569555 0.077676 0.099213
N3    N     N_R   0.500460 0.501210 0.147910 -0.224449
C57   C     C_R   0.466056 0.430654 0.072753 0.590562
H21   H     H_    0.436750 0.385423 0.864550 0.151813
C58   C     C_R   0.465295 0.435461 0.923659 -0.163847
N4    N     N_R   0.500480 0.501290 0.852040 -0.216941
O13   O     O_3   0.256140 0.557248 0.252641 -0.559376
C59   C     C_3   0.259926 0.686057 0.231211 -0.278103
H22   H     H_    0.298079 0.721096 0.213848 0.174448
H23   H     H_    0.244163 0.737442 0.319835 0.176386
H24   H     H_    0.239138 0.705062 0.136102 0.207162
I1    I     I_    0.875908 0.875075 0.686402 -0.175548
I2    I     I_    0.759085 0.516262 0.186163 -0.299338
I3    I     I_    0.440168 0.845229 0.211333 -0.457440
O14   O     O_3   0.430602 0.362307 0.145996 -0.550731
C60   C     C_3   0.420474 0.243027 0.085924 -0.329226
H25   H     H_    0.453739 0.199690 0.051189 0.151591
H26   H     H_    0.394315 0.246243 0.998593 0.168989
H27   H     H_    0.402998 0.182453 0.165934 0.212047
I4    I     I_    0.597103 0.756335 0.705698 -0.340641
I5    I     I_    0.969487 0.095572 0.450491 -0.343247

loop_
_geom_bond_atom_site_label_1
_geom_bond_atom_site_label_2
_geom_bond_distance
_ccdc_geom_bond_type
N3    C57   1.372765 A    
C26   N2    1.367216 A    
C20   C24   1.419989 A    
H21   C58   1.079998 S    
C12   C15   1.406810 A    
C48   C49   1.386165 A    
Cu1   Cu2   2.698921 S    
Cu1   O7    1.948581 S    
N1    C11   1.435914 S    
C25   C39   1.417064 A    
C43   C44   1.394917 A    
C21   C22   1.391073 A    
C22   C23   1.397678 A    
C44   C45   1.418827 A    
C23   C24   1.409779 A    
C47   C48   1.398984 A    
O7    C4    1.304303 A    
C52   C53   1.370461 A    
C5    C13   1.402758 A    
O14   C60   1.412246 S    
C5    O9    1.349659 S    
C19   C38   1.408739 A    
C18   C21   1.422487 A    
Cu1   O5    1.967257 S    
C19   C20   1.417653 A    
C17   C29   1.405021 A    
C49   I3    2.131304 S    
O5    C3    1.297723 A    
C22   H6    1.083352 S    
C45   C50   1.426032 A    
C6    O11   1.349565 S    
C2    C16   1.471586 S    
C31   C32   1.405653 A    
C21   I5    2.139422 S    
C60   H25   1.114888 S    
C41   H14   1.081336 S    
C8    H8    1.083398 S    
C10   H2    1.082936 S    
C12   C34   1.418182 A    
C14   H3    1.083251 S    
O1    Cu1   1.958892 S    
C9    C10   1.393259 A    
C60   H26   1.110273 S    
C54   I4    2.151753 S    
O3    Cu1   1.947808 S    
C1    C47   1.460843 S    
C7    O13   1.381324 S    
C33   C34   1.415283 A    
C44   H17   1.079415 S    
C37   H9    1.083368 S    
C33   C36   1.408528 A    
C43   H16   1.080184 S    
C38   H10   1.077233 S    
C34   C35   1.416022 A    
C12   C13   1.407875 A    
C42   C43   1.388157 A    
C4    C17   1.474039 S    
C24   C25   1.418674 A    
C36   H7    1.078666 S    
C45   C46   1.406021 A    
C27   O10   1.350023 S    
C8    C16   1.405140 A    
C18   C33   1.417601 A    
C9    H1    1.083134 S    
C55   N4    1.406173 A    
O1    C1    1.295629 A    
C7    C11   1.406306 A    
C38   C39   1.393011 A    
C59   H22   1.113307 S    
Cu2   O8    1.947803 S    
C40   H12   1.078026 S    
C58   N4    1.362521 A    
N1    C6    1.369214 A    
N2    C32   1.434054 S    
C51   H18   1.063340 S    
C57   C58   1.432518 A    
C39   I1    2.137724 S    
C25   C26   1.415010 A    
C59   H23   1.114594 S    
C9    C16   1.404022 A    
C53   C54   1.399651 A    
C29   H4    1.082307 S    
C49   C50   1.408956 A    
C60   H27   1.109177 S    
O3    C2    1.303327 A    
N2    C27   1.363430 A    
C14   C36   1.390773 A    
C55   C56   1.439563 A    
C28   C29   1.392299 A    
C5    N1    1.369025 A    
C30   C31   1.396018 A    
C57   O14   1.388862 S    
C31   I2    2.118785 S    
Cu1   N4    2.027701 S    
C41   C46   1.417424 A    
C52   H19   1.083277 S    
C17   C30   1.404541 A    
O2    Cu2   1.967257 S    
C6    C15   1.404168 A    
O8    C4    1.303250 A    
C42   H15   1.082560 S    
O6    C3    1.312465 A    
O4    Cu2   1.948584 S    
C3    C50   1.475433 S    
C19   C35   1.421398 A    
C7    C8    1.400433 A    
O2    C1    1.304238 A    
C13   C14   1.398710 A    
C30   H11   1.080485 S    
C15   C37   1.398662 A    
C37   C40   1.392073 A    
C28   H5    1.083015 S    
C54   C55   1.460413 A    
O4    C2    1.302605 A    
C56   N3    1.371736 A    
C18   C20   1.422794 A    
H13   C48   1.081335 S    
C46   C47   1.415139 A    
C23   C27   1.399949 A    
C59   H24   1.109160 S    
C53   H20   1.084965 S    
Cu2   O6    1.958892 S    
O13   C59   1.409560 S    
Cu2   N3    2.028777 S    
C10   C11   1.400792 A    
C51   C52   1.375710 A    
C41   C42   1.392175 A    
C51   C56   1.407630 A    
C26   O12   1.345765 S    
C35   C40   1.415032 A    
C28   C32   1.399489 A    
