data_mof_unit_45788.cif
_audit_creation_date              2012-12-10T17:55:54-0500
_audit_creation_method            fapswitch 2.2
_symmetry_space_group_name_H-M    P1
_symmetry_Int_Tables_number       1
_space_group_crystal_system       triclinic
_cell_length_a                    18.31843
_cell_length_b                    18.429851
_cell_length_c                    25.967664
_cell_angle_alpha                 90.000218
_cell_angle_beta                  89.898206
_cell_angle_gamma                 90.000081
_cell_volume                      8766.82366016

loop_
_atom_site_label
_atom_site_type_symbol
_atom_type_description
_atom_site_fract_x
_atom_site_fract_y
_atom_site_fract_z
_atom_type_partial_charge
C1    C     C_R   0.140457 0.860075 0.249787 0.531530
C2    C     C_R   0.268634 0.820483 0.231565 0.250733
C3    C     C_3   0.232473 0.118838 0.121597 -0.253894
C4    C     C_3   0.251739 0.126141 0.064677 -0.506825
C5    C     C_3   0.277185 0.126316 0.851687 0.023718
C6    C     C_3   0.277497 0.050942 0.876269 -0.232704
C7    C     C_3   0.274354 0.055735 0.934883 -0.506452
C8    C     C_3   0.222849 0.626356 0.648285 0.023738
C9    C     C_3   0.222526 0.550995 0.623682 -0.232712
C10   C     C_3   0.225690 0.555816 0.565070 -0.506451
C11   C     C_3   0.198514 0.617304 0.344398 0.022357
C12   C     C_3   0.267147 0.618663 0.378275 -0.253736
C13   C     C_R   0.731374 0.820475 0.768449 0.250732
C14   C     C_3   0.247674 0.625965 0.435159 -0.506837
C15   C     C_3   0.801463 0.617316 0.655582 0.022247
C16   C     C_3   0.732818 0.618679 0.621717 -0.253856
C17   C     C_3   0.752274 0.625884 0.564824 -0.506828
C18   C     C_3   0.777130 0.626368 0.351722 0.023735
C19   C     C_3   0.777456 0.551010 0.376329 -0.232712
C20   C     C_3   0.774267 0.555837 0.434940 -0.506442
C21   C     C_3   0.306308 0.935718 0.747901 0.043011
C22   C     C_3   0.386455 0.956834 0.754551 -0.251200
C23   C     C_3   0.409090 0.015177 0.715997 -0.487319
C24   C     C_R   0.732488 0.820957 0.230671 0.246127
C25   C     C_3   0.277320 0.890809 0.158777 0.063171
C26   C     C_3   0.350892 0.884762 0.130990 -0.265546
C27   C     C_3   0.343234 0.900568 0.073561 -0.513893
C28   C     C_3   0.722711 0.890741 0.841266 0.063166
C29   C     C_3   0.649134 0.884785 0.869055 -0.265548
C30   C     C_3   0.656833 0.900479 0.926497 -0.513883
C31   C     C_3   0.693685 0.935716 0.252095 0.043021
C32   C     C_3   0.613544 0.956846 0.245430 -0.251189
C33   C     C_3   0.590901 0.015185 0.283985 -0.487313
C34   C     C_3   0.806320 0.435710 0.247944 0.043085
C35   C     C_R   0.767500 0.320947 0.269345 0.246105
C36   C     C_3   0.886445 0.456869 0.254651 -0.251163
C37   C     C_3   0.909103 0.515232 0.216118 -0.487326
C38   C     C_3   0.777096 0.390535 0.658573 0.063067
C39   C     C_3   0.850607 0.384541 0.630699 -0.265586
C40   C     C_3   0.842720 0.399919 0.573226 -0.513810
C41   C     C_3   0.222887 0.390399 0.341506 0.063226
C42   C     C_3   0.149266 0.385134 0.369303 -0.265554
C43   C     C_3   0.157228 0.400173 0.426816 -0.513841
C44   C     C_3   0.193690 0.435721 0.752083 0.043045
C45   C     C_3   0.113560 0.456879 0.745399 -0.251177
C46   C     C_R   0.768598 0.320442 0.731481 0.250759
C47   C     C_3   0.090920 0.515229 0.783946 -0.487307
C48   C     C_3   0.882977 0.278729 0.347193 0.039181
C49   C     C_3   0.959925 0.286308 0.369183 -0.242724
C50   C     C_3   0.959103 0.286429 0.427968 -0.509198
C51   C     C_3   0.933980 0.297594 0.773352 0.026264
C52   C     C_3   0.924889 0.374954 0.794034 -0.257882
C53   C     C_3   0.968960 0.385987 0.843234 -0.501710
C54   C     C_3   0.066012 0.297614 0.226705 0.026232
C55   C     C_3   0.075117 0.374977 0.206030 -0.257916
C56   C     C_3   0.031053 0.386024 0.156829 -0.501700
C57   C     C_R   0.231412 0.320436 0.268533 0.250727
C58   C     C_3   0.116968 0.278776 0.652846 0.039109
C59   C     C_3   0.039963 0.285923 0.630880 -0.242616
C60   C     C_3   0.040752 0.286101 0.572096 -0.509273
C61   C     C_3   0.383022 0.778774 0.847155 0.039154
C62   C     C_3   0.460019 0.785971 0.869127 -0.242611
C63   C     C_3   0.459223 0.786151 0.927912 -0.509280
C64   C     C_3   0.433991 0.797531 0.273471 0.026315
C65   C     C_3   0.424940 0.874876 0.294187 -0.257860
C66   C     C_3   0.469063 0.885863 0.343368 -0.501723
C67   C     C_3   0.566016 0.797543 0.726545 0.026301
C68   C     C_R   0.232489 0.320956 0.730669 0.246127
C69   C     C_3   0.575078 0.874892 0.705837 -0.257872
C70   C     C_3   0.530978 0.885884 0.656645 -0.501719
C71   C     C_3   0.616978 0.778767 0.152843 0.039150
C72   C     C_3   0.539980 0.785958 0.130872 -0.242599
C73   C     C_3   0.540774 0.786113 0.072087 -0.509268
C74   C     C_R   0.819199 0.265518 0.272355 0.208139
C75   C     C_R   0.823457 0.268657 0.737381 0.220970
C76   C     C_R   0.176550 0.268654 0.262640 0.221070
C77   C     C_R   0.140670 0.860535 0.749606 0.518890
C78   C     C_R   0.180784 0.265531 0.727668 0.208198
C79   C     C_R   0.319216 0.765531 0.772331 0.208179
C80   C     C_R   0.323478 0.768675 0.237444 0.220929
C81   C     C_R   0.676527 0.768671 0.762566 0.220938
C82   C     C_R   0.680783 0.765531 0.227669 0.208178
C83   C     C_R   0.804469 0.197580 0.249151 -0.000241
C84   C     C_R   0.805124 0.197792 0.753429 -0.007962
C85   C     C_R   0.194873 0.197796 0.246566 -0.007959
C86   C     C_R   0.195524 0.197586 0.750858 -0.000210
C87   C     C_R   0.304478 0.697588 0.749137 -0.000229
C88   C     C_R   0.859330 0.860536 0.250394 0.518885
C89   C     C_R   0.305115 0.697783 0.253418 -0.007928
C90   C     C_R   0.694884 0.697783 0.746580 -0.007923
C91   C     C_R   0.695521 0.697589 0.250864 -0.000232
C92   C     C_R   0.933893 0.000008 0.026939 -0.142108
C93   C     C_R   0.933773 0.000179 0.973268 -0.144660
C94   C     C_R   0.066226 0.000179 0.026732 -0.144669
C95   C     C_R   0.066107 0.000008 0.973061 -0.142111
C96   C     C_R   0.433893 0.500016 0.526939 -0.142099
C97   C     C_R   0.433773 0.500189 0.473268 -0.144630
C98   C     C_R   0.566227 0.500167 0.526732 -0.144650
C99   C     C_R   0.859544 0.860074 0.750214 0.531526
C100  C     C_R   0.566106 0.499994 0.473061 -0.142115
C101  C     C_R   0.999911 0.000134 0.945857 0.039221
C102  C     C_R   0.000089 0.000134 0.054143 0.039221
C103  C     C_R   0.499911 0.500132 0.445857 0.039222
C104  C     C_R   0.500089 0.500133 0.554142 0.039218
C105  C     C_R   0.859906 0.140394 0.249838 0.532133
C106  C     C_R   0.860025 0.140385 0.750671 0.539490
C107  C     C_R   0.139974 0.140386 0.249327 0.539458
C108  C     C_R   0.140092 0.140395 0.750165 0.532209
C109  C     C_R   0.359908 0.640396 0.749834 0.532182
C110  C     C_R   0.640454 0.360071 0.749782 0.531470
C111  C     C_R   0.360021 0.640381 0.250666 0.539539
C112  C     C_R   0.639978 0.640381 0.749333 0.539551
C113  C     C_R   0.640091 0.640396 0.250166 0.532178
C114  C     C_R   0.000052 0.000042 0.110812 0.496729
C115  C     C_R   0.999948 0.000042 0.889188 0.496730
C116  C     C_R   0.500051 0.500042 0.610812 0.496722
C117  C     C_R   0.499948 0.500042 0.389188 0.496721
C118  C     C_R   0.002775 0.999964 0.388533 0.488310
C119  C     C_R   0.997224 0.999964 0.611467 0.488347
C120  C     C_R   0.502775 0.499964 0.888533 0.488338
C121  C     C_R   0.640668 0.360535 0.249607 0.518886
C122  C     C_R   0.497225 0.499964 0.111467 0.488338
C123  C     C_2   0.003966 0.057202 0.527973 -0.060928
C124  C     C_2   0.996018 0.057201 0.472027 -0.060894
C125  C     C_2   0.503973 0.557202 0.027973 -0.060923
C126  C     C_2   0.496025 0.557202 0.972027 -0.060926
C127  C     C_2   0.983511 0.999710 0.556226 0.303082
C128  C     C_2   0.016483 0.999711 0.443774 0.303091
C129  C     C_2   0.483514 0.499710 0.056226 0.303087
C130  C     C_2   0.516486 0.499711 0.943774 0.303089
C131  C     C_R   0.736768 0.185235 0.224750 0.178887
C132  C     C_R   0.359331 0.360535 0.750393 0.518884
C133  C     C_R   0.734684 0.183015 0.772990 0.206600
C134  C     C_R   0.265300 0.183032 0.226975 0.206599
C135  C     C_R   0.263232 0.185236 0.775248 0.178874
C136  C     C_R   0.236775 0.685242 0.724739 0.178864
C137  C     C_R   0.234645 0.682973 0.272910 0.206539
C138  C     C_R   0.765351 0.682977 0.727079 0.206564
C139  C     C_R   0.763222 0.685245 0.275264 0.178860
C140  C     C_R   0.183436 0.738706 0.726372 -0.192592
C141  C     C_R   0.181136 0.736465 0.269498 -0.193491
C142  C     C_R   0.818859 0.736469 0.730488 -0.193486
C143  C     C_R   0.359547 0.360071 0.250217 0.531499
C144  C     C_R   0.816562 0.738708 0.273631 -0.192594
C145  C     C_R   0.683431 0.238702 0.226377 -0.192576
C146  C     C_R   0.681169 0.236499 0.769575 -0.193488
C147  C     C_R   0.318816 0.236514 0.230389 -0.193497
C148  C     C_R   0.316569 0.238702 0.773619 -0.192577
C149  C     C_R   0.198106 0.806137 0.748586 -0.048793
C150  C     C_R   0.197588 0.804995 0.249667 -0.054856
C151  C     C_R   0.802414 0.804993 0.750333 -0.054873
C152  C     C_R   0.801893 0.806138 0.251414 -0.048793
C153  C     C_R   0.698101 0.306133 0.248592 -0.048802
C154  C     C_R   0.267512 0.820958 0.769327 0.246129
C155  C     C_R   0.697583 0.304990 0.749661 -0.054945
C156  C     C_R   0.302416 0.304993 0.250331 -0.054933
C157  C     C_R   0.301896 0.306136 0.751410 -0.048791
C158  C     C_3   0.722827 0.126329 0.148305 0.023728
C159  C     C_3   0.722517 0.050960 0.123714 -0.232704
C160  C     C_3   0.725668 0.055763 0.065101 -0.506452
C161  C     C_3   0.698707 0.117484 0.844579 0.022061
C162  C     C_3   0.767428 0.118791 0.878367 -0.253868
C163  C     C_3   0.748110 0.126079 0.935279 -0.506825
C164  C     C_3   0.301223 0.117541 0.155355 0.021999
H1    H     H_    0.026680 0.105397 0.545907 0.076804
H2    H     H_    0.626036 0.223939 0.781849 0.150965
H3    H     H_    0.602592 0.896546 0.945427 0.145644
H4    H     H_    0.678514 0.956012 0.932608 0.137764
H5    H     H_    0.727763 0.985440 0.249612 0.202408
H6    H     H_    0.701787 0.912934 0.291600 0.090542
H7    H     H_    0.604303 0.977523 0.205835 0.175050
H8    H     H_    0.578866 0.908111 0.250932 0.187725
H9    H     H_    0.599339 0.995730 0.324012 0.139385
H10   H     H_    0.532219 0.028270 0.278747 0.150962
H11   H     H_    0.623291 0.065392 0.277829 0.188349
H12   H     H_    0.772221 0.485423 0.250412 0.202385
H13   H     H_    0.373941 0.223960 0.218093 0.150996
H14   H     H_    0.798267 0.412926 0.208435 0.090530
H15   H     H_    0.895642 0.477534 0.294254 0.175036
H16   H     H_    0.921145 0.408149 0.249157 0.187663
H17   H     H_    0.900696 0.495796 0.176084 0.139385
H18   H     H_    0.967778 0.528327 0.221381 0.150932
H19   H     H_    0.876698 0.565429 0.222276 0.188410
H20   H     H_    0.738561 0.348541 0.643571 0.105754
H21   H     H_    0.752496 0.443938 0.649038 0.167749
H22   H     H_    0.889901 0.423807 0.647619 0.176424
H23   H     H_    0.872714 0.328896 0.635349 0.199586
H24   H     H_    0.369774 0.226999 0.789795 0.158440
H25   H     H_    0.805382 0.359797 0.555240 0.148792
H26   H     H_    0.896921 0.396018 0.554236 0.145584
H27   H     H_    0.820885 0.455367 0.566995 0.137803
H28   H     H_    0.260956 0.348016 0.356554 0.105472
H29   H     H_    0.247996 0.443558 0.351073 0.167748
H30   H     H_    0.110461 0.424916 0.352430 0.175876
H31   H     H_    0.126521 0.329771 0.364517 0.199984
H32   H     H_    0.193920 0.359436 0.444768 0.148866
H33   H     H_    0.102925 0.396986 0.445729 0.145493
H34   H     H_    0.179872 0.455266 0.433189 0.137855
H35   H     H_    0.882145 0.999571 0.047110 0.130644
H36   H     H_    0.227787 0.485434 0.749608 0.202397
H37   H     H_    0.201765 0.412935 0.791589 0.090541
H38   H     H_    0.104345 0.477556 0.705801 0.175055
H39   H     H_    0.078864 0.408156 0.750893 0.187685
H40   H     H_    0.099342 0.495780 0.823976 0.139381
H41   H     H_    0.032242 0.528327 0.778698 0.150954
H42   H     H_    0.123322 0.565429 0.777790 0.188374
H43   H     H_    0.859336 0.226312 0.360787 0.129110
H44   H     H_    0.848994 0.324307 0.361914 0.166881
H45   H     H_    0.994259 0.240477 0.355403 0.221192
H46   H     H_    0.881897 0.000137 0.953305 0.122482
H47   H     H_    0.984576 0.337835 0.355254 0.172193
H48   H     H_    0.928367 0.334153 0.442597 0.142806
H49   H     H_    0.015922 0.289242 0.442625 0.148034
H50   H     H_    0.933379 0.236024 0.442811 0.145115
H51   H     H_    0.992647 0.288287 0.764926 0.195856
H52   H     H_    0.918796 0.257425 0.803678 0.091428
H53   H     H_    0.943125 0.414425 0.764333 0.183774
H54   H     H_    0.866517 0.385585 0.802821 0.193214
H55   H     H_    0.948339 0.349659 0.874140 0.146340
H56   H     H_    0.963498 0.443086 0.856318 0.155669
H57   H     H_    0.118103 0.000138 0.046694 0.122494
H58   H     H_    0.027606 0.374164 0.836342 0.145842
H59   H     H_    0.007346 0.288324 0.235145 0.195872
H60   H     H_    0.081165 0.257447 0.196370 0.091442
H61   H     H_    0.056885 0.414445 0.235734 0.183740
H62   H     H_    0.133491 0.385601 0.197246 0.193201
H63   H     H_    0.051679 0.349704 0.125919 0.146337
H64   H     H_    0.036518 0.443127 0.143754 0.155674
H65   H     H_    0.972406 0.374198 0.163714 0.145841
H66   H     H_    0.140898 0.226501 0.639221 0.128894
H67   H     H_    0.150681 0.324556 0.638135 0.167007
H68   H     H_    0.117856 0.999573 0.952890 0.130644
H69   H     H_    0.005912 0.239877 0.644647 0.221383
H70   H     H_    0.015008 0.337288 0.644841 0.172502
H71   H     H_    0.071106 0.334075 0.557481 0.142790
H72   H     H_    0.983905 0.288485 0.557455 0.148000
H73   H     H_    0.066862 0.235910 0.557220 0.145105
H74   H     H_    0.359124 0.726483 0.860777 0.128901
H75   H     H_    0.349278 0.824533 0.861866 0.166974
H76   H     H_    0.494102 0.739947 0.855363 0.221328
H77   H     H_    0.484939 0.837353 0.855167 0.172435
H78   H     H_    0.428841 0.834110 0.942523 0.142794
H79   H     H_    0.382145 0.499588 0.547111 0.130643
H80   H     H_    0.516068 0.788567 0.942556 0.147996
H81   H     H_    0.433138 0.735947 0.942787 0.145097
H82   H     H_    0.492657 0.788190 0.265056 0.195781
H83   H     H_    0.418758 0.757344 0.303773 0.091393
H84   H     H_    0.443157 0.914366 0.264492 0.183802
H85   H     H_    0.366578 0.885511 0.303005 0.193194
H86   H     H_    0.448480 0.849501 0.374266 0.146342
H87   H     H_    0.463610 0.942948 0.356484 0.155643
H88   H     H_    0.527703 0.874054 0.336437 0.145834
H89   H     H_    0.507349 0.788209 0.734959 0.195781
H90   H     H_    0.381896 0.500159 0.453306 0.122409
H91   H     H_    0.581243 0.757360 0.696239 0.091405
H92   H     H_    0.556847 0.914377 0.735530 0.183786
H93   H     H_    0.633444 0.885528 0.697033 0.193206
H94   H     H_    0.551581 0.849530 0.625748 0.146343
H95   H     H_    0.536434 0.942972 0.643537 0.155649
H96   H     H_    0.472336 0.874068 0.663560 0.145831
H97   H     H_    0.640880 0.726476 0.139224 0.128906
H98   H     H_    0.650719 0.824527 0.138131 0.166969
H99   H     H_    0.505896 0.739941 0.144647 0.221347
H100  H     H_    0.515063 0.837346 0.144822 0.172415
H101  H     H_    0.618103 0.500118 0.546694 0.122455
H102  H     H_    0.571157 0.834064 0.057465 0.142791
H103  H     H_    0.483928 0.788525 0.057445 0.147982
H104  H     H_    0.566855 0.735902 0.057221 0.145097
H105  H     H_    0.973296 0.105392 0.454092 0.076755
H106  H     H_    0.617855 0.499546 0.452889 0.130648
H107  H     H_    0.930355 0.907987 0.560261 0.331622
H108  H     H_    0.069653 0.907997 0.439739 0.331620
H109  H     H_    0.430352 0.407991 0.060261 0.331613
H110  H     H_    0.569650 0.407993 0.939739 0.331615
H111  H     H_    0.773390 0.155100 0.135547 0.134048
H112  H     H_    0.674114 0.156876 0.134677 0.126272
H113  H     H_    0.770328 0.019503 0.137696 0.219821
H114  H     H_    0.672058 0.021657 0.135031 0.167213
H115  H     H_    0.676933 0.084764 0.050186 0.147381
H116  H     H_    0.526689 0.605395 0.045908 0.076797
H117  H     H_    0.726710 0.000293 0.048408 0.143678
H118  H     H_    0.775697 0.085025 0.052725 0.143058
H119  H     H_    0.667265 0.067662 0.854007 0.144380
H120  H     H_    0.662355 0.163840 0.854484 0.115349
H121  H     H_    0.798666 0.067769 0.872676 0.192829
H122  H     H_    0.802770 0.165267 0.867306 0.156195
H123  H     H_    0.719187 0.178096 0.942411 0.155622
H124  H     H_    0.798896 0.125349 0.958551 0.145794
H125  H     H_    0.712808 0.080398 0.947715 0.138387
H126  H     H_    0.332675 0.067734 0.145903 0.144331
H127  H     H_    0.473308 0.605395 0.954093 0.076800
H128  H     H_    0.337550 0.163914 0.145445 0.115367
H129  H     H_    0.201252 0.067808 0.127296 0.192854
H130  H     H_    0.197131 0.165304 0.132678 0.156185
H131  H     H_    0.280657 0.178159 0.057539 0.155617
H132  H     H_    0.200932 0.125417 0.041427 0.145806
H133  H     H_    0.287028 0.080460 0.052220 0.138385
H134  H     H_    0.226625 0.155086 0.864451 0.134048
H135  H     H_    0.325901 0.156860 0.865314 0.126274
H136  H     H_    0.229683 0.019489 0.862288 0.219828
H137  H     H_    0.327953 0.021640 0.864946 0.167223
H138  H     H_    0.130233 0.727005 0.710191 0.158437
H139  H     H_    0.323093 0.084731 0.949797 0.147366
H140  H     H_    0.273314 0.000261 0.951570 0.143684
H141  H     H_    0.224328 0.084995 0.947266 0.143069
H142  H     H_    0.273421 0.655120 0.635536 0.134045
H143  H     H_    0.174146 0.656918 0.634657 0.126267
H144  H     H_    0.270328 0.519522 0.637664 0.219797
H145  H     H_    0.172059 0.521700 0.634989 0.167168
H146  H     H_    0.176964 0.584832 0.550155 0.147409
H147  H     H_    0.226722 0.500351 0.548368 0.143661
H148  H     H_    0.275728 0.585071 0.552703 0.143019
H149  H     H_    0.125978 0.723885 0.281707 0.150873
H150  H     H_    0.167128 0.567420 0.353756 0.144551
H151  H     H_    0.162064 0.663589 0.354288 0.115260
H152  H     H_    0.298429 0.567656 0.372632 0.192712
H153  H     H_    0.302495 0.665153 0.367254 0.156223
H154  H     H_    0.218785 0.678013 0.442250 0.155639
H155  H     H_    0.298393 0.625184 0.458503 0.145733
H156  H     H_    0.212283 0.580324 0.447545 0.138448
H157  H     H_    0.832849 0.567434 0.646219 0.144515
H158  H     H_    0.837907 0.663604 0.645688 0.115294
H159  H     H_    0.701499 0.567704 0.627398 0.192818
H160  H     H_    0.874014 0.723893 0.718270 0.150893
H161  H     H_    0.697512 0.665211 0.632714 0.156178
H162  H     H_    0.781254 0.677871 0.557695 0.155635
H163  H     H_    0.701540 0.625165 0.541494 0.145774
H164  H     H_    0.787571 0.580162 0.552455 0.138383
H165  H     H_    0.726550 0.655126 0.364462 0.134050
H166  H     H_    0.825824 0.656939 0.365356 0.126261
H167  H     H_    0.729667 0.519526 0.362338 0.219805
H168  H     H_    0.827934 0.521723 0.365034 0.167157
H169  H     H_    0.822981 0.584865 0.449863 0.147409
H170  H     H_    0.773239 0.500374 0.451644 0.143660
H171  H     H_    0.869764 0.727008 0.289814 0.158438
H172  H     H_    0.724218 0.585084 0.447294 0.143036
H173  H     H_    0.272238 0.985448 0.750394 0.202433
H174  H     H_    0.298184 0.912942 0.708397 0.090550
H175  H     H_    0.395716 0.977501 0.794146 0.175043
H176  H     H_    0.421121 0.908095 0.749036 0.187717
H177  H     H_    0.400632 0.995732 0.675971 0.139393
H178  H     H_    0.467777 0.028252 0.721224 0.150954
H179  H     H_    0.376713 0.065389 0.722166 0.188360
H180  H     H_    0.238748 0.848928 0.143668 0.105760
H181  H     H_    0.252838 0.944285 0.149295 0.168015
H182  H     H_    0.630229 0.227003 0.210193 0.158442
H183  H     H_    0.390272 0.923774 0.148103 0.176836
H184  H     H_    0.372787 0.829007 0.135476 0.199392
H185  H     H_    0.305727 0.860768 0.055390 0.148725
H186  H     H_    0.397463 0.896509 0.054626 0.145661
H187  H     H_    0.321718 0.956174 0.067496 0.137748
H188  H     H_    0.761222 0.848795 0.856363 0.105726
H189  H     H_    0.747272 0.944176 0.850764 0.167953
H190  H     H_    0.609825 0.923900 0.851978 0.176702
H191  H     H_    0.627131 0.829079 0.864523 0.199469
H192  H     H_    0.694224 0.860542 0.944637 0.148745
O1    O     O_3   0.000000 0.000000 0.250030 -0.443893
O2    O     O_R   0.585480 0.353820 0.219950 -0.556172
O3    O     O_R   0.414520 0.353820 0.780050 -0.556177
O4    O     O_R   0.414520 0.353820 0.219950 -0.555461
O5    O     O_R   0.914530 0.146170 0.280090 -0.522678
O6    O     O_R   0.914530 0.146170 0.719910 -0.520254
O7    O     O_R   0.085470 0.146170 0.280090 -0.520096
O8    O     O_R   0.085470 0.146170 0.719910 -0.522739
O9    O     O_R   0.414530 0.646170 0.780090 -0.522722
O10   O     O_R   0.414530 0.646170 0.219910 -0.520258
O11   O     O_R   0.585470 0.646170 0.780090 -0.520242
O12   O     O_3   0.000000 0.000000 0.749970 -0.443870
O13   O     O_R   0.585470 0.646170 0.219910 -0.522726
O14   O     O_R   0.146180 0.085440 0.219990 -0.513504
O15   O     O_R   0.146180 0.085440 0.780010 -0.522863
O16   O     O_R   0.853820 0.085440 0.219990 -0.522856
O17   O     O_R   0.853820 0.085440 0.780010 -0.513497
O18   O     O_R   0.646180 0.585440 0.719990 -0.513541
O19   O     O_R   0.646180 0.585440 0.280010 -0.522845
O20   O     O_R   0.353820 0.585440 0.719990 -0.522844
O21   O     O_R   0.353820 0.585440 0.280010 -0.513509
O22   O     O_R   0.853820 0.914550 0.219980 -0.509594
O23   O     O_3   0.500000 0.500000 0.750030 -0.443879
O24   O     O_R   0.853820 0.914550 0.780020 -0.512475
O25   O     O_R   0.146180 0.914550 0.219980 -0.512508
O26   O     O_R   0.146180 0.914550 0.780020 -0.509600
O27   O     O_R   0.353820 0.414550 0.719980 -0.509588
O28   O     O_R   0.353820 0.414550 0.280020 -0.512340
O29   O     O_R   0.646180 0.414550 0.719980 -0.512400
O30   O     O_R   0.646180 0.414550 0.280020 -0.509592
O31   O     O_R   0.060720 0.999990 0.135450 -0.572937
O32   O     O_R   0.060720 0.999990 0.864550 -0.555712
O33   O     O_R   0.939280 0.999990 0.135450 -0.555712
O34   O     O_3   0.500000 0.500000 0.249970 -0.443884
O35   O     O_R   0.939280 0.999990 0.864550 -0.572929
O36   O     O_R   0.560720 0.499990 0.635450 -0.572925
O37   O     O_R   0.560720 0.499990 0.364550 -0.555711
O38   O     O_R   0.439280 0.499990 0.635450 -0.555709
O39   O     O_R   0.439280 0.499990 0.364550 -0.572933
O40   O     O_R   0.000000 0.939270 0.364600 -0.543862
O41   O     O_R   0.000000 0.939270 0.635400 -0.543848
O42   O     O_R   0.500000 0.439270 0.864600 -0.543850
O43   O     O_R   0.500000 0.439270 0.135400 -0.543853
O44   O     O_R   0.000000 0.060730 0.364620 -0.574697
O45   O     O_R   0.085480 0.853820 0.280050 -0.555409
O46   O     O_R   0.000000 0.060730 0.635380 -0.574819
O47   O     O_R   0.500000 0.560730 0.864620 -0.574811
O48   O     O_R   0.500000 0.560730 0.135380 -0.574812
O49   O     O_3   0.945924 0.942884 0.533386 -0.665293
O50   O     O_3   0.054078 0.942891 0.466614 -0.665288
O51   O     O_3   0.445924 0.442887 0.033385 -0.665293
O52   O     O_3   0.554078 0.442888 0.966614 -0.665290
O53   O     O_3   0.720580 0.118926 0.202473 -0.564951
O54   O     O_3   0.716906 0.114463 0.791434 -0.525322
O55   O     O_3   0.283069 0.114491 0.208506 -0.525322
O56   O     O_R   0.085480 0.853820 0.719950 -0.556180
O57   O     O_3   0.279424 0.118923 0.797517 -0.564969
O58   O     O_3   0.220591 0.618938 0.702453 -0.564941
O59   O     O_3   0.216842 0.614383 0.291273 -0.525295
O60   O     O_3   0.783151 0.614390 0.708710 -0.525311
O61   O     O_3   0.779404 0.618944 0.297555 -0.564953
O62   O     O_3   0.285000 0.888882 0.788531 -0.556951
O63   O     O_3   0.286979 0.888564 0.212964 -0.526979
O64   O     O_3   0.713039 0.888542 0.787080 -0.526951
O65   O     O_3   0.715001 0.888881 0.211466 -0.556935
O66   O     O_3   0.784982 0.388866 0.288562 -0.556875
O67   O     O_R   0.914520 0.853820 0.280050 -0.556185
O68   O     O_3   0.786904 0.388463 0.712750 -0.526856
O69   O     O_3   0.213133 0.388434 0.287320 -0.526804
O70   O     O_3   0.215006 0.388878 0.711459 -0.556930
O71   O     O_3   0.887242 0.280639 0.292861 -0.560795
O72   O     O_3   0.894978 0.288182 0.726713 -0.555996
O73   O     O_3   0.105036 0.288174 0.273332 -0.555994
O74   O     O_3   0.112729 0.280650 0.707180 -0.560844
O75   O     O_3   0.387269 0.780650 0.792823 -0.560766
O76   O     O_3   0.395012 0.788195 0.226815 -0.556030
O77   O     O_3   0.604994 0.788192 0.773200 -0.556022
O78   O     O_R   0.914520 0.853820 0.719950 -0.555417
O79   O     O_3   0.612731 0.780649 0.207176 -0.560762
O80   O     O_R   0.585480 0.353820 0.780050 -0.555433
Zn1   Zn    Zn3+2 0.000000 0.086760 0.292960 0.925811
Zn2   Zn    Zn3+2 0.586770 0.499990 0.292890 0.923001
Zn3   Zn    Zn3+2 0.413230 0.499990 0.707110 0.923006
Zn4   Zn    Zn3+2 0.413230 0.499990 0.292890 0.928348
Zn5   Zn    Zn3+2 0.000000 0.913240 0.292940 0.925089
Zn6   Zn    Zn3+2 0.000000 0.913240 0.707060 0.925099
Zn7   Zn    Zn3+2 0.500000 0.413240 0.792940 0.925084
Zn8   Zn    Zn3+2 0.500000 0.413240 0.207060 0.925078
Zn9   Zn    Zn3+2 0.000000 0.086760 0.707040 0.925624
Zn10  Zn    Zn3+2 0.500000 0.586760 0.792960 0.925652
Zn11  Zn    Zn3+2 0.500000 0.586760 0.207040 0.925638
Zn12  Zn    Zn3+2 0.086770 0.999990 0.207110 0.928277
Zn13  Zn    Zn3+2 0.086770 0.999990 0.792890 0.922989
Zn14  Zn    Zn3+2 0.913230 0.999990 0.207110 0.922986
Zn15  Zn    Zn3+2 0.913230 0.999990 0.792890 0.928294
Zn16  Zn    Zn3+2 0.586770 0.499990 0.707110 0.928312

loop_
_geom_bond_atom_site_label_1
_geom_bond_atom_site_label_2
_ccdc_geom_bond_type
C48   O71   S    
C19   C20   S    
C74   C83   A    
C136  C140  A    
C79   C87   A    
O31   Zn12  S    
O1    Zn14  S    
C46   C155  A    
C74   O71   S    
C160  H118  S    
C55   H62   S    
O12   Zn6   S    
C5    C6    S    
C9    H145  S    
C98   H101  S    
O10   Zn11  S    
C41   H29   S    
C21   O62   S    
C104  C116  S    
C154  O62   S    
C2    O63   S    
C94   H57   S    
C92   H35   S    
O18   Zn16  S    
C25   H181  S    
C56   H63   S    
C92   C102  A    
C22   H175  S    
C53   H56   S    
C32   H8    S    
C81   O77   S    
C59   C60   S    
C21   C22   S    
C103  C117  S    
C36   H15   S    
C115  O35   A    
C10   H146  S    
C45   C47   S    
O13   Zn11  S    
C66   H88   S    
C84   C133  A    
C141  H149  S    
C56   H64   S    
C51   C52   S    
C61   H75   S    
C21   H174  S    
C13   C151  A    
C120  O47   A    
C93   C101  A    
C27   H186  S    
O37   Zn2   S    
C34   O66   S    
C82   C91   A    
C83   C105  S    
C99   O24   A    
C142  C151  A    
C5    H134  S    
C83   C131  A    
C102  C114  S    
C6    H137  S    
C111  O21   A    
C114  O31   A    
C45   H39   S    
C37   H17   S    
C48   H44   S    
C1    C150  S    
C43   H33   S    
C38   O68   S    
O38   Zn3   S    
C97   C103  A    
C46   O68   S    
C20   H169  S    
C81   C90   A    
C162  H122  S    
C70   H95   S    
C1    O25   A    
C129  O51   S    
C118  O44   A    
C96   C104  A    
C158  C159  S    
C101  C115  S    
O8    Zn9   S    
O40   Zn5   S    
C15   H157  S    
C57   C76   A    
C140  H138  S    
C163  H124  S    
C72   H99   S    
C113  O19   A    
C87   C136  A    
C86   C108  S    
C3    H130  S    
C72   C73   S    
C23   H178  S    
C82   O79   S    
C6    C7    S    
C31   H6    S    
C148  H24   S    
C10   H148  S    
C132  C157  S    
C17   H162  S    
C18   H166  S    
C32   C33   S    
C164  H126  S    
C54   H59   S    
C16   C17   S    
O24   Zn15  S    
C56   H65   S    
O25   Zn12  S    
C42   H31   S    
O23   Zn7   S    
C69   C70   S    
C58   C59   S    
O12   Zn13  S    
C73   H102  S    
C137  O59   S    
C125  C129  D    
C131  O53   S    
C120  O42   A    
C94   C102  A    
O11   Zn10  S    
C67   O77   S    
C22   C23   S    
C106  O6    A    
O6    Zn9   S    
C67   C69   S    
C76   C85   A    
C7    H139  S    
C51   H52   S    
C2    C150  A    
C66   H86   S    
C107  O14   A    
C13   C81   A    
O27   Zn3   S    
O28   Zn4   S    
C110  O80   A    
C88   O67   A    
C161  H120  S    
C123  C124  S    
C8    H143  S    
C52   H53   S    
O7    Zn1   S    
C135  O57   S    
C36   C37   S    
C30   H3    S    
C5    O57   S    
C106  O17   A    
C38   C39   S    
C75   C84   A    
O67   Zn5   S    
C38   H20   S    
C28   O64   S    
C13   O64   S    
C161  O54   S    
O23   Zn3   S    
C110  C155  S    
O12   Zn9   S    
C123  C127  D    
C117  O37   A    
C16   H161  S    
C47   H40   S    
C116  O36   A    
C9    C10   S    
C121  O30   A    
C85   C134  A    
C71   H98   S    
C19   H167  S    
C50   H48   S    
C12   H153  S    
C59   H69   S    
C60   H71   S    
O22   Zn14  S    
C14   H155  S    
C46   C75   A    
C90   C138  A    
C141  C150  A    
C63   H81   S    
C57   C156  A    
C44   O70   S    
C40   H25   S    
O34   Zn8   S    
C17   H164  S    
O30   Zn2   S    
C39   C40   S    
C78   O74   S    
C107  O7    A    
O33   Zn14  S    
C50   H49   S    
C25   C26   S    
O2    Zn8   S    
O12   Zn15  S    
C29   C30   S    
C58   H66   S    
C73   H104  S    
C147  H13   S    
C27   H187  S    
C31   C32   S    
C61   O75   S    
C11   O59   S    
C33   H10   S    
C54   O73   S    
C76   O73   S    
C65   H84   S    
C44   H36   S    
C77   O56   A    
C159  H113  S    
O23   Zn16  S    
C26   H184  S    
C3    C4    S    
H107  O49   S    
C52   C53   S    
C62   H77   S    
C69   H93   S    
C71   O79   S    
C54   C55   S    
C19   H168  S    
C35   C153  A    
O34   Zn4   S    
C133  C146  A    
C125  H116  S    
C17   H163  S    
C28   H188  S    
C55   H61   S    
C71   C72   S    
C144  C152  A    
C23   H179  S    
C117  O39   A    
C9    H144  S    
C41   O69   S    
C118  O40   A    
C63   H80   S    
C131  C145  A    
C57   O69   S    
C148  C157  A    
O15   Zn13  S    
C61   C62   S    
O20   Zn3   S    
O78   Zn6   S    
C79   O75   S    
C86   C135  A    
C7    H141  S    
C49   C50   S    
C93   H46   S    
C60   H73   S    
C4    H132  S    
C44   H37   S    
C140  C149  A    
C25   H180  S    
C95   C101  A    
C69   H92   S    
C119  C127  S    
C53   H55   S    
C55   C56   S    
C35   C74   A    
C109  O9    A    
C41   C42   S    
C36   H16   S    
C4    H131  S    
O29   Zn16  S    
C161  C162  S    
O1    Zn1   S    
C100  H106  S    
C134  C147  A    
C26   C27   S    
C121  C153  S    
C61   H74   S    
C128  O50   S    
C28   C29   S    
C21   H173  S    
C130  O52   S    
C119  O41   A    
C27   H185  S    
C126  C130  D    
O47   Zn10  S    
C8    H142  S    
C62   H76   S    
C77   O26   A    
C18   C19   S    
C80   C89   A    
C24   C152  A    
C39   H22   S    
C146  C155  A    
C45   H38   S    
C84   C106  S    
C122  C129  S    
C20   H170  S    
C124  C128  D    
O16   Zn14  S    
O1    Zn12  S    
O48   Zn11  S    
C70   H96   S    
C24   O65   S    
C112  O18   A    
H109  O51   S    
O34   Zn2   S    
H110  O52   S    
C114  O33   A    
C68   C78   A    
O4    Zn8   S    
C163  H123  S    
C72   H100  S    
C160  H117  S    
C12   H152  S    
C132  O3    A    
C138  O60   S    
C158  H111  S    
O14   Zn12  S    
C3    H129  S    
C23   H177  S    
C77   C149  S    
C47   H41   S    
C31   H5    S    
C53   H58   S    
C63   H78   S    
C100  C103  A    
C109  O20   A    
O45   Zn5   S    
O19   Zn2   S    
O34   Zn11  S    
C149  C154  A    
C96   H79   S    
C62   C63   S    
O80   Zn7   S    
C105  O16   A    
C1    O45   A    
C159  C160  S    
O3    Zn7   S    
C95   H68   S    
O23   Zn10  S    
C147  C156  A    
C29   H191  S    
O21   Zn4   S    
C91   C139  A    
C48   C49   S    
C32   H7    S    
C89   C137  A    
C138  C142  A    
C125  C126  S    
C18   O61   S    
C34   H14   S    
C4    H133  S    
C68   C157  A    
C44   C45   S    
C110  O29   A    
C162  C163  S    
C51   H51   S    
C137  C141  A    
C66   H87   S    
C47   H42   S    
C164  O55   S    
C161  H119  S    
C158  H112  S    
C87   C109  S    
C67   H91   S    
C11   H150  S    
C52   H54   S    
C112  O11   A    
C64   C65   S    
C5    H135  S    
C30   H4    S    
C6    H136  S    
O26   Zn13  S    
C40   H27   S    
C37   H18   S    
C48   H43   S    
C92   C93   A    
C34   C36   S    
C43   H34   S    
C113  O13   A    
C143  O28   A    
C94   C95   A    
C20   H172  S    
C133  O54   S    
C162  H121  S    
C70   H94   S    
C88   O22   A    
O44   Zn1   S    
C49   H45   S    
C121  O2    A    
O5    Zn1   S    
C15   H158  S    
C105  O5    A    
C145  H182  S    
C37   H19   S    
C71   H97   S    
C65   H85   S    
O43   Zn8   S    
C134  O55   S    
C60   H72   S    
C90   C112  S    
C144  H171  S    
C14   H156  S    
C16   H159  S    
C58   O74   S    
C10   H147  S    
C120  C130  S    
C64   H82   S    
O36   Zn16  S    
C18   H165  S    
C11   H151  S    
C111  O10   A    
C50   H50   S    
C15   C16   S    
C42   H30   S    
C24   C82   A    
C142  H160  S    
C58   H67   S    
C73   H103  S    
C54   H60   S    
C8    C9    S    
O46   Zn9   S    
O42   Zn7   S    
C116  O38   A    
C39   H23   S    
C7    H140  S    
C78   C86   A    
C146  H2    S    
C15   O60   S    
C29   H190  S    
C127  O49   S    
C88   C152  S    
C28   H189  S    
C160  H115  S    
C118  C128  S    
C25   O63   S    
O1    Zn5   S    
C122  O48   A    
C67   H89   S    
C124  H105  S    
C34   H12   S    
C75   O72   S    
C99   C151  S    
C91   C113  S    
C43   H32   S    
C119  O46   A    
C164  H128  S    
O17   Zn15  S    
C143  O4    A    
C139  C144  A    
O9    Zn10  S    
C8    O58   S    
C96   C97   A    
C49   H47   S    
C80   O76   S    
C163  H125  S    
C3    C164  S    
C108  O15   A    
C51   O72   S    
C12   C14   S    
C65   C66   S    
O32   Zn13  S    
C59   H70   S    
C14   H154  S    
C30   H192  S    
C35   O66   S    
C33   H9    S    
C41   H28   S    
C68   O70   S    
C31   O65   S    
C11   C12   S    
C108  O8    A    
O56   Zn6   S    
C64   O76   S    
C38   H21   S    
C89   C111  S    
C98   C100  A    
C136  O58   S    
C145  C153  A    
C79   C154  A    
C143  C156  S    
C64   H83   S    
C122  O43   A    
C98   C104  A    
C115  O32   A    
C33   H11   S    
C2    C80   A    
O35   Zn15  S    
C126  H127  S    
C123  H1    S    
C139  O61   S    
C40   H26   S    
C99   O78   A    
C135  C148  A    
C42   C43   S    
C159  H114  S    
H108  O50   S    
O41   Zn6   S    
C132  O27   A    
C26   H183  S    
C85   C107  S    
C158  O53   S    
O39   Zn4   S    
C22   H176  S    
C97   H90   S    
