data_mof_unit_26894.cif
_audit_creation_date              2012-12-11T21:12:38-0500
_audit_creation_method            fapswitch 2.2
_symmetry_space_group_name_H-M    P1
_symmetry_Int_Tables_number       1
_space_group_crystal_system       triclinic
_cell_length_a                    8.485644
_cell_length_b                    18.771012
_cell_length_c                    26.726772
_cell_angle_alpha                 99.51122
_cell_angle_beta                  93.545185
_cell_angle_gamma                 87.780362
_cell_volume                      4188.83552788

loop_
_atom_site_label
_atom_site_type_symbol
_atom_type_description
_atom_site_fract_x
_atom_site_fract_y
_atom_site_fract_z
_atom_type_partial_charge
Ba1   Ba    Ba6+2 0.160810 0.465630 0.521640 1.616945
Ba2   Ba    Ba6+2 0.649380 0.534380 0.478400 1.606148
C1    C     C_3   0.413623 0.256910 0.693442 -0.250013
C2    C     C_R   0.059659 0.095008 0.447201 -0.090198
C3    C     C_R   0.192938 0.950565 0.455185 -0.106964
C4    C     C_3   0.976466 0.271179 0.628402 0.369412
C5    C     C_R   0.045317 0.974977 0.474148 0.022135
C6    C     C_R   0.248931 0.880183 0.455554 -0.093981
C7    C     C_R   0.160763 0.830209 0.474707 -0.027414
C8    C     C_R   0.016449 0.853939 0.496822 -0.002226
C9    C     C_R   0.959140 0.926736 0.497017 0.021617
C10   C     C_R   0.213815 0.757498 0.472940 0.004193
C11   C     C_R   0.119900 0.708754 0.491218 -0.281449
C12   C     C_3   0.433437 0.290675 0.646155 0.337997
C13   C     C_R   0.980817 0.731655 0.515706 0.055008
C14   C     C_R   0.931513 0.805599 0.519982 -0.050179
C15   C     C_R   0.842520 0.070581 0.496203 0.017702
C16   C     C_3   0.978956 0.202252 0.653628 -0.060881
C17   C     C_R   0.788054 0.144060 0.498174 0.000791
C18   C     C_R   0.875674 0.193231 0.476719 -0.051600
C19   C     C_R   0.005342 0.166072 0.448863 -0.031180
C20   C     C_R   0.802374 0.833380 0.547869 -0.028450
C21   C     C_R   0.744969 0.903644 0.547682 -0.090215
C22   C     C_R   0.816904 0.950810 0.520527 0.008516
C23   C     C_3   0.402319 0.307420 0.382253 0.321538
C24   C     C_R   0.755387 0.022078 0.518444 0.024293
C25   C     C_R   0.606872 0.046181 0.536821 -0.106179
C26   C     C_R   0.644559 0.167927 0.520745 -0.025824
C27   C     C_R   0.552832 0.117156 0.537734 -0.103319
C28   C     C_3   0.917549 0.630464 0.640423 0.305918
C29   C     C_R   0.596178 0.241603 0.525042 -0.006687
C30   C     C_R   0.692095 0.290598 0.508194 -0.282217
C31   C     C_R   0.828782 0.267533 0.482801 0.049142
C32   C     C_R   0.291748 0.461770 0.175026 0.583115
C33   C     C_R   0.195561 0.584307 0.177889 0.571386
C34   C     C_3   0.310139 0.239015 0.362780 -0.353949
C35   C     C_2   0.032223 0.531901 0.268265 0.020607
C36   C     C_3   0.000732 0.527446 0.323370 -0.034802
C37   C     C_1   0.281850 0.504688 0.338369 0.034478
C38   C     C_2   0.315530 0.513027 0.292087 -0.132565
C39   C     C_2   0.184714 0.525185 0.253599 0.225054
C40   C     C_3   0.005182 0.654874 0.692448 -0.360052
C41   C     C_R   0.312382 0.521130 0.101227 -0.081067
C42   C     C_R   0.338561 0.459827 0.125146 -0.033221
C43   C     C_R   0.407624 0.397215 0.098213 -0.067777
C44   C     C_R   0.236883 0.583180 0.127279 -0.030274
C45   C     C_3   0.818208 0.726451 0.382986 0.336521
C46   C     C_2   0.150516 0.533734 0.357513 -0.298216
C47   C     C_2   0.619058 0.452097 0.633027 -0.273831
C48   C     C_R   0.514847 0.462108 0.979761 0.020346
C49   C     C_R   0.356176 0.573168 0.972736 0.023772
C50   C     C_R   0.454586 0.514965 0.950572 0.032778
C51   C     C_R   0.639212 0.414409 0.960143 0.043053
C52   C     C_3   0.972661 0.374985 0.366574 0.287369
C53   C     C_R   0.671288 0.408296 0.909007 -0.059163
C54   C     C_R   0.596778 0.454137 0.877782 -0.039681
C55   C     C_R   0.494152 0.509671 0.898958 -0.085466
C56   C     C_3   0.798042 0.803104 0.371396 -0.362892
C57   C     C_R   0.431659 0.559773 0.868626 -0.028740
C58   C     C_R   0.469403 0.552117 0.816890 0.592902
C59   C     C_R   0.628819 0.446399 0.826135 0.579553
C60   C     C_2   0.730551 0.453778 0.722994 -0.095986
C61   C     C_3   0.739977 0.419906 0.668004 -0.067684
C62   C     C_1   0.502513 0.495746 0.652427 0.101716
C63   C     C_2   0.465912 0.498004 0.700655 -0.103135
C64   C     C_3   0.972744 0.353701 0.308913 -0.383384
C65   C     C_2   0.591736 0.482796 0.740444 0.167955
C66   C     C_R   0.449162 0.459675 0.027110 0.020556
C67   C     C_3   0.374483 0.697665 0.347535 0.319777
C68   C     C_R   0.361244 0.520052 0.050999 0.048986
C69   C     C_R   0.320608 0.578733 0.024880 0.018895
C70   C     C_R   0.459545 0.396874 0.049847 -0.115093
C71   C     C_R   0.205113 0.642681 0.102200 -0.063209
C72   C     C_R   0.296185 0.623267 0.941646 -0.100003
C73   C     C_R   0.332785 0.616492 0.890745 -0.063204
C74   C     C_R   0.243962 0.640227 0.051865 -0.103278
C75   C     C_3   0.376909 0.713222 0.635761 0.363642
C76   C     C_3   0.397529 0.775257 0.682294 -0.148661
C77   C     C_3   0.211240 0.721526 0.612658 -0.350119
C78   C     C_3   0.443848 0.709361 0.298158 -0.347949
C79   C     C_3   0.487301 0.723363 0.596264 -0.270074
C80   C     C_3   0.554217 0.773195 0.713722 -0.386958
C81   C     C_3   0.480066 0.304033 0.741022 -0.441458
C82   C     C_3   0.576454 0.287322 0.385762 -0.299532
C83   C     C_3   0.812332 0.182841 0.664470 -0.421617
C84   C     C_3   0.195371 0.707231 0.342387 -0.329858
C85   C     C_3   0.757374 0.377721 0.992973 -0.419684
C86   C     C_3   0.892353 0.531846 0.230460 -0.302173
C87   C     C_3   0.059452 0.137561 0.621200 -0.447561
C88   C     C_3   0.764515 0.601137 0.649780 -0.318239
C89   C     C_R   0.984856 0.046640 0.472704 0.007019
H1    H     H_    0.377114 0.345707 0.651377 0.075700
H2    H     H_    0.383495 0.828786 0.669522 0.063378
H3    H     H_    0.561696 0.293814 0.640631 -0.049354
H4    H     H_    0.362468 0.329911 0.420617 0.078299
H5    H     H_    0.345549 0.214210 0.324279 0.123261
H6    H     H_    0.331727 0.199014 0.388990 0.071783
H7    H     H_    0.182201 0.251979 0.360616 0.126907
H8    H     H_    0.711663 0.713183 0.400880 0.124873
H9    H     H_    0.920000 0.724961 0.410599 -0.009514
H10   H     H_    0.773617 0.840951 0.406783 0.091047
H11   H     H_    0.907138 0.819548 0.356125 0.109795
H12   H     H_    0.963013 0.709776 0.709526 0.106813
H13   H     H_    0.697900 0.806973 0.343217 0.135680
H14   H     H_    0.407512 0.641599 0.352807 0.084238
H15   H     H_    0.394375 0.670684 0.265549 0.111545
H16   H     H_    0.573106 0.699660 0.300122 0.151726
H17   H     H_    0.051341 0.262693 0.595150 0.090789
H18   H     H_    0.417903 0.765435 0.291094 0.124319
H19   H     H_    0.160584 0.653030 0.488997 0.075078
H20   H     H_    0.067608 0.199182 0.427861 0.102628
H21   H     H_    0.743919 0.801588 0.570698 0.099985
H22   H     H_    0.438189 0.131278 0.552400 0.116980
H23   H     H_    0.987879 0.617529 0.719748 0.115306
H24   H     H_    0.271055 0.985128 0.440654 0.072331
H25   H     H_    0.160025 0.079438 0.424663 0.062391
H26   H     H_    0.645699 0.920062 0.570603 0.058010
H27   H     H_    0.853989 0.281515 0.613042 -0.075928
H28   H     H_    0.527231 0.010870 0.550002 0.070211
H29   H     H_    0.435961 0.505693 0.280480 0.118574
H30   H     H_    0.832689 0.447758 0.748516 0.141289
H31   H     H_    0.216300 0.667275 0.955278 0.066941
H32   H     H_    0.282021 0.655933 0.868568 0.115311
H33   H     H_    0.345228 0.509846 0.711173 0.145942
H34   H     H_    0.134054 0.654496 0.688954 0.150057
H35   H     H_    0.216321 0.688236 0.035403 0.068456
H36   H     H_    0.146856 0.554695 0.397823 0.076028
H37   H     H_    0.625657 0.436341 0.592334 0.089548
H38   H     H_    0.045549 0.212190 0.691022 0.131786
H39   H     H_    0.983776 0.586315 0.618423 0.132358
H40   H     H_    0.851192 0.359301 0.291781 0.107076
H41   H     H_    0.127865 0.741644 0.642040 0.119506
H42   H     H_    0.204626 0.764682 0.588720 0.039601
H43   H     H_    0.178169 0.669558 0.589463 0.091477
H44   H     H_    0.457321 0.683455 0.561802 0.133760
H45   H     H_    0.093922 0.388304 0.381938 0.025252
H46   H     H_    0.474492 0.778486 0.586068 0.054905
H47   H     H_    0.607990 0.716195 0.611902 0.141459
H48   H     H_    0.287093 0.250152 0.697944 0.145838
H49   H     H_    0.565864 0.723158 0.730868 0.172592
H50   H     H_    0.656468 0.777723 0.690658 0.117058
H51   H     H_    0.556024 0.819787 0.745300 0.111417
H52   H     H_    0.411891 0.356096 0.747825 0.144550
H53   H     H_    0.472359 0.276181 0.774308 0.152429
H54   H     H_    0.605302 0.314289 0.736347 0.179967
H55   H     H_    0.622226 0.271699 0.347286 0.135073
H56   H     H_    0.892775 0.422987 0.375953 0.059490
H57   H     H_    0.637063 0.335531 0.405747 0.106086
H58   H     H_    0.598524 0.241796 0.407201 0.030519
H59   H     H_    0.473388 0.202696 0.689233 0.112181
H60   H     H_    0.736638 0.171975 0.628850 0.128103
H61   H     H_    0.816244 0.134278 0.683346 0.129049
H62   H     H_    0.759686 0.228215 0.690491 0.122406
H63   H     H_    0.143915 0.686681 0.373943 0.048553
H64   H     H_    0.161607 0.765171 0.343619 0.122015
H65   H     H_    0.146596 0.675880 0.306305 0.146813
H66   H     H_    0.363338 0.866094 0.440670 0.122679
H67   H     H_    0.015074 0.296833 0.298326 0.141883
H68   H     H_    0.653340 0.346686 0.511503 0.070991
H69   H     H_    0.422100 0.348020 0.114470 0.121767
H70   H     H_    0.761445 0.369259 0.894221 0.125800
H71   H     H_    0.879213 0.384796 0.981908 0.121010
H72   H     H_    0.755664 0.401977 0.033694 0.128523
H73   H     H_    0.735945 0.318917 0.987682 0.116130
H74   H     H_    0.504017 0.346048 0.029959 0.084242
H75   H     H_    0.806299 0.491941 0.237361 0.092851
H76   H     H_    0.833977 0.586287 0.235193 0.145644
H77   H     H_    0.925243 0.516620 0.190521 0.108719
H78   H     H_    0.052633 0.387976 0.292661 0.096147
H79   H     H_    0.148039 0.691413 0.121299 0.119440
H80   H     H_    0.186375 0.147451 0.618811 0.158504
H81   H     H_    0.051326 0.087887 0.638355 0.128434
H82   H     H_    0.003272 0.128075 0.582318 0.132681
H83   H     H_    0.786659 0.559064 0.673570 0.043312
H84   H     H_    0.690291 0.643734 0.670766 0.124620
H85   H     H_    0.709655 0.578905 0.612264 0.083760
H86   H     H_    0.302763 0.772630 0.708858 0.105276
N1    N     N_R   0.223216 0.523864 0.201145 -0.428171
N2    N     N_R   0.563720 0.494335 0.795197 -0.418602
O1    O     O_2   0.106080 0.324280 0.466820 -0.464536
O2    O     O_2   0.673729 0.562462 0.330062 -0.508718
O3    O     O_3   0.843727 0.677451 0.338160 -0.617403
O4    O     O_3   0.859130 0.413620 0.470620 -0.479172
O5    O     O_3   0.459240 0.537930 0.559910 -0.494483
O6    O     O_2   0.583120 0.462390 0.379940 -0.461167
O7    O     O_3   0.376387 0.355721 0.347350 -0.625350
O8    O     O_2   0.541631 0.758532 0.482312 -0.497484
O9    O     O_3   0.437759 0.748330 0.387964 -0.615072
O10   O     O_2   0.311538 0.408009 0.195270 -0.592353
O11   O     O_2   0.713987 0.395636 0.808789 -0.628122
O12   O     O_3   0.407179 0.646135 0.653474 -0.627375
O13   O     O_2   0.135174 0.638990 0.201248 -0.607249
O14   O     O_2   0.419711 0.597574 0.791555 -0.604476
O15   O     O_3   0.376230 0.370290 0.556910 -0.477206
O16   O     O_2   0.272390 0.242505 0.510691 -0.483707
O17   O     O_3   0.920017 0.316385 0.386445 -0.651441
O18   O     O_3   0.358168 0.246993 0.604788 -0.625366
O19   O     O_2   0.227190 0.537650 0.620070 -0.481479
O20   O     O_3   0.971110 0.406970 0.583250 -0.472801
O21   O     O_2   0.055775 0.470876 0.676517 -0.496837
O22   O     O_3   0.035848 0.330235 0.663535 -0.604558
O23   O     O_2   0.704230 0.675760 0.533200 -0.470895
O24   O     O_3   0.951180 0.586390 0.529420 -0.490720
O25   O     O_3   0.434080 0.629720 0.443130 -0.476634
O26   O     O_3   0.886599 0.689127 0.614201 -0.660088
O27   O     O_3   0.351080 0.462080 0.440130 -0.481631
O28   O     O_3   0.839200 0.593040 0.416790 -0.484297
P1    P     P_3+3 0.929380 0.335110 0.452880 0.967961
P2    P     P_3+3 0.398530 0.559060 0.613740 0.971680
P3    P     P_3+3 0.949221 0.410493 0.647804 0.947371
P4    P     P_3+3 0.880940 0.664900 0.547160 0.952451
P5    P     P_3+3 0.838689 0.588946 0.351285 0.932689
P6    P     P_3+3 0.403117 0.276262 0.548889 0.927979
P7    P     P_3+3 0.399315 0.446534 0.376002 0.968942
P8    P     P_3+3 0.405411 0.723063 0.447029 0.912870

loop_
_geom_bond_atom_site_label_1
_geom_bond_atom_site_label_2
_ccdc_geom_bond_type
C85   H72   S    
C53   C54   A    
C31   P1    S    
C33   O13   D    
C47   C61   S    
C88   H85   S    
C25   C27   A    
C76   H86   S    
C74   H35   S    
C70   H74   S    
C37   C46   D    
C64   H78   S    
Ba1   O19   S    
C15   C89   A    
C49   C72   A    
C87   H82   S    
O23   P4    D    
C80   H51   S    
C40   H12   S    
O15   P6    S    
Ba1   O4    S    
O5    P2    S    
C75   C76   S    
C54   C55   A    
C58   N2    Am   
C79   H46   S    
C78   H16   S    
Ba2   P4    S    
C35   C36   S    
C60   C65   D    
O2    P5    D    
C73   H32   S    
C15   C24   A    
C26   C27   A    
C22   C24   A    
C13   P4    S    
C80   H50   S    
C81   H53   S    
Ba1   O1    S    
C55   C57   A    
O26   P4    S    
C76   H2    S    
C13   C14   A    
C77   H43   S    
C78   H15   S    
C9    C22   A    
C45   H8    S    
O6    P7    D    
Ba1   Ba2   S    
C63   H33   S    
Ba1   P1    S    
O19   P2    D    
C84   H65   S    
C80   H49   S    
C35   C86   S    
C40   H34   S    
C81   H54   S    
C40   H23   S    
C17   C18   A    
C6    C7    A    
C86   H77   S    
Ba2   O23   S    
C78   H18   S    
C23   C82   S    
C48   C50   A    
C21   C22   A    
C65   N2    S    
C34   H6    S    
Ba2   O27   S    
C7    C8    A    
C36   C46   S    
C28   C88   S    
C30   H68   S    
C82   H58   S    
O27   P7    S    
C33   N1    Am   
C82   H57   S    
C85   H73   S    
C52   H45   S    
C57   C58   A    
C47   C62   D    
C3    H24   S    
C43   C70   A    
O4    P1    S    
O24   P4    S    
Ba1   O20   S    
C43   H69   S    
C49   C69   A    
C45   O3    S    
C4    C16   S    
C6    H66   S    
C19   H20   S    
Ba1   O5    S    
C58   O14   D    
C79   H44   S    
C20   H21   S    
C75   C77   S    
C79   H47   S    
C77   H42   S    
C12   O18   S    
O8    P8    D    
C48   C51   A    
C52   O17   S    
C72   C73   A    
Ba1   P2    S    
C49   C50   A    
C16   C83   S    
C39   N1    S    
C32   C42   A    
C87   H80   S    
C4    O22   S    
C23   O7    S    
C37   C38   D    
C3    C5    A    
C67   H14   S    
C83   H62   S    
C63   C65   S    
C29   P6    S    
C28   H39   S    
C28   O26   S    
C88   H84   S    
O21   P3    D    
C45   H9    S    
C75   O12   S    
O17   P1    S    
C5    C9    A    
C84   H64   S    
C83   H60   S    
C60   C61   S    
C17   C26   A    
C52   H56   S    
C76   C80   S    
C29   C30   A    
O25   P8    S    
C75   C79   S    
C66   C70   A    
C86   H76   S    
C5    C89   A    
O3    P5    S    
C24   C25   A    
Ba2   O25   S    
C51   C85   S    
C56   H10   S    
Ba2   O5    S    
C10   C11   A    
Ba1   O27   S    
C11   H19   S    
C53   H70   S    
C68   C69   A    
C1    C12   S    
O12   P2    S    
C56   H11   S    
C18   C31   A    
C38   C39   S    
C38   H29   S    
C12   H1    S    
C23   H4    S    
C41   C68   A    
C25   H28   S    
C8    C9    A    
C11   C13   A    
C41   C42   A    
C1    C81   S    
O28   P5    S    
C71   C74   A    
C62   P2    S    
C32   N1    Am   
C56   H13   S    
C61   P3    S    
Ba1   O24   S    
C57   C73   A    
O22   P3    S    
C64   H67   S    
O18   P6    S    
C42   C43   A    
C64   H40   S    
C47   H37   S    
C27   H22   S    
C1    H59   S    
C14   C20   A    
C37   P7    S    
C72   H31   S    
C54   C59   A    
C16   C87   S    
C51   C53   A    
C2    H25   S    
C26   C29   A    
Ba2   O24   S    
C87   H81   S    
C67   C78   S    
C69   C74   A    
C21   H26   S    
C3    C6    A    
C32   O10   D    
C52   C64   S    
C82   H55   S    
C88   H83   S    
C86   H75   S    
O20   P3    S    
C62   C63   D    
C2    C89   A    
Ba1   O15   S    
C84   H63   S    
C83   H61   S    
C67   O9    S    
C8    C14   A    
C30   C31   A    
C45   C56   S    
C81   H52   S    
C2    C19   A    
C59   O11   D    
C41   C44   A    
C77   H41   S    
O7    P7    S    
C59   N2    Am   
C15   C17   A    
C12   H3    S    
Ba2   O4    S    
C44   C71   A    
C35   C39   D    
C7    C10   A    
Ba2   O6    S    
O9    P8    S    
C50   C55   A    
C23   C34   S    
C85   H71   S    
C1    H48   S    
C18   C19   A    
C66   C68   A    
C4    H17   S    
C20   C21   A    
C28   C40   S    
C16   H38   S    
C34   H7    S    
Ba2   O28   S    
C10   P8    S    
C36   P5    S    
C71   H79   S    
O1    P1    D    
C33   C44   A    
C48   C66   A    
C4    H27   S    
C60   H30   S    
C67   C84   S    
O16   P6    D    
C34   H5    S    
C46   H36   S    
