data_mof_unit_66639.cif
_audit_creation_date              2013-03-05T16:02:16-0500
_audit_creation_method            fapswitch 2.2
_symmetry_space_group_name_H-M    P1
_symmetry_Int_Tables_number       1
_space_group_crystal_system       triclinic
_cell_length_a                    21.787661
_cell_length_b                    6.994599
_cell_length_c                    14.926062
_cell_angle_alpha                 89.452248
_cell_angle_beta                  104.594218
_cell_angle_gamma                 90.04647
_cell_volume                      2201.17465678

loop_
_atom_site_label
_atom_site_type_symbol
_atom_site_description
_atom_site_fract_x
_atom_site_fract_y
_atom_site_fract_z
_atom_type_partial_charge
O1    O     O_R   0.835850 0.638310 0.002120 -0.607384
O2    O     O_R   0.164150 0.361690 0.997880 -0.581078
O3    O     O_R   0.664150 0.138310 0.997880 -0.609673
O4    O     O_R   0.335850 0.861690 0.002120 -0.591180
O5    O     O_R   0.717530 0.306070 0.861970 -0.593120
O6    O     O_R   0.282470 0.693930 0.138030 -0.601171
O7    O     O_R   0.782470 0.806070 0.138030 -0.592466
O8    O     O_R   0.217530 0.193930 0.861970 -0.607379
C1    C     C_R   0.706577 0.477671 0.824556 0.951050
C2    C     C_R   0.298328 0.521505 0.173960 0.961553
C3    C     C_R   0.792991 0.976914 0.175438 0.955028
C4    C     C_R   0.199453 0.024080 0.827694 0.966031
O9    O     O_R   0.838690 0.308440 0.993250 -0.581156
O10   O     O_R   0.161310 0.691560 0.006750 -0.609626
O11   O     O_R   0.661310 0.808440 0.006750 -0.580866
O12   O     O_R   0.338690 0.191560 0.993250 -0.585759
O13   O     O_R   0.786170 0.140510 0.130090 -0.599847
O14   O     O_R   0.213830 0.859490 0.869910 -0.594888
O15   O     O_R   0.713830 0.640510 0.869910 -0.597964
O16   O     O_R   0.286170 0.359490 0.130090 -0.591366
C5    C     C_R   0.864214 0.479710 0.991795 0.910052
C6    C     C_R   0.135673 0.522810 0.006832 0.913783
C7    C     C_R   0.635946 0.979797 0.009287 0.910443
C8    C     C_R   0.363518 0.022258 0.989603 0.942716
O17   O     O_3   0.732630 0.472520 0.044740 -0.284766
O18   O     O_3   0.267370 0.527480 0.955260 -0.284142
O19   O     O_3   0.767370 0.972520 0.955260 -0.283775
O20   O     O_3   0.232630 0.027480 0.044740 -0.279971
V1    V     V_3+5 0.753220 0.196740 0.991700 1.155984
V2    V     V_3+5 0.246780 0.803260 0.008300 1.161238
V3    V     V_3+5 0.746780 0.696740 0.008300 1.157840
V4    V     V_3+5 0.253220 0.303260 0.991700 1.167986
H1    H     H_    0.581704 0.232291 0.302535 0.145052
H2    H     H_    0.408541 0.021899 0.669442 0.120073
H3    H     H_    0.911292 0.717799 0.691213 0.145900
H4    H     H_    0.087691 0.615637 0.323759 0.133897
C9    C     C_R   0.543283 0.951143 0.836145 -0.211026
C10   C     C_R   0.457227 0.022584 0.159850 -0.217343
C11   C     C_R   0.958224 0.469115 0.164509 -0.217157
C12   C     C_R   0.041512 0.537536 0.836846 -0.216181
C13   C     C_R   0.501939 0.957062 0.748560 0.069980
C14   C     C_R   0.497803 0.080277 0.242348 0.042750
C15   C     C_R   0.998256 0.509370 0.250485 0.037878
C16   C     C_R   0.999487 0.587692 0.753707 0.051762
C17   C     C_R   0.438908 0.005037 0.738727 -0.221571
C18   C     C_R   0.555631 0.161758 0.240873 -0.133189
C19   C     C_R   0.059564 0.573008 0.256617 -0.137853
C20   C     C_R   0.939816 0.655897 0.754233 -0.148444
C21   C     C_R   0.416185 0.050028 0.816025 0.176219
C22   C     C_R   0.578169 0.157749 0.160078 0.121449
C23   C     C_R   0.082784 0.592793 0.177030 0.125083
C24   C     C_R   0.918212 0.650170 0.835693 0.117071
C25   C     C_R   0.455235 0.014382 0.907500 0.051029
C26   C     C_R   0.542275 0.057427 0.081029 0.007738
C27   C     C_R   0.044386 0.530907 0.089263 0.007555
C28   C     C_R   0.956165 0.555881 0.916166 0.010297
C29   C     C_R   0.521566 0.981569 0.916570 0.102113
C30   C     C_R   0.477114 0.026044 0.076726 0.111539
C31   C     C_R   0.978871 0.491500 0.082563 0.123397
C32   C     C_R   0.021655 0.531210 0.920009 0.121346
C33   C     C_R   0.432413 0.015548 0.989938 -0.274066
C34   C     C_R   0.566010 0.999774 0.003961 -0.269397
C35   C     C_R   0.066729 0.519587 0.006611 -0.267556
C36   C     C_R   0.933795 0.499434 0.995166 -0.271023
H5    H     H_    0.592926 0.926252 0.840036 0.141897
H6    H     H_    0.409718 0.979265 0.161138 0.138316
H7    H     H_    0.909578 0.432232 0.162289 0.139313
H8    H     H_    0.089896 0.504954 0.835667 0.134136
C37   C     C_R   0.165997 0.012786 0.728705 -0.246358
C38   C     C_R   0.818356 0.988322 0.278304 -0.256720
C39   C     C_R   0.328535 0.501744 0.275334 -0.254274
C40   C     C_R   0.679463 0.487217 0.721880 -0.253473
C41   C     C_R   0.168744 0.922889 0.573915 0.173694
C42   C     C_R   0.798467 0.029392 0.432183 0.156329
C43   C     C_R   0.319636 0.401578 0.429304 0.129719
C44   C     C_R   0.695096 0.522249 0.564639 0.154068
C45   C     C_R   0.198094 0.931840 0.668367 -0.029771
C46   C     C_R   0.776550 0.987817 0.336466 0.019528
C47   C     C_R   0.293093 0.420585 0.332795 0.009881
C48   C     C_R   0.719329 0.480260 0.660677 0.015672
C49   C     C_R   0.099719 0.049575 0.698103 -0.039626
C50   C     C_R   0.884155 0.005824 0.316260 -0.042150
C51   C     C_R   0.394738 0.529089 0.309816 -0.037451
C52   C     C_R   0.613271 0.496549 0.686109 -0.044010
C53   C     C_R   0.067692 0.037966 0.600846 0.016109
C54   C     C_R   0.909395 0.040007 0.413705 0.029998
C55   C     C_R   0.424965 0.503546 0.407042 0.026766
C56   C     C_R   0.586106 0.500561 0.587901 0.027624
C57   C     C_R   0.106934 0.998370 0.540297 0.068279
C58   C     C_R   0.865513 0.048335 0.470208 0.066651
C59   C     C_R   0.385889 0.436307 0.464831 0.065856
C60   C     C_R   0.627596 0.535708 0.529596 0.067139
C61   C     C_R   0.999701 0.054805 0.558116 0.111463
C62   C     C_R   0.976483 0.057161 0.458754 0.109434
C63   C     C_R   0.492532 0.530126 0.449786 0.101328
C64   C     C_R   0.519183 0.477695 0.544851 0.102910
C65   C     C_R   0.021786 0.080718 0.408159 -0.195219
C66   C     C_R   0.953754 0.063122 0.608605 -0.191517
C67   C     C_R   0.478944 0.393821 0.592992 -0.187935
C68   C     C_R   0.535188 0.604910 0.402121 -0.179370
C69   C     C_R   0.083942 0.034868 0.446118 -0.230576
C70   C     C_R   0.889718 0.066831 0.566105 -0.269963
C71   C     C_R   0.414663 0.386541 0.557220 -0.218845
C72   C     C_R   0.600162 0.588156 0.436952 -0.261282
H9    H     H_    0.114421 0.032747 0.400486 0.142614
H10   H     H_    0.859283 0.075589 0.612019 0.147782
H11   H     H_    0.388792 0.327933 0.603675 0.124465
H12   H     H_    0.628043 0.625446 0.389405 0.144168
H13   H     H_    0.011119 0.134693 0.338569 0.151042
H14   H     H_    0.963948 0.060442 0.681976 0.151612
H15   H     H_    0.496120 0.321843 0.658167 0.150251
H16   H     H_    0.520769 0.679072 0.337272 0.151152
C73   C     C_1   0.526043 0.939204 0.667529 0.054642
N1    N     N_1   0.545446 0.927833 0.602403 -0.073702
C74   C     C_1   0.477677 0.070572 0.327108 0.054250
N2    N     N_1   0.461507 0.060884 0.395137 -0.073109
C75   C     C_1   0.973220 0.512255 0.331163 0.056735
N3    N     N_1   0.952841 0.515903 0.395621 -0.075835
C76   C     C_1   0.019570 0.582880 0.668878 0.067270
N4    N     N_1   0.035854 0.577745 0.600897 -0.080820
C77   C     C_3   0.356933 0.171954 0.796037 -0.405033
C78   C     C_3   0.372432 0.377090 0.827844 -0.749609
H17   H     H_    0.402676 0.382924 0.899700 0.254409
H18   H     H_    0.397689 0.450639 0.781327 0.235488
H19   H     H_    0.327562 0.453357 0.825444 0.264465
H20   H     H_    0.333795 0.179101 0.720609 0.176795
H21   H     H_    0.320766 0.109028 0.826485 0.182308
C79   C     C_3   0.633204 0.284701 0.152866 -0.291809
C80   C     C_3   0.648792 0.448771 0.220808 -0.924515
H22   H     H_    0.605337 0.532534 0.219896 0.267730
H23   H     H_    0.670910 0.394983 0.291238 0.238132
H24   H     H_    0.683959 0.542881 0.200057 0.281684
H25   H     H_    0.676500 0.197200 0.161532 0.195346
H26   H     H_    0.620263 0.355496 0.083759 0.227283
C81   C     C_3   0.142560 0.708072 0.181884 -0.295574
C82   C     C_3   0.173866 0.806656 0.270955 -0.993260
H27   H     H_    0.139840 0.906755 0.288266 0.269836
H28   H     H_    0.191377 0.698763 0.325282 0.271350
H29   H     H_    0.215597 0.888380 0.261755 0.284376
H30   H     H_    0.178844 0.611386 0.168898 0.186408
H31   H     H_    0.130171 0.825360 0.129831 0.230025
C83   C     C_3   0.861489 0.770010 0.841850 -0.285321
C84   C     C_3   0.840832 0.926818 0.769949 -0.947092
H32   H     H_    0.882288 0.016986 0.767670 0.265223
H33   H     H_    0.818519 0.864388 0.701958 0.242288
H34   H     H_    0.804462 0.017062 0.789507 0.284719
H35   H     H_    0.820338 0.675783 0.837492 0.193141
H36   H     H_    0.874813 0.847729 0.908421 0.229655
C85   C     C_1   0.922897 0.966497 0.252408 0.044378
N5    N     N_1   0.952739 0.936037 0.199954 -0.076459
C86   C     C_1   0.068271 0.085504 0.770791 0.023617
N6    N     N_1   0.044378 0.109773 0.830826 -0.078721
C87   C     C_1   0.575643 0.511612 0.753437 0.044733
N7    N     N_1   0.546216 0.520408 0.807949 -0.079301
C88   C     C_1   0.429813 0.544565 0.239393 0.025090
N8    N     N_1   0.456807 0.554931 0.181865 -0.079680
C89   C     C_1   0.712895 0.922265 0.297551 0.019403
N9    N     N_1   0.662085 0.867606 0.266111 -0.113869
C90   C     C_1   0.258840 0.838602 0.704692 0.037722
N10   N     N_1   0.307046 0.762577 0.732591 -0.103599
C91   C     C_1   0.783346 0.414205 0.697544 0.025835
N11   N     N_1   0.834379 0.358646 0.727514 -0.106562
C92   C     C_1   0.232838 0.334020 0.288100 0.069983
N12   N     N_1   0.185031 0.264919 0.250837 -0.094885
C93   C     C_3   0.195632 0.787313 0.515171 -0.348722
C94   C     C_3   0.257183 0.851645 0.492224 -0.904661
H37   H     H_    0.293332 0.899163 0.554036 0.255713
H38   H     H_    0.278061 0.731918 0.462946 0.262609
H39   H     H_    0.248566 0.961571 0.437489 0.271807
H40   H     H_    0.204919 0.651947 0.554898 0.209210
H41   H     H_    0.159581 0.752329 0.451427 0.179655
C95   C     C_3   0.753818 0.048638 0.498089 -0.392141
C96   C     C_3   0.682195 0.070848 0.459822 -0.881390
H42   H     H_    0.671736 0.174177 0.402234 0.248920
H43   H     H_    0.658779 0.933874 0.437383 0.264161
H44   H     H_    0.660880 0.124306 0.515038 0.256290
H45   H     H_    0.761989 0.930211 0.548905 0.203556
H46   H     H_    0.767451 0.177958 0.539505 0.215663
C97   C     C_3   0.280544 0.348237 0.498922 -0.376849
C98   C     C_3   0.208509 0.336925 0.466715 -0.903150
H47   H     H_    0.187968 0.461009 0.424299 0.253569
H48   H     H_    0.194186 0.210795 0.424659 0.268862
H49   H     H_    0.188009 0.325631 0.527523 0.256156
H50   H     H_    0.297577 0.210132 0.531797 0.195551
H51   H     H_    0.290894 0.455210 0.555205 0.204158
C99   C     C_3   0.737398 0.548036 0.495830 -0.397944
C100  C     C_3   0.809534 0.563383 0.530202 -0.872251
H52   H     H_    0.822424 0.667828 0.586203 0.247364
H53   H     H_    0.832342 0.424536 0.553017 0.266944
H54   H     H_    0.829395 0.614129 0.472576 0.257122
H55   H     H_    0.727052 0.435251 0.443393 0.206030
H56   H     H_    0.723731 0.681595 0.456876 0.214103

loop_
_geom_bond_atom_site_label_1
_geom_bond_atom_site_label_2
_geom_bond_distance
_ccdc_geom_bond_type
C95   H45   1.101515 S    
C93   H41   1.099821 S    
C84   H34   1.110177 S    
C67   C71   1.368480 A    
C4    C37   1.476495 S    
C56   C64   1.447047 A    
O1    C5    1.299494 A    
C61   C62   1.441245 A    
C66   H14   1.061159 S    
C27   C31   1.432305 A    
O19   V1    1.718176 S    
O13   V1    2.043152 S    
C37   C45   1.395886 A    
O3    C7    1.297658 A    
C63   C64   1.435355 A    
C1    C40   1.498004 S    
C68   C72   1.384293 A    
O15   V3    2.050517 S    
C79   C80   1.519475 S    
C39   C47   1.406356 A    
C91   N11   1.155049 T    
C3    C38   1.497950 S    
O4    V2    2.007430 S    
C29   C34   1.421905 A    
C93   C94   1.531588 S    
C96   H42   1.096738 S    
C95   C96   1.528103 S    
O7    C3    1.319127 A    
C31   C36   1.422099 A    
C22   C26   1.430419 A    
C43   C47   1.415555 A    
C49   C86   1.445633 S    
C32   C35   1.414326 A    
C12   C32   1.414019 A    
O9    V1    2.013701 S    
C10   C14   1.386003 A    
C55   C59   1.432391 A    
C9    C13   1.388430 A    
C26   C30   1.421860 A    
O4    C8    1.308172 A    
C38   C46   1.407757 A    
C84   H32   1.108555 S    
C64   C67   1.392009 A    
O1    V3    2.008430 S    
H4    C19   1.079217 S    
O2    V4    2.008432 S    
C14   C18   1.387567 A    
C99   H55   1.099248 S    
O3    V1    2.007432 S    
C58   C70   1.402390 A    
C100  H54   1.111104 S    
C54   C62   1.452258 A    
C6    C35   1.501450 S    
C10   C30   1.413514 A    
C23   C81   1.517715 S    
C1    O15   1.319505 A    
C7    C34   1.512175 S    
C10   H6    1.083063 S    
C2    O16   1.307454 A    
C5    C36   1.510357 S    
C27   C35   1.438676 A    
O2    C6    1.310974 A    
C86   N6    1.157974 T    
C28   C36   1.436756 A    
O14   V2    2.043152 S    
C43   C97   1.543528 S    
C12   C16   1.385997 A    
C42   C95   1.554715 S    
C98   H49   1.110121 S    
C43   C59   1.428287 A    
C80   H24   1.109592 S    
C2    C39   1.495354 S    
C30   C33   1.413467 A    
O11   C7    1.325107 A    
C99   C100  1.529485 S    
C67   H15   1.071141 S    
O12   C8    1.309586 A    
C94   H38   1.098638 S    
H1    C18   1.076067 S    
C53   C61   1.462129 A    
O10   V2    2.013699 S    
C82   H29   1.110349 S    
H3    C20   1.075431 S    
C83   H35   1.101322 S    
O20   V4    2.167328 S    
C98   H48   1.086823 S    
O5    V1    2.037842 S    
C96   H43   1.099814 S    
O17   V1    2.181402 S    
C81   H30   1.095668 S    
C69   H9    1.064547 S    
O7    V3    2.051219 S    
C81   H31   1.109959 S    
O19   V3    2.167328 S    
O8    V4    2.051218 S    
C56   C60   1.423727 A    
C81   C82   1.505999 S    
C41   C93   1.512251 S    
C54   C58   1.426922 A    
C59   C71   1.404046 A    
C77   H20   1.112253 S    
C25   C29   1.435593 A    
O18   V4    1.708198 S    
C11   C15   1.388974 A    
C26   C34   1.436065 A    
C16   C76   1.440769 S    
C50   C54   1.441674 A    
C9    C29   1.414737 A    
C24   C83   1.516198 S    
C28   C32   1.424089 A    
C89   N9    1.154494 T    
C9    H5    1.082610 S    
C52   C56   1.435910 A    
O5    C1    1.315282 A    
C79   H26   1.110228 S    
C65   H13   1.070725 S    
C52   C87   1.452759 S    
C46   C89   1.438460 S    
C90   N10   1.155668 T    
C17   C21   1.403676 A    
O8    C4    1.318179 A    
C11   C31   1.412953 A    
O9    C5    1.322634 A    
H2    C17   1.083577 S    
C13   C17   1.385047 A    
C80   H23   1.102869 S    
O11   V3    2.014699 S    
C83   H36   1.109878 S    
C77   C78   1.526319 S    
C40   C52   1.407337 A    
C45   C90   1.450521 S    
C8    C33   1.500589 S    
C50   C85   1.451646 S    
C82   H28   1.097946 S    
O6    V2    2.037843 S    
C44   C60   1.434209 A    
O18   V2    2.181402 S    
C12   H8    1.083208 S    
C94   H37   1.105102 S    
C22   C79   1.516378 S    
C25   C33   1.438717 A    
C72   H12   1.074314 S    
C44   C99   1.552435 S    
C98   H47   1.096237 S    
C71   H11   1.075972 S    
C73   N1    1.156968 T    
O16   V4    2.050517 S    
C96   H44   1.110747 S    
C95   H46   1.098311 S    
C93   H40   1.103707 S    
C84   H33   1.102910 S    
C55   C63   1.461937 A    
C3    O13   1.313165 A    
C53   C57   1.420932 A    
C57   C69   1.389485 A    
C63   C68   1.403148 A    
C11   H7    1.083069 S    
O17   V3    1.708199 S    
C44   C48   1.424997 A    
C47   C92   1.449226 S    
C82   H27   1.098822 S    
C51   C55   1.444039 A    
O6    C2    1.325315 A    
C19   C23   1.409209 A    
C76   N4    1.157096 T    
C77   H21   1.094212 S    
C97   H51   1.110277 S    
O12   V4    2.014701 S    
C18   C22   1.412550 A    
C75   N3    1.157236 T    
C62   C65   1.394528 A    
C42   C58   1.434183 A    
C78   H19   1.106531 S    
O20   V2    1.718177 S    
C80   H22   1.110894 S    
C41   C57   1.414099 A    
C100  H52   1.097405 S    
C40   C48   1.411432 A    
C66   C70   1.379641 A    
C85   N5    1.158064 T    
O10   C6    1.305547 A    
C68   H16   1.068689 S    
C15   C19   1.388881 A    
C21   C25   1.434810 A    
C13   C73   1.441285 S    
C70   H10   1.069108 S    
C23   C27   1.435730 A    
C21   C77   1.511870 S    
C99   H56   1.096480 S    
C38   C50   1.408152 A    
C49   C53   1.446565 A    
C48   C91   1.439133 S    
C100  H53   1.102390 S    
C92   N12   1.157683 T    
C37   C49   1.423385 A    
C60   C72   1.406461 A    
C97   C98   1.523473 S    
C97   H50   1.100630 S    
C16   C20   1.387127 A    
C14   C74   1.440593 S    
C20   C24   1.410299 A    
C51   C88   1.450214 S    
C94   H39   1.097643 S    
C42   C46   1.420432 A    
C4    O14   1.306818 A    
C88   N8    1.158315 T    
C15   C75   1.442076 S    
C41   C45   1.395586 A    
C83   C84   1.514005 S    
C39   C51   1.417520 A    
C74   N2    1.157017 T    
C78   H17   1.109425 S    
C79   H25   1.104136 S    
C78   H18   1.111210 S    
C61   C66   1.398045 A    
C65   C69   1.366868 A    
C24   C28   1.430619 A    
C87   N7    1.157925 T    
