data_mof_unit_66647.cif
_audit_creation_date              2012-12-10T19:48:29-0500
_audit_creation_method            fapswitch 2.2
_symmetry_space_group_name_H-M    P1
_symmetry_Int_Tables_number       1
_space_group_crystal_system       triclinic
_cell_length_a                    11.553347
_cell_length_b                    10.942859
_cell_length_c                    9.783838
_cell_angle_alpha                 89.73836
_cell_angle_beta                  91.069761
_cell_angle_gamma                 90.010098
_cell_volume                      1236.70934302

loop_
_atom_site_label
_atom_site_type_symbol
_atom_type_description
_atom_site_fract_x
_atom_site_fract_y
_atom_site_fract_z
_atom_type_partial_charge
C1    C     C_R   0.498551 0.261091 0.499241 0.814336
C2    C     C_R   0.499413 0.739527 0.499539 0.794114
C3    C     C_R   0.872236 0.508763 0.501929 -0.115476
C4    C     C_R   0.127887 0.500740 0.498229 -0.144004
C5    C     C_R   0.941611 0.559877 0.607779 0.004190
C6    C     C_R   0.057363 0.453744 0.390814 0.015060
C7    C     C_3   0.602832 0.045863 0.520107 -0.031692
C8    C     C_3   0.392751 0.956309 0.470400 0.035728
C9    C     C_3   0.568824 0.961143 0.397981 0.425901
C10   C     C_3   0.424739 0.040996 0.590323 0.484099
C11   C     C_3   0.500483 0.876879 0.496735 -0.214173
C12   C     C_3   0.494939 0.124692 0.495404 -0.222148
C13   C     C_3   0.533309 0.963170 0.618019 0.093836
C14   C     C_3   0.459775 0.040205 0.375476 0.097161
C15   C     C_3   0.482004 0.606239 0.047516 0.113684
C16   C     C_3   0.518368 0.393801 0.952124 0.167131
C17   C     C_3   0.402555 0.535495 0.948198 0.168843
C18   C     C_3   0.596812 0.462515 0.051614 0.200761
C19   C     C_3   0.579160 0.569297 0.952306 0.195039
C20   C     C_3   0.421608 0.428283 0.050201 0.197181
C21   C     C_R   0.262772 0.498741 0.498843 0.742076
C22   C     C_R   0.737250 0.503252 0.501300 0.781157
C23   C     C_R   0.118587 0.444778 0.025263 -0.189690
C24   C     C_R   0.908593 0.644087 0.962394 -0.178950
C25   C     C_R   0.123161 0.487413 0.158138 0.079923
C26   C     C_R   0.890533 0.570974 0.848158 0.143315
C27   C     C_R   0.107430 0.404191 0.266986 -0.058937
C28   C     C_R   0.887052 0.626020 0.719012 -0.014401
C29   C     C_R   0.097062 0.277274 0.238853 0.437308
C30   C     C_R   0.877822 0.753730 0.706852 0.403420
C31   C     C_R   0.114582 0.235460 0.105195 0.124986
C32   C     C_R   0.884422 0.826834 0.824959 0.063159
C33   C     C_R   0.117268 0.320366 0.998004 0.085588
C34   C     C_R   0.912268 0.771607 0.950217 0.083563
C35   C     C_R   0.934117 0.469641 0.387730 0.059229
C36   C     C_R   0.067115 0.560093 0.603464 0.109365
Cu1   Cu    Cu3+1 0.500030 0.499990 0.643150 0.974814
Cu2   Cu    Cu3+1 0.499970 0.500010 0.356850 0.965554
H1    H     H_    0.115246 0.508780 0.941829 0.217595
H2    H     H_    0.924004 0.601567 0.059075 0.170297
N1    N     N_3   0.500090 0.499970 0.858290 -0.215469
N2    N     N_3   0.499910 0.500030 0.141710 -0.206019
O1    O     O_R   0.500060 0.316850 0.620870 -0.551998
O2    O     O_R   0.499940 0.683150 0.379130 -0.555605
O3    O     O_R   0.500000 0.316860 0.379090 -0.574324
O4    O     O_R   0.500000 0.683140 0.620910 -0.593970
O5    O     O_R   0.319670 0.500010 0.620890 -0.546572
O6    O     O_R   0.680330 0.499990 0.379110 -0.557462
O7    O     O_R   0.319620 0.500010 0.379110 -0.604903
O8    O     O_R   0.680380 0.499990 0.620890 -0.587772
N3    N     N_3   0.129988 0.278797 0.861929 -0.598788
H3    H     H_    0.141047 0.352656 0.795223 0.234417
H4    H     H_    0.207808 0.230886 0.863157 0.267229
N4    N     N_3   0.951450 0.845424 0.061258 -0.642508
H5    H     H_    0.954561 0.791690 0.148404 0.215019
H6    H     H_    0.037377 0.868226 0.041655 0.230473
N5    N     N_3   0.301978 0.596518 0.891274 -0.550255
H7    H     H_    0.263151 0.644888 0.969737 0.210005
H8    H     H_    0.333023 0.663807 0.825230 0.251748
N6    N     N_3   0.697426 0.400318 0.106206 -0.556975
H9    H     H_    0.668295 0.334058 0.174774 0.252605
H10   H     H_    0.736401 0.352121 0.027999 0.203571
N7    N     N_3   0.462970 0.729253 0.098967 -0.529018
H11   H     H_    0.454064 0.787662 0.014634 0.216967
H12   H     H_    0.383703 0.729420 0.148485 0.219470
N8    N     N_3   0.539588 0.271686 0.898739 -0.531896
H13   H     H_    0.553692 0.212913 0.981764 0.196406
H14   H     H_    0.617050 0.274796 0.845418 0.230261
N9    N     N_3   0.663263 0.655191 0.902070 -0.572794
H15   H     H_    0.676359 0.721409 0.977362 0.227672
H16   H     H_    0.625862 0.699523 0.818450 0.258772
N10   N     N_3   0.365111 0.323740 0.109283 -0.565072
H17   H     H_    0.329358 0.269999 0.032360 0.244092
H18   H     H_    0.307821 0.352776 0.181847 0.257746
N11   N     N_3   0.129345 0.616703 0.179008 -0.624422
H19   H     H_    0.202964 0.637060 0.237651 0.240832
H20   H     H_    0.057377 0.642865 0.233833 0.210935
N12   N     N_3   0.882421 0.441134 0.863508 -0.593095
H21   H     H_    0.802695 0.414193 0.821691 0.242996
H22   H     H_    0.945245 0.399923 0.804372 0.236490
O9    O     O_3   0.071035 0.193390 0.339615 -0.616246
C37   C     C_3   0.949527 0.174745 0.348197 0.045785
H23   H     H_    0.907319 0.249502 0.402304 0.179195
H24   H     H_    0.936627 0.096541 0.416002 0.160456
C38   C     C_3   0.884039 0.143626 0.214653 -0.908986
H25   H     H_    0.916682 0.056601 0.173963 0.260118
H26   H     H_    0.790485 0.133850 0.235352 0.223627
H27   H     H_    0.890983 0.215228 0.135389 0.254983
O10   O     O_3   0.878192 0.804636 0.577672 -0.604901
C39   C     C_3   0.979367 0.874946 0.560973 0.071145
H28   H     H_    0.051947 0.851858 0.632831 0.139998
H29   H     H_    0.957068 0.970927 0.579309 0.167518
C40   C     C_3   0.022470 0.859830 0.416955 -0.889184
H30   H     H_    0.950841 0.868442 0.344857 0.249593
H31   H     H_    0.080316 0.934206 0.386072 0.262551
H32   H     H_    0.065972 0.770428 0.407388 0.245100
N13   N     N_3   0.132275 0.108224 0.076255 -0.580311
H33   H     H_    0.063069 0.079124 0.014806 0.225462
H34   H     H_    0.133467 0.055234 0.165319 0.267782
N14   N     N_3   0.872009 0.956916 0.815090 -0.610050
H35   H     H_    0.810990 0.984876 0.886090 0.241786
H36   H     H_    0.951166 0.997063 0.841515 0.221315
N15   N     N_3   0.868711 0.447884 0.265283 -0.553371
H37   H     H_    0.839382 0.532719 0.231615 0.247305
H38   H     H_    0.913105 0.411747 0.183900 0.236706
N16   N     N_3   0.135579 0.627718 0.700882 -0.566970
H39   H     H_    0.180031 0.695483 0.647995 0.201970
H40   H     H_    0.089100 0.672243 0.775485 0.207617
O11   O     O_3   0.617129 0.927581 0.272550 -0.586548
C41   C     C_3   0.732046 0.890998 0.288259 -0.003350
H41   H     H_    0.779001 0.942460 0.368692 0.166710
H42   H     H_    0.773900 0.910186 0.190023 0.200385
C42   C     C_3   0.739325 0.754847 0.313253 -0.634010
H43   H     H_    0.684899 0.705384 0.237060 0.277114
H44   H     H_    0.828967 0.722153 0.304908 0.179996
H45   H     H_    0.712143 0.735234 0.418493 0.243942
O12   O     O_3   0.344583 0.084531 0.684629 -0.573002
C43   C     C_3   0.266039 0.165183 0.616477 0.112306
H46   H     H_    0.278666 0.178383 0.504557 0.156162
H47   H     H_    0.276153 0.257542 0.660154 0.166242
C44   C     C_3   0.144066 0.118276 0.631372 -0.796204
H48   H     H_    0.131586 0.072613 0.731535 0.257653
H49   H     H_    0.080250 0.193119 0.615734 0.235989
H50   H     H_    0.130798 0.050821 0.551243 0.264845
N17   N     N_3   0.713728 0.099236 0.557837 -0.594848
H51   H     H_    0.771467 0.027927 0.575712 0.253801
H52   H     H_    0.740911 0.149490 0.473779 0.201690
N18   N     N_3   0.279993 0.905811 0.439299 -0.592389
H53   H     H_    0.288232 0.849098 0.354381 0.217483
H54   H     H_    0.258843 0.849702 0.521563 0.213758
N19   N     N_3   0.572731 0.925646 0.753566 -0.571485
H55   H     H_    0.581329 0.004571 0.812603 0.248011
H56   H     H_    0.655902 0.890920 0.742158 0.234423
N20   N     N_3   0.415535 0.081472 0.242844 -0.523689
H57   H     H_    0.393502 0.003961 0.186039 0.247222
H58   H     H_    0.484356 0.123150 0.193016 0.250067

loop_
_geom_bond_atom_site_label_1
_geom_bond_atom_site_label_2
_ccdc_geom_bond_type
C22   O6    A    
C4    C36   A    
C40   H30   S    
C4    C21   S    
C27   C29   A    
N8    H14   S    
N11   H19   S    
N18   H53   S    
C43   H47   S    
N7    H12   S    
N13   H33   S    
N5    H7    S    
Cu2   O7    S    
N19   H56   S    
C38   H25   S    
C2    O4    A    
C15   C19   S    
C26   N12   S    
C24   C26   A    
Cu2   N2    S    
C35   N15   S    
C18   N2    S    
N12   H22   S    
N5    H8    S    
N16   H39   S    
C5    C36   A    
C17   C20   S    
C6    C35   A    
N6    H10   S    
C18   C19   S    
N9    H16   S    
C43   H46   S    
C44   H50   S    
C41   H41   S    
C1    O1    A    
C2    O2    A    
Cu2   O3    S    
C31   C33   A    
Cu1   O5    S    
Cu2   O6    S    
C22   O8    A    
C42   H45   S    
C31   N13   S    
N8    H13   S    
C40   H31   S    
C21   O5    A    
C1    C12   S    
C30   O10   S    
C2    C11   S    
C21   O7    A    
N13   H34   S    
C8    N18   S    
O9    C37   S    
C41   H42   S    
C38   H26   S    
C9    O11   S    
C7    C12   S    
N4    H6    S    
C36   N16   S    
N3    H3    S    
N10   H18   S    
N12   H21   S    
N20   H58   S    
C14   N20   S    
C23   C33   A    
C24   C34   A    
C33   N3    S    
C32   N14   S    
N6    H9    S    
N3    H4    S    
C43   C44   S    
C32   C34   A    
Cu1   O1    S    
C9    C14   S    
Cu2   O2    S    
Cu1   Cu2   S    
C5    C28   S    
C9    C11   S    
C39   H29   S    
C6    C27   S    
C3    C35   A    
C16   C20   S    
N14   H36   S    
C13   N19   S    
N15   H38   S    
C16   C18   S    
C7    N17   S    
N11   H20   S    
C41   C42   S    
C44   H48   S    
C10   C12   S    
C4    C6    A    
C12   C14   S    
C29   O9    S    
C34   N4    S    
C40   H32   S    
C37   H24   S    
N17   H51   S    
C19   N9    S    
C16   N8    S    
N19   H55   S    
C39   C40   S    
C42   H43   S    
C38   H27   S    
C18   N6    S    
C15   C17   S    
N4    H5    S    
C8    C14   S    
C15   N2    S    
N10   H17   S    
C3    C5    A    
C10   C13   S    
N18   H54   S    
C20   N2    S    
N20   H57   S    
C25   C27   A    
C37   C38   S    
C26   C28   A    
C28   C30   A    
Cu1   O4    S    
C29   C31   A    
C10   O12   S    
O12   C43   S    
C30   C32   A    
Cu1   O8    S    
C11   C13   S    
C1    O3    A    
C39   H28   S    
N16   H40   S    
C8    C11   S    
C23   H1    S    
N14   H35   S    
C24   H2    S    
C23   C25   A    
Cu1   N1    S    
N9    H15   S    
C17   N1    S    
C44   H49   S    
N7    H11   S    
C7    C9    S    
C7    C13   S    
C8    C10   S    
C37   H23   S    
N15   H37   S    
N17   H52   S    
C15   N7    S    
C20   N10   S    
C3    C22   S    
C25   N11   S    
O10   C39   S    
O11   C41   S    
C16   N1    S    
C19   N1    S    
C17   N5    S    
C42   H44   S    
