data_mof_unit_17284.cif
_audit_creation_date              2012-12-10T19:08:08-0500
_audit_creation_method            fapswitch 2.2
_symmetry_space_group_name_H-M    P1
_symmetry_Int_Tables_number       1
_space_group_crystal_system       triclinic
_cell_length_a                    9.073816
_cell_length_b                    10.827668
_cell_length_c                    9.555965
_cell_angle_alpha                 90.27149
_cell_angle_beta                  89.980368
_cell_angle_gamma                 90.167163
_cell_volume                      938.842415827

loop_
_atom_site_label
_atom_site_type_symbol
_atom_type_description
_atom_site_fract_x
_atom_site_fract_y
_atom_site_fract_z
_atom_type_partial_charge
C1    C     C_R   0.505714 0.262647 0.499430 0.835603
C2    C     C_R   0.569841 0.932639 0.387943 -0.228383
C3    C     C_R   0.498536 0.870587 0.497382 -0.110643
C4    C     C_R   0.419355 0.938558 0.595639 0.115342
C5    C     C_3   0.418322 0.933898 0.751719 -0.438778
C6    C     C_3   0.421441 0.074080 0.750322 -0.422668
C7    C     C_R   0.624032 0.532185 0.073739 0.245845
C8    C     C_R   0.383205 0.455382 0.074102 -0.061763
C9    C     C_R   0.383107 0.455536 0.925454 -0.065191
C10   C     C_R   0.624251 0.531292 0.926356 0.267564
C11   C     C_3   0.706496 0.650294 0.918729 -0.542312
C12   C     C_R   0.220703 0.499953 0.499983 0.843780
C13   C     C_3   0.703322 0.653416 0.078060 -0.275346
C14   C     C_R   0.499943 0.737452 0.500084 0.813390
C15   C     C_R   0.779285 0.500082 0.500006 0.879257
C16   C     C_1   0.065544 0.500002 0.499976 -0.168987
C17   C     C_1   0.934421 0.500036 0.499981 -0.124891
C18   C     C_R   0.423118 0.065505 0.594266 0.095293
C19   C     C_R   0.508215 0.129151 0.496407 -0.168289
C20   C     C_R   0.579137 0.061724 0.387562 -0.042791
Cu1   Cu    Cu3+1 0.499990 0.499980 0.640670 0.953789
Cu2   Cu    Cu3+1 0.500010 0.500020 0.359330 0.989626
H1    H     H_    0.640401 0.724528 0.870531 0.202473
H2    H     H_    0.633851 0.729258 0.120625 0.165703
H3    H     H_    0.628329 0.880204 0.308787 0.196444
H4    H     H_    0.313781 0.895120 0.793622 0.204843
H5    H     H_    0.520598 0.893907 0.795471 0.204561
H6    H     H_    0.318151 0.116400 0.790424 0.197817
H7    H     H_    0.524888 0.113875 0.794046 0.218338
H8    H     H_    0.287807 0.420478 0.129070 0.154317
H9    H     H_    0.287509 0.420939 0.870203 0.154376
H10   H     H_    0.817762 0.638062 0.871869 0.216962
N1    N     N_R   0.500920 0.500930 0.147930 -0.206059
N2    N     N_R   0.500930 0.500890 0.852020 -0.193189
O1    O     O_R   0.500000 0.319640 0.618810 -0.585861
O2    O     O_R   0.500020 0.319680 0.381230 -0.561484
O3    O     O_R   0.288380 0.499980 0.618770 -0.587011
O4    O     O_R   0.288400 0.500020 0.381190 -0.588837
O5    O     O_R   0.499980 0.680320 0.618770 -0.584903
O6    O     O_R   0.500000 0.680360 0.381190 -0.587224
O7    O     O_R   0.711600 0.499980 0.618810 -0.590640
O8    O     O_R   0.711620 0.500020 0.381230 -0.551663
C21   C     C_2   0.674560 0.119748 0.279787 0.878730
O9    O     O_2   0.752904 0.208098 0.309710 -0.590455
O10   O     O_R   0.679361 0.069438 0.144784 -0.769928
H11   H     H_    0.749168 0.115834 0.080816 0.333960
C22   C     C_2   0.853476 0.645069 0.144224 0.922998
O11   O     O_2   0.891054 0.722561 0.230635 -0.608322
O12   O     O_R   0.949180 0.549120 0.107634 -0.765283
H12   H     H_    0.046203 0.553840 0.159982 0.329890

loop_
_geom_bond_atom_site_label_1
_geom_bond_atom_site_label_2
_ccdc_geom_bond_type
C7    C10   A    
C21   O9    D    
Cu1   O1    S    
C2    C20   A    
C11   C13   S    
C15   O8    A    
C19   C20   A    
Cu1   O5    S    
C4    C18   A    
C6    H7    S    
C2    C3    A    
C8    H8    S    
C22   O12   S    
Cu1   Cu2   S    
C21   O10   S    
C15   O7    A    
Cu2   O8    S    
C3    C14   S    
Cu1   O7    S    
C5    C6    S    
C11   H1    S    
C11   H10   S    
O12   H12   S    
C2    H3    S    
C8    N1    A    
C1    O2    A    
C12   O4    A    
C9    N2    A    
C6    C18   S    
C1    C19   S    
C16   C17   T    
C10   C11   S    
C7    N1    A    
C14   O6    A    
C5    H4    S    
Cu2   O4    S    
C22   O11   D    
O10   H11   S    
C7    C13   S    
C20   C21   S    
Cu2   O2    S    
C1    O1    A    
Cu1   O3    S    
C10   N2    A    
C18   C19   A    
C12   O3    A    
C15   C17   S    
Cu2   N1    S    
C9    H9    S    
Cu2   O6    S    
C8    C9    A    
Cu1   N2    S    
C12   C16   S    
C14   O5    A    
C5    H5    S    
C13   C22   S    
C6    H6    S    
C3    C4    A    
C13   H2    S    
C4    C5    S    
