data_mof_unit_19975.cif
_audit_creation_date              2012-12-10T17:37:49-0500
_audit_creation_method            fapswitch 2.2
_symmetry_space_group_name_H-M    P1
_symmetry_Int_Tables_number       1
_space_group_crystal_system       triclinic
_cell_length_a                    12.418971
_cell_length_b                    13.222866
_cell_length_c                    17.32912
_cell_angle_alpha                 107.042699
_cell_angle_beta                  74.798879
_cell_angle_gamma                 117.357043
_cell_volume                      2389.03591207

loop_
_atom_site_label
_atom_site_type_symbol
_atom_type_description
_atom_site_fract_x
_atom_site_fract_y
_atom_site_fract_z
_atom_type_partial_charge
C1    C     C_R   0.144315 0.713570 0.506746 0.791990
C2    C     C_R   0.893500 0.532717 0.798116 -0.169412
C3    C     C_R   0.926470 0.506586 0.159844 -0.142276
C4    C     C_R   0.931684 0.518429 0.240940 -0.180131
C5    C     C_R   0.086261 0.441103 0.200047 -0.198500
C6    C     C_R   0.080544 0.428810 0.118361 -0.144659
C7    C     C_R   0.002047 0.463235 0.098174 0.167755
C8    C     C_2   0.989128 0.536530 0.988845 -0.209643
C9    C     C_2   0.000175 0.454427 0.012502 -0.169887
C10   C     C_R   0.011815 0.486233 0.261793 -0.027608
C11   C     C_R   0.727478 0.977206 0.376731 -0.153845
C12   C     C_R   0.987099 0.503190 0.652106 0.825828
C13   C     C_R   0.773964 0.162810 0.469742 -0.026216
C14   C     C_R   0.182461 0.921256 0.555014 -0.180998
C15   C     C_R   0.260867 0.038611 0.565227 -0.142349
C16   C     C_R   0.385390 0.072993 0.535723 -0.170330
C17   C     C_R   0.433840 0.990043 0.494574 0.077324
C18   C     C_R   0.350524 0.873534 0.471389 0.055076
C19   C     C_R   0.561744 0.020656 0.470701 -0.017484
C20   C     C_R   0.602029 0.942710 0.407786 0.139716
C21   C     C_R   0.516291 0.832211 0.376500 0.124382
C22   C     C_R   0.392524 0.798113 0.409009 -0.243586
C23   C     C_R   0.855897 0.286033 0.488352 0.825337
C24   C     C_R   0.651695 0.125197 0.508062 0.106406
C25   C     C_R   0.811900 0.088070 0.405296 -0.273282
C26   C     C_R   0.226234 0.837338 0.509079 -0.101899
C27   C     C_R   0.627842 0.642586 0.651712 0.071026
C28   C     C_R   0.253303 0.357093 0.384232 -0.043932
C29   C     C_R   0.351151 0.324428 0.358621 -0.052251
C30   C     C_R   0.447328 0.376103 0.404797 -0.171267
C31   C     C_R   0.446989 0.460123 0.477030 -0.086811
C32   C     C_R   0.344149 0.490846 0.501799 0.280419
C33   C     C_R   0.546253 0.515386 0.524967 -0.061646
C34   C     C_R   0.011508 0.494859 0.347826 0.772715
C35   C     C_R   0.533710 0.586757 0.602542 0.127401
C36   C     C_R   0.430986 0.608878 0.628555 -0.324104
C37   C     C_R   0.346238 0.575285 0.577441 0.144475
C38   C     C_R   0.659133 0.504599 0.499414 0.007026
C39   C     C_R   0.736847 0.630390 0.621100 0.041300
C40   C     C_R   0.983907 0.508791 0.738254 -0.109043
C41   C     C_R   0.075116 0.494086 0.761006 -0.271163
C42   C     C_R   0.079355 0.506607 0.842641 0.196109
C43   C     C_R   0.986799 0.527810 0.902966 0.084750
C44   C     C_R   0.893073 0.541637 0.880805 -0.024055
Cu1   Cu    Cu3+1 0.900140 0.524980 0.518800 0.942289
Cu2   Cu    Cu3+1 0.099860 0.475020 0.481200 0.947097
H1    H     H_    0.145856 0.475451 0.715683 0.167216
H2    H     H_    0.138607 0.394343 0.070991 0.137124
H3    H     H_    0.906463 0.116334 0.375789 0.158480
H4    H     H_    0.760355 0.920651 0.327778 0.178469
H5    H     H_    0.087424 0.896250 0.583059 0.155131
H6    H     H_    0.441446 0.164936 0.542211 0.138013
H7    H     H_    0.225535 0.103221 0.597685 0.143382
H8    H     H_    0.329477 0.713843 0.381219 0.175689
H9    H     H_    0.810697 0.671282 0.657139 0.126451
H10   H     H_    0.872136 0.552302 0.287212 0.158648
H11   H     H_    0.423533 0.667800 0.686257 0.183110
H12   H     H_    0.677472 0.450853 0.442099 0.130623
H13   H     H_    0.178490 0.317365 0.349050 0.120460
H14   H     H_    0.520326 0.347321 0.384135 0.176062
H15   H     H_    0.147606 0.414357 0.214778 0.146905
H16   H     H_    0.011875 0.381487 0.967940 0.168023
H17   H     H_    0.862366 0.530291 0.145483 0.127933
H18   H     H_    0.822822 0.543744 0.780254 0.193086
H19   H     H_    0.979503 0.610535 0.033092 0.136210
N1    N     N_R   0.749710 0.562810 0.547300 -0.200899
N2    N     N_R   0.249640 0.437820 0.453210 -0.190810
O1    O     O_R   0.025490 0.682370 0.523640 -0.579815
O2    O     O_R   0.194150 0.640180 0.491890 -0.554722
O3    O     O_R   0.905900 0.523560 0.631310 -0.594231
O4    O     O_R   0.074570 0.481370 0.599560 -0.558304
O5    O     O_R   0.805850 0.359820 0.508110 -0.576196
O6    O     O_R   0.974510 0.317630 0.476360 -0.587648
O7    O     O_R   0.925430 0.518630 0.400440 -0.588007
O8    O     O_R   0.094100 0.476440 0.368690 -0.600798
N3    N     N_3   0.554649 0.752919 0.312485 -0.608089
H20   H     H_    0.527240 0.677142 0.333817 0.227983
H21   H     H_    0.508518 0.730951 0.263414 0.231304
N4    N     N_3   0.627351 0.183015 0.590887 -0.598441
H22   H     H_    0.555093 0.125111 0.624791 0.230595
H23   H     H_    0.608919 0.252882 0.591891 0.233998
N5    N     N_3   0.612880 0.712083 0.731645 -0.599536
H24   H     H_    0.549705 0.655342 0.769802 0.228841
H25   H     H_    0.694937 0.754133 0.756050 0.223199
C45   C     C_2   0.351002 0.235359 0.283297 0.358869
H26   H     H_    0.275416 0.196456 0.248575 0.054472
O9    O     O_2   0.434800 0.204255 0.259025 -0.532873
N6    N     N_3   0.280190 0.645920 0.600657 -0.499266
H27   H     H_    0.243142 0.651139 0.662552 0.195653
H28   H     H_    0.342772 0.730600 0.594294 0.212145
C46   C     C_2   0.792910 0.562527 0.942665 0.354156
H29   H     H_    0.785161 0.561455 0.006219 0.068919
O10   O     O_2   0.716650 0.580713 0.923243 -0.547099
N7    N     N_3   0.180435 0.501702 0.864309 -0.588286
H30   H     H_    0.182320 0.421081 0.835113 0.210303
H31   H     H_    0.261491 0.566121 0.841645 0.221525

loop_
_geom_bond_atom_site_label_1
_geom_bond_atom_site_label_2
_ccdc_geom_bond_type
C41   C42   A    
C37   N6    S    
C19   C20   A    
C18   C26   A    
C8    C43   S    
C22   H8    S    
C45   H26   S    
C21   N3    S    
C6    H2    S    
C15   H7    S    
C36   C37   A    
N3    H21   S    
C3    C7    A    
C5    C6    A    
C11   C25   A    
C15   C16   A    
C1    O1    A    
C13   C23   S    
Cu2   O2    S    
C17   C19   A    
C38   H12   S    
C39   H9    S    
C38   N1    A    
C2    C44   A    
C8    C9    D    
C30   H14   S    
C31   C33   A    
C29   C45   S    
C34   O8    A    
N6    H27   S    
C8    H19   S    
C42   N7    S    
C21   C22   A    
C4    H10   S    
Cu1   O5    S    
C13   C25   A    
C23   O6    A    
Cu2   O8    S    
C2    H18   S    
C45   O9    D    
C11   C20   A    
C9    H16   S    
C28   N2    A    
N3    H20   S    
C36   H11   S    
C27   C39   A    
C46   H29   S    
N4    H23   S    
C16   C17   A    
C27   C35   A    
Cu1   Cu2   S    
C1    O2    A    
C13   C24   A    
Cu1   O7    S    
C35   C36   A    
C12   C40   S    
C43   C44   A    
C29   C30   A    
C46   O10   D    
C24   N4    S    
C14   H5    S    
Cu1   O1    S    
C17   C18   A    
C41   H1    S    
C5    H15   S    
C10   C34   S    
C32   C37   A    
C14   C26   A    
N7    H31   S    
Cu2   O4    S    
C44   C46   S    
C34   O7    A    
C32   N2    A    
C40   C41   A    
C12   O4    A    
N6    H28   S    
N5    H25   S    
C1    C26   S    
C39   N1    A    
C42   C43   A    
C4    C10   A    
C3    C4    A    
C28   H13   S    
C7    C9    S    
C12   O3    A    
C28   C29   A    
Cu1   O3    S    
C18   C22   A    
C23   O5    A    
C27   N5    S    
C31   C32   A    
C16   H6    S    
C6    C7    A    
C3    H17   S    
C33   C38   A    
C19   C24   A    
Cu2   N2    S    
C11   H4    S    
C30   C31   A    
C33   C35   A    
N7    H30   S    
C25   H3    S    
N4    H22   S    
C2    C40   A    
C5    C10   A    
C20   C21   A    
N5    H24   S    
Cu1   N1    S    
C14   C15   A    
Cu2   O6    S    
