data_mof_unit_22667.cif
_audit_creation_date              2012-12-10T22:11:12-0500
_audit_creation_method            fapswitch 2.2
_symmetry_space_group_name_H-M    P1
_symmetry_Int_Tables_number       1
_space_group_crystal_system       triclinic
_cell_length_a                    12.15971
_cell_length_b                    12.315932
_cell_length_c                    23.229327
_cell_angle_alpha                 90.421894
_cell_angle_beta                  90.999132
_cell_angle_gamma                 91.193953
_cell_volume                      3477.39333367

loop_
_atom_site_label
_atom_site_type_symbol
_atom_type_description
_atom_site_fract_x
_atom_site_fract_y
_atom_site_fract_z
_atom_type_partial_charge
C1    C     C_R   0.656328 0.998282 0.579018 0.874966
C2    C     C_R   0.343047 0.001379 0.421178 0.857792
C3    C     C_R   0.905486 0.750377 0.160022 0.186679
C4    C     C_R   0.084857 0.172309 0.882788 0.184379
C5    C     C_R   0.086241 0.897599 0.165499 0.197591
C6    C     C_R   0.930580 0.190773 0.791149 0.189224
C7    C     C_R   0.083320 0.812317 0.126093 -0.307238
C8    C     C_R   0.936615 0.267151 0.835246 -0.268510
C9    C     C_R   0.916925 0.113379 0.164898 0.268666
C10   C     C_R   0.094231 0.836199 0.805109 0.195887
C11   C     C_R   0.917507 0.197739 0.126192 -0.330752
C12   C     C_R   0.087006 0.749601 0.842645 -0.308992
C13   C     C_R   0.172861 0.921657 0.292870 -0.185566
C14   C     C_R   0.907521 0.075788 0.662203 -0.135133
C15   C     C_R   0.254524 0.921205 0.335044 -0.227305
C16   C     C_R   0.824833 0.076594 0.620985 -0.214117
C17   C     C_R   0.831021 0.103158 0.297891 0.145707
C18   C     C_R   0.109945 0.904721 0.672036 0.172020
C19   C     C_R   0.752115 0.102735 0.341421 0.177380
C20   C     C_R   0.193300 0.900798 0.631289 0.166587
C21   C     C_3   0.997973 0.006626 0.248143 -0.032830
C22   C     C_3   0.002654 0.000741 0.751142 -0.058310
C23   C     C_R   0.652062 0.003010 0.419553 0.899216
C24   C     C_R   0.344609 0.997118 0.578685 0.900723
C25   C     C_R   0.093328 0.003761 0.292262 0.188471
C26   C     C_R   0.905553 0.000062 0.707841 0.195086
C27   C     C_R   0.256791 0.000534 0.378204 -0.008177
C28   C     C_R   0.741627 0.997716 0.622228 -0.011625
C29   C     C_R   0.894464 0.007089 0.287451 -0.066344
C30   C     C_R   0.102401 0.996963 0.710192 0.027176
C31   C     C_R   0.731958 0.007535 0.373412 -0.190078
C32   C     C_R   0.261383 0.993126 0.622977 -0.178743
C33   C     C_R   0.002938 0.106046 0.207661 0.033953
C34   C     C_R   0.999234 0.902044 0.793853 -0.056099
C35   C     C_R   0.000552 0.275826 0.127343 -0.167965
C36   C     C_R   0.997810 0.736357 0.878091 -0.174153
C37   C     C_R   0.999679 0.908021 0.205835 0.095774
C38   C     C_R   0.005072 0.101625 0.791821 0.046546
C39   C     C_R   0.993014 0.741178 0.121824 -0.108384
C40   C     C_R   0.009226 0.256107 0.881455 -0.126978
C41   C     C_R   0.993175 0.659319 0.076518 0.873009
C42   C     C_R   0.007057 0.337648 0.925781 0.874848
C43   C     C_R   0.999376 0.355311 0.082013 0.896001
C44   C     C_R   0.000300 0.649678 0.920194 0.907769
C45   C     C_R   0.094284 0.078919 0.338730 -0.117423
C46   C     C_R   0.824509 0.916388 0.705283 -0.122818
C47   C     C_R   0.175167 0.077396 0.381034 -0.237075
C48   C     C_R   0.741973 0.916681 0.663655 -0.250032
C49   C     C_R   0.876274 0.915139 0.324042 0.193930
C50   C     C_R   0.175773 0.087808 0.701580 0.195785
C51   C     C_R   0.793861 0.916230 0.364353 -0.286719
C52   C     C_R   0.251518 0.084225 0.657782 -0.299196
C53   C     C_R   0.089558 0.188216 0.208605 0.172894
C54   C     C_R   0.906561 0.886908 0.831529 0.153340
C55   C     C_R   0.085166 0.274091 0.169256 0.163991
C56   C     C_R   0.910675 0.809325 0.875250 0.195636
C57   C     C_R   0.908676 0.834680 0.200326 -0.165888
C58   C     C_R   0.084383 0.099542 0.837165 -0.142574
H1    H     H_    0.174801 0.137272 0.415454 0.147138
H2    H     H_    0.679619 0.852495 0.663216 0.149477
H3    H     H_    0.834969 0.845623 0.224524 0.160249
H4    H     H_    0.144215 0.037087 0.838669 0.186229
H5    H     H_    0.171552 0.854807 0.262695 0.141410
H6    H     H_    0.971781 0.137517 0.659673 0.116243
H7    H     H_    0.782947 0.846411 0.391892 0.193208
H8    H     H_    0.303134 0.155351 0.650470 0.188417
H9    H     H_    0.315987 0.858785 0.333961 0.151495
H10   H     H_    0.826842 0.137718 0.587670 0.143642
H11   H     H_    0.033788 0.141299 0.341792 0.122348
H12   H     H_    0.826932 0.846339 0.732670 0.159882
O1    O     O_R   0.621380 0.090460 0.561410 -0.628612
O2    O     O_R   0.378620 0.909540 0.438590 -0.632816
O3    O     O_R   0.617150 0.909540 0.438590 -0.628295
O4    O     O_R   0.382850 0.090460 0.561410 -0.630409
O5    O     O_R   0.619720 0.093230 0.440890 -0.628907
O6    O     O_R   0.380280 0.906770 0.559110 -0.627442
O7    O     O_R   0.618800 0.906770 0.559110 -0.629741
O8    O     O_R   0.381200 0.093230 0.440890 -0.633788
O9    O     O_R   0.087590 0.627480 0.058790 -0.639967
O10   O     O_R   0.912410 0.372520 0.941210 -0.626384
O11   O     O_R   0.905660 0.383870 0.059980 -0.630834
O12   O     O_R   0.094340 0.616130 0.940020 -0.623578
O13   O     O_R   0.092570 0.390420 0.063230 -0.633936
O14   O     O_R   0.907430 0.609580 0.936770 -0.639198
O15   O     O_R   0.900680 0.620930 0.055550 -0.589083
O16   O     O_R   0.099320 0.379070 0.944450 -0.622138
Zn1   Zn    Zn3+2 0.501730 0.123520 0.501540 0.923847
Zn2   Zn    Zn3+2 0.498270 0.876480 0.498460 0.926482
Zn3   Zn    Zn3+2 0.125690 0.504390 0.002180 0.923883
Zn4   Zn    Zn3+2 0.874310 0.495610 0.997820 0.935473
N1    N     N_2   0.949328 0.825682 0.324672 -0.296050
H13   H     H_    0.010498 0.834483 0.355741 0.243093
C59   C     C_3   0.900584 0.717254 0.324841 -0.837202
H14   H     H_    0.958705 0.659918 0.305293 0.248737
H15   H     H_    0.821981 0.713820 0.299751 0.248489
H16   H     H_    0.884932 0.691017 0.369671 0.230173
N2    N     N_2   0.165662 0.188878 0.730920 -0.301268
H17   H     H_    0.129577 0.247677 0.705961 0.211796
C60   C     C_3   0.262828 0.228858 0.761968 -0.784212
H18   H     H_    0.238899 0.292888 0.792927 0.246709
H19   H     H_    0.323237 0.264770 0.731883 0.223014
H20   H     H_    0.301812 0.162315 0.786418 0.246106
N3    N     N_2   0.188378 0.177387 0.242256 -0.284394
H21   H     H_    0.253911 0.149674 0.219232 0.238746
C61   C     C_3   0.219839 0.264620 0.282076 -0.760458
H22   H     H_    0.269734 0.231439 0.317928 0.243050
H23   H     H_    0.146257 0.303752 0.300051 0.232778
H24   H     H_    0.273734 0.325713 0.261128 0.250112
N4    N     N_2   0.811063 0.953585 0.829481 -0.292257
H25   H     H_    0.814577 0.025825 0.808777 0.257648
C62   C     C_3   0.702704 0.901500 0.825888 -0.793264
H26   H     H_    0.655580 0.933263 0.788450 0.230793
H27   H     H_    0.656787 0.920328 0.865476 0.260213
H28   H     H_    0.707580 0.811966 0.820565 0.230358
N5    N     N_2   0.176565 0.973042 0.164081 -0.318108
H29   H     H_    0.249322 0.940043 0.178251 0.220705
C63   C     C_3   0.190163 0.029687 0.110011 -0.818663
H30   H     H_    0.249011 0.098988 0.116349 0.231074
H31   H     H_    0.110498 0.061808 0.094329 0.258363
H32   H     H_    0.223633 0.974920 0.076740 0.237289
N6    N     N_2   0.850688 0.207912 0.746998 -0.308552
H33   H     H_    0.872912 0.269642 0.719460 0.220325
C64   C     C_3   0.736244 0.212126 0.763600 -0.808327
H34   H     H_    0.686566 0.155631 0.735689 0.260236
H35   H     H_    0.705186 0.295642 0.757861 0.228385
H36   H     H_    0.724407 0.188589 0.809218 0.246468
N7    N     N_2   0.825664 0.038604 0.162820 -0.302747
H37   H     H_    0.756011 0.067760 0.181572 0.236666
C65   C     C_3   0.802076 0.986509 0.107715 -0.844347
H38   H     H_    0.746424 0.915214 0.114096 0.243124
H39   H     H_    0.879249 0.958062 0.088239 0.265901
H40   H     H_    0.760079 0.042821 0.077873 0.234219
N8    N     N_2   0.199908 0.856821 0.781199 -0.299034
H41   H     H_    0.222748 0.796876 0.752886 0.217824
C66   C     C_3   0.289093 0.884858 0.821371 -0.823419
H42   H     H_    0.332514 0.959066 0.806127 0.244633
H43   H     H_    0.348913 0.817916 0.823601 0.231711
H44   H     H_    0.259281 0.900235 0.865624 0.251555
N9    N     N_2   0.856833 0.205101 0.271407 -0.300275
H45   H     H_    0.919870 0.250459 0.290397 0.210405
C67   C     C_3   0.769856 0.267906 0.244948 -0.763762
H46   H     H_    0.798669 0.302530 0.203910 0.242507
H47   H     H_    0.749168 0.337405 0.273161 0.249930
H48   H     H_    0.694781 0.217177 0.236065 0.231899
N10   N     N_2   0.034093 0.814484 0.675887 -0.302861
H49   H     H_    0.064220 0.748268 0.697337 0.219080
C68   C     C_3   0.970811 0.784305 0.624396 -0.749404
H50   H     H_    0.891643 0.745873 0.637015 0.231533
H51   H     H_    0.014363 0.723009 0.598620 0.244516
H52   H     H_    0.953383 0.856564 0.597601 0.251582
N11   N     N_2   0.169306 0.356383 0.171604 -0.298839
H53   H     H_    0.224082 0.356877 0.138268 0.243848
C69   C     C_3   0.137150 0.461989 0.192462 -0.779371
H54   H     H_    0.211899 0.510857 0.204416 0.232338
H55   H     H_    0.085346 0.453667 0.231192 0.235729
H56   H     H_    0.091227 0.505957 0.158692 0.241918
N12   N     N_2   0.829314 0.812516 0.918658 -0.283584
H57   H     H_    0.779312 0.744698 0.922945 0.245642
C70   C     C_3   0.862687 0.866938 0.971596 -0.737466
H58   H     H_    0.791382 0.869924 0.000653 0.234580
H59   H     H_    0.890868 0.951463 0.962642 0.245967
H60   H     H_    0.930094 0.822783 0.993341 0.227266
N13   N     N_2   0.811255 0.679428 0.156411 -0.285952
H61   H     H_    0.739562 0.713670 0.170272 0.209834
C71   C     C_3   0.826612 0.572141 0.179987 -0.759993
H62   H     H_    0.751187 0.521581 0.171898 0.233170
H63   H     H_    0.842321 0.577110 0.227068 0.221629
H64   H     H_    0.896218 0.531219 0.159434 0.241957
N14   N     N_2   0.154719 0.153805 0.931595 -0.307695
H65   H     H_    0.127858 0.183299 0.970430 0.232340
C72   C     C_3   0.270907 0.172667 0.922610 -0.774440
H66   H     H_    0.286803 0.258507 0.910296 0.250467
H67   H     H_    0.300996 0.117625 0.888588 0.232044
H68   H     H_    0.317462 0.155837 0.963006 0.232224
H69   H     H_    0.151085 0.804336 0.096812 0.185159
H70   H     H_    0.882008 0.335704 0.833698 0.175344
H71   H     H_    0.851512 0.202380 0.094472 0.191136
H72   H     H_    0.156552 0.696306 0.846881 0.187065
N15   N     N_2   0.696134 0.200896 0.353286 -0.284587
H73   H     H_    0.611746 0.195159 0.356263 0.237969
C73   C     C_3   0.751567 0.275629 0.393271 -0.744671
H74   H     H_    0.702214 0.349911 0.397915 0.219109
H75   H     H_    0.833716 0.299990 0.377187 0.225326
H76   H     H_    0.762604 0.238172 0.436218 0.250641
N16   N     N_2   0.202151 0.805248 0.596792 -0.293374
H77   H     H_    0.208390 0.816225 0.553022 0.241438
C74   C     C_3   0.269136 0.720583 0.621052 -0.758149
H78   H     H_    0.269207 0.650006 0.591047 0.223516
H79   H     H_    0.235370 0.692732 0.662566 0.217907
H80   H     H_    0.355145 0.750181 0.628339 0.253120

loop_
_geom_bond_atom_site_label_1
_geom_bond_atom_site_label_2
_ccdc_geom_bond_type
O8    Zn1   S    
C16   C28   A    
C66   H44   S    
C12   H72   S    
C72   H66   S    
C42   O10   A    
C71   H62   S    
C5    C37   A    
C17   C29   A    
N14   H65   S    
C68   H50   S    
C10   N8    S    
C18   N10   S    
C19   C31   A    
N7    C65   S    
N2    H17   S    
C64   H34   S    
C39   C41   S    
C29   C49   A    
C73   H74   S    
C61   H23   S    
C9    N7    S    
O12   Zn3   S    
C2    O8    A    
C68   H51   S    
C49   N1    S    
C44   O12   A    
C63   H31   S    
C64   H35   S    
C21   C33   S    
C25   C45   A    
N5    H29   S    
C22   C38   S    
C43   O13   A    
C1    O7    A    
C51   H7    S    
C32   C52   A    
C74   H80   S    
N2    C60   S    
C20   N16   S    
C38   C58   A    
C11   C35   A    
N12   H57   S    
C28   C48   A    
C62   H26   S    
O7    Zn2   S    
C49   C51   A    
C7    H69   S    
C1    C28   S    
C50   C52   A    
N11   H53   S    
C70   H59   S    
C48   H2    S    
C2    C27   S    
C16   H10   S    
O4    Zn1   S    
C12   C36   A    
C35   C43   S    
O6    Zn2   S    
C18   C20   A    
C3    N13   S    
C65   H40   S    
C45   C47   A    
C30   C50   A    
C15   H9    S    
C71   H63   S    
C5    N5    S    
C9    C33   A    
N14   C72   S    
C13   C25   A    
O14   Zn4   S    
C23   O3    A    
C2    O2    A    
O2    Zn2   S    
N10   H49   S    
C46   C48   A    
C53   C55   A    
C33   C53   A    
C22   C34   S    
C72   H68   S    
C54   C56   A    
N6    C64   S    
C4    N14   S    
N10   C68   S    
C45   H11   S    
C10   C34   A    
C4    C40   A    
C66   H42   S    
C68   H52   S    
N3    C61   S    
C63   H32   S    
C23   O5    A    
N1    H13   S    
C5    C7    A    
C24   O6    A    
C64   H36   S    
C6    C8    A    
N5    C63   S    
C35   C55   A    
C54   N4    S    
C67   H47   S    
C23   C31   S    
C24   C32   S    
O3    Zn2   S    
C56   N12   S    
C36   C56   A    
N1    C59   S    
C72   H67   S    
C15   C27   A    
C70   H58   S    
C13   H5    S    
O15   Zn4   S    
C14   H6    S    
C6    C38   A    
C70   H60   S    
C62   H27   S    
C59   H14   S    
C1    O1    A    
C61   H24   S    
C14   C26   A    
C69   H56   S    
C55   N11   S    
C9    C11   A    
N6    H33   S    
C10   C12   A    
C58   H4    S    
C18   C30   A    
O11   Zn4   S    
C3    C57   A    
O5    Zn1   S    
C60   H19   S    
C34   C54   A    
C71   H64   S    
C13   C15   A    
N8    H41   S    
C43   O11   A    
O1    Zn1   S    
C36   C44   S    
C69   H55   S    
N7    H37   S    
C19   N15   S    
C46   H12   S    
C52   H8    S    
C65   H38   S    
C20   C32   A    
C73   H76   S    
C27   C47   A    
C66   H43   S    
C21   C25   S    
C11   H71   S    
O13   Zn3   S    
C50   N2    S    
C22   C30   S    
N13   C71   S    
C31   C51   A    
C44   O14   A    
O16   Zn3   S    
C41   O9    A    
N9    H45   S    
C8    H70   S    
C57   H3    S    
C67   H48   S    
C59   H16   S    
C41   O15   A    
C61   H22   S    
C63   H30   S    
C60   H18   S    
N4    C62   S    
C74   H78   S    
C42   O16   A    
C67   H46   S    
N9    C67   S    
C24   O4    A    
N16   H77   S    
C59   H15   S    
C21   C29   S    
C53   N3    S    
C40   C42   S    
C17   C19   A    
C62   H28   S    
C14   C16   A    
N11   C69   S    
O10   Zn4   S    
C74   H79   S    
N13   H61   S    
N16   C74   S    
C26   C46   A    
C47   H1    S    
N15   H73   S    
C73   H75   S    
C60   H20   S    
C21   C37   S    
N12   C70   S    
C22   C26   S    
C4    C58   A    
N3    H21   S    
N8    C66   S    
C7    C39   A    
O9    Zn3   S    
C17   N9    S    
C8    C40   A    
C6    N6    S    
C65   H39   S    
C69   H54   S    
N4    H25   S    
C37   C57   A    
C3    C39   A    
N15   C73   S    
