data_mof_unit_57766.cif
_audit_creation_date              2013-03-05T16:53:35-0500
_audit_creation_method            fapswitch 2.2
_symmetry_space_group_name_H-M    P1
_symmetry_Int_Tables_number       1
_space_group_crystal_system       triclinic
_cell_length_a                    17.375253
_cell_length_b                    16.806935
_cell_length_c                    10.723117
_cell_angle_alpha                 90.010292
_cell_angle_beta                  90.99453
_cell_angle_gamma                 89.589093
_cell_volume                      3130.86328947

loop_
_atom_site_label
_atom_site_type_symbol
_atom_site_description
_atom_site_fract_x
_atom_site_fract_y
_atom_site_fract_z
_atom_type_partial_charge
O1    O     O_R   0.389110 0.566570 0.499990 -0.577982
O2    O     O_R   0.610890 0.566570 0.500010 -0.593429
O3    O     O_R   0.389090 0.433480 0.499980 -0.628710
O4    O     O_R   0.610910 0.433480 0.500020 -0.628669
C1    C     C_R   0.352987 0.500290 0.498040 0.924179
C2    C     C_R   0.647050 0.499813 0.497150 0.916569
O5    O     O_R   0.500000 0.566530 0.319070 -0.629697
O6    O     O_R   0.500000 0.566530 0.680930 -0.635393
O7    O     O_R   0.499970 0.433440 0.319070 -0.571433
O8    O     O_R   0.500030 0.433440 0.680930 -0.568416
C3    C     C_R   0.498387 0.499870 0.262140 0.935845
C4    C     C_R   0.502564 0.499899 0.737833 0.931646
Zn1   Zn    Zn3+2 0.500000 0.588860 0.500000 0.951338
Zn2   Zn    Zn3+2 0.500000 0.411140 0.500000 0.983425
C5    C     C_2   0.504037 0.432245 0.933261 -0.168563
C6    C     C_2   0.507894 0.432833 0.067379 -0.175558
C7    C     C_2   0.511750 0.499727 0.869330 -0.341077
C8    C     C_2   0.492189 0.499348 0.130385 -0.332289
H1    H     H_    0.494546 0.375416 0.887334 0.199411
H2    H     H_    0.522663 0.377319 0.114308 0.194035
H3    H     H_    0.526531 0.556065 0.912498 0.151075
H4    H     H_    0.472959 0.554273 0.086495 0.153065
C9    C     C_R   0.853647 0.560812 0.478831 -0.359189
C10   C     C_R   0.155695 0.547201 0.372611 -0.346904
H5    H     H_    0.891133 0.608015 0.511398 0.163636
H6    H     H_    0.127509 0.586547 0.305913 0.162885
C11   C     C_R   0.775603 0.564124 0.505443 0.492800
C12   C     C_R   0.234237 0.555002 0.398844 0.486956
C13   C     C_R   0.729014 0.499023 0.472924 -0.192842
C14   C     C_R   0.270089 0.500326 0.481134 -0.204467
C15   C     C_R   0.759699 0.434397 0.406842 -0.425938
C16   C     C_R   0.227212 0.441604 0.540488 -0.393332
H7    H     H_    0.723302 0.385037 0.380315 0.179575
H8    H     H_    0.255076 0.399290 0.603106 0.178907
C17   C     C_R   0.837181 0.433232 0.373916 0.528987
C18   C     C_R   0.148196 0.437192 0.519606 0.526971
C19   C     C_R   0.883879 0.495602 0.415137 -0.029645
C20   C     C_R   0.113454 0.488817 0.432159 -0.043794
C21   C     C_1   0.964667 0.489871 0.406752 0.038717
C22   C     C_1   0.032950 0.487586 0.412337 0.010460
C23   C     C_R   0.483110 0.833866 0.391995 0.363099
C24   C     C_R   0.523150 0.830506 0.610087 0.333209
C25   C     C_R   0.484598 0.748768 0.393211 -0.193544
C26   C     C_R   0.517820 0.746693 0.607258 -0.142795
H9    H     H_    0.473771 0.715063 0.309279 0.169383
H10   H     H_    0.530293 0.713146 0.691265 0.164147
N1    N     N_R   0.500000 0.707230 0.500000 -0.123008
C27   C     C_R   0.503444 0.875027 0.502575 -0.065266
C28   C     C_1   0.504188 0.962827 0.504774 0.102876
C29   C     C_1   0.503889 0.035756 0.504633 0.029037
C30   C     C_R   0.464023 0.166292 0.406144 -0.193696
C31   C     C_R   0.540871 0.168219 0.597155 -0.197371
C32   C     C_R   0.462160 0.251300 0.407832 0.454771
C33   C     C_R   0.540614 0.253080 0.591885 0.457160
N2    N     N_R   0.500000 0.292770 0.500000 -0.159953
C34   C     C_R   0.502718 0.123952 0.502918 -0.069536
O9    O     O_3   0.429846 0.293337 0.308872 -0.627951
C35   C     C_3   0.348711 0.294077 0.316036 0.097477
H11   H     H_    0.328928 0.308702 0.411667 0.147775
H12   H     H_    0.324846 0.235472 0.288756 0.145613
C36   C     C_3   0.316858 0.356330 0.224425 -0.294890
H13   H     H_    0.334155 0.416637 0.255987 0.231563
H14   H     H_    0.341604 0.345987 0.130812 0.225781
C37   C     C_3   0.229330 0.352793 0.213072 -0.950795
H15   H     H_    0.211455 0.296239 0.167863 0.263729
H16   H     H_    0.207955 0.403384 0.155348 0.267623
H17   H     H_    0.203013 0.356704 0.306289 0.283146
O10   O     O_3   0.576128 0.296937 0.685646 -0.626883
C38   C     C_3   0.656940 0.296676 0.670936 0.108252
H18   H     H_    0.673190 0.309445 0.573052 0.142267
H19   H     H_    0.682309 0.238410 0.697673 0.144369
C39   C     C_3   0.692153 0.359199 0.758050 -0.291584
H20   H     H_    0.668977 0.419044 0.733783 0.227346
H21   H     H_    0.675931 0.345877 0.855626 0.219690
C40   C     C_3   0.779776 0.360219 0.750249 -0.985881
H22   H     H_    0.804306 0.301470 0.777807 0.262041
H23   H     H_    0.803240 0.406226 0.814473 0.265325
H24   H     H_    0.797619 0.374436 0.653959 0.282031
O11   O     O_3   0.746703 0.626925 0.574327 -0.641956
C41   C     C_3   0.739054 0.695903 0.498860 0.111093
H25   H     H_    0.677646 0.714776 0.499629 0.172000
H26   H     H_    0.754208 0.687037 0.398829 0.115738
C42   C     C_3   0.788167 0.762815 0.554070 -0.368265
H27   H     H_    0.775227 0.770300 0.654464 0.229214
H28   H     H_    0.850085 0.747031 0.546374 0.216239
C43   C     C_3   0.772763 0.841417 0.486471 -0.988982
H29   H     H_    0.788439 0.836174 0.386804 0.271292
H30   H     H_    0.807914 0.889081 0.530351 0.265684
H31   H     H_    0.711023 0.858395 0.492444 0.256211
O12   O     O_3   0.278023 0.609007 0.333361 -0.641322
C44   C     C_3   0.254046 0.688257 0.357455 0.099088
H32   H     H_    0.304803 0.721149 0.394355 0.161891
H33   H     H_    0.208468 0.694115 0.429251 0.117976
C45   C     C_3   0.226426 0.727650 0.235818 -0.353474
H34   H     H_    0.272482 0.723637 0.165533 0.226545
H35   H     H_    0.175353 0.695940 0.197776 0.217369
C46   C     C_3   0.205009 0.814870 0.256231 -1.001135
H36   H     H_    0.155725 0.819642 0.320479 0.271035
H37   H     H_    0.188193 0.842536 0.165665 0.266733
H38   H     H_    0.254626 0.847975 0.296495 0.256352
O13   O     O_3   0.870003 0.368379 0.313889 -0.636131
C47   C     C_3   0.830458 0.350409 0.200591 0.082434
H39   H     H_    0.873141 0.351007 0.124605 0.161220
H40   H     H_    0.784837 0.394476 0.172932 0.122509
C48   C     C_3   0.796275 0.266882 0.208122 -0.337269
H41   H     H_    0.843594 0.222646 0.221172 0.231131
H42   H     H_    0.757897 0.262773 0.289588 0.211573
C49   C     C_3   0.750203 0.246315 0.090161 -0.969192
H43   H     H_    0.700872 0.288144 0.077720 0.262385
H44   H     H_    0.727464 0.185037 0.098307 0.263402
H45   H     H_    0.787393 0.249179 0.007103 0.271120
O14   O     O_3   0.106732 0.377848 0.576803 -0.639003
C50   C     C_3   0.067083 0.409360 0.680277 0.096299
H46   H     H_    0.009954 0.380142 0.682957 0.176544
H47   H     H_    0.055449 0.474748 0.674369 0.114428
C51   C     C_3   0.111303 0.390225 0.801410 -0.362362
H48   H     H_    0.122223 0.325071 0.807237 0.235608
H49   H     H_    0.167641 0.421119 0.801815 0.215155
C52   C     C_3   0.066138 0.416610 0.915250 -0.949612
H50   H     H_    0.056102 0.481945 0.912873 0.262500
H51   H     H_    0.099283 0.401533 0.001529 0.271071
H52   H     H_    0.009862 0.385720 0.917785 0.262582
O15   O     O_3   0.468049 0.879485 0.285227 -0.630872
C53   C     C_3   0.420242 0.841843 0.195035 0.091590
H53   H     H_    0.379646 0.887105 0.156839 0.173164
H54   H     H_    0.382883 0.795013 0.233905 0.123940
C54   C     C_3   0.468681 0.811162 0.087159 -0.358851
H55   H     H_    0.493185 0.863024 0.037855 0.238324
H56   H     H_    0.517104 0.773767 0.123211 0.213204
C55   C     C_3   0.420615 0.762494 0.994853 -0.945891
H57   H     H_    0.398243 0.708445 0.041085 0.257714
H58   H     H_    0.456983 0.743653 0.915805 0.271948
H59   H     H_    0.371614 0.798649 0.957656 0.268081
O16   O     O_3   0.543934 0.868614 0.719850 -0.630099
C56   C     C_3   0.622649 0.853141 0.747750 0.082981
H60   H     H_    0.657871 0.899358 0.702504 0.165205
H61   H     H_    0.643422 0.793960 0.714820 0.127259
C57   C     C_3   0.635688 0.855627 0.888824 -0.314918
H62   H     H_    0.613853 0.912893 0.926434 0.241305
H63   H     H_    0.603276 0.806310 0.931791 0.215625
C58   C     C_3   0.720717 0.845812 0.923926 -0.988922
H64   H     H_    0.742448 0.787064 0.891977 0.268342
H65   H     H_    0.728033 0.849231 0.026856 0.266889
H66   H     H_    0.755210 0.893607 0.881123 0.261368
C59   C     C_R   0.425860 0.122529 0.302379 0.169985
C60   C     C_R   0.362938 0.072978 0.326020 -0.145065
C61   C     C_R   0.323514 0.036092 0.227415 -0.145257
C62   C     C_R   0.346975 0.047733 0.104816 -0.117666
C63   C     C_R   0.409827 0.096387 0.080641 -0.143002
C64   C     C_R   0.449007 0.134057 0.178891 -0.105146
H67   H     H_    0.343461 0.064390 0.420435 0.126241
H68   H     H_    0.274701 0.998540 0.245990 0.130350
H69   H     H_    0.316510 0.018923 0.028582 0.125361
H70   H     H_    0.427641 0.105379 0.985625 0.129238
H71   H     H_    0.496710 0.172869 0.158945 0.127613
C65   C     C_R   0.583023 0.127078 0.700114 0.177880
C66   C     C_R   0.648759 0.081112 0.674434 -0.182768
C67   C     C_R   0.695062 0.051695 0.772028 -0.147571
C68   C     C_R   0.675122 0.066108 0.895659 -0.111783
C69   C     C_R   0.608965 0.110274 0.921949 -0.160685
C70   C     C_R   0.563317 0.141295 0.824675 -0.097424
H72   H     H_    0.665864 0.070984 0.579052 0.128514
H73   H     H_    0.746657 0.018035 0.751656 0.125399
H74   H     H_    0.710956 0.043061 0.971104 0.133434
H75   H     H_    0.593969 0.121665 0.017753 0.127674
H76   H     H_    0.513754 0.177917 0.846114 0.123865

loop_
_geom_bond_atom_site_label_1
_geom_bond_atom_site_label_2
_geom_bond_distance
_ccdc_geom_bond_type
C56   C57   1.526341 S    
C20   C22   1.411486 S    
C3    C8    1.415085 S    
C66   C67   1.397196 A    
C11   C13   1.405989 A    
C39   H21   1.111562 S    
C55   H58   1.110722 S    
C61   C62   1.397340 A    
C40   H22   1.110693 S    
C59   C60   1.405648 A    
O9    C35   1.413133 S    
C56   H60   1.109303 S    
C49   H43   1.110923 S    
C5    H1    1.086856 S    
C48   H42   1.110622 S    
O13   C47   1.418871 S    
O1    C1    1.282527 A    
C16   C18   1.389715 A    
C65   C66   1.405499 A    
C17   C19   1.397195 A    
C10   H6    1.082602 S    
C1    C14   1.448608 S    
C11   O11   1.384488 S    
C38   H18   1.112981 S    
C58   H65   1.110361 S    
C43   H30   1.110422 S    
C36   C37   1.525160 S    
C33   O10   1.385523 S    
C30   C59   1.483185 S    
C35   H12   1.108706 S    
C5    C6    1.438597 S    
C51   H48   1.111608 S    
C47   C48   1.530919 S    
C36   H14   1.112022 S    
C30   C34   1.415788 A    
C38   H19   1.106793 S    
O2    Zn1   1.960183 S    
C50   H46   1.111418 S    
C42   H27   1.110524 S    
C26   H10   1.080737 S    
O10   C38   1.415657 S    
C4    C7    1.416316 S    
C18   O14   1.384154 S    
C10   C20   1.391431 A    
C15   H7    1.081786 S    
C9    C11   1.391300 A    
C59   C64   1.404440 A    
C26   N1    1.359746 A    
C6    H2    1.087135 S    
C45   H35   1.109982 S    
C50   C51   1.530665 S    
C36   H13   1.110362 S    
C35   C36   1.529449 S    
C52   H51   1.109645 S    
Zn2   N2    1.989437 S    
C63   H70   1.080926 S    
C23   C25   1.430353 A    
O2    C2    1.282607 A    
C24   C26   1.412630 A    
C39   C40   1.526435 S    
O14   C50   1.416808 S    
C46   H37   1.110440 S    
C31   C33   1.427349 A    
C46   H36   1.110773 S    
C32   N2    1.370630 A    
C19   C21   1.410746 S    
C48   C49   1.526098 S    
C37   H17   1.108142 S    
O15   C53   1.415995 S    
C62   C63   1.396849 A    
C41   H26   1.118604 S    
O8    Zn2   1.975929 S    
C58   H66   1.109823 S    
C21   C22   1.187259 T    
Zn1   N1    1.989437 S    
C32   O9    1.383598 S    
C43   H29   1.110803 S    
C39   H20   1.110039 S    
C45   C46   1.526473 S    
C17   O13   1.389662 S    
C35   H11   1.114029 S    
C9    C19   1.395529 A    
C43   H31   1.110993 S    
C29   C34   1.482406 S    
C60   H67   1.083057 S    
C30   C32   1.428980 A    
C16   H8    1.083958 S    
C38   C39   1.529778 S    
O5    C3    1.276037 A    
O7    Zn2   1.976061 S    
C54   H56   1.110665 S    
C44   H33   1.117848 S    
C25   H9    1.077853 S    
C68   C69   1.396685 A    
O6    C4    1.275531 A    
C2    C13   1.452041 S    
C45   H34   1.110443 S    
C24   C27   1.410365 A    
C69   H75   1.080945 S    
C47   H40   1.117286 S    
C40   H23   1.110385 S    
O3    Zn2   1.960677 S    
O8    C4    1.273343 A    
C67   H73   1.082074 S    
C51   H49   1.111289 S    
C53   C54   1.529617 S    
O4    C2    1.284092 A    
C27   C28   1.475977 S    
C42   H28   1.110682 S    
C65   C70   1.404618 A    
C64   H71   1.082693 S    
O7    C3    1.272468 A    
C67   C68   1.396731 A    
C15   C17   1.397716 A    
C55   H59   1.110898 S    
O1    Zn1   1.965459 S    
C62   H69   1.082327 S    
C54   H55   1.110784 S    
C44   H32   1.111190 S    
C46   H38   1.110446 S    
C53   H54   1.109697 S    
C60   C61   1.397235 A    
C52   H52   1.111128 S    
C56   H61   1.115092 S    
C33   N2    1.372258 A    
C8    H4    1.084234 S    
C10   C12   1.395679 A    
C41   H25   1.111121 S    
O3    C1    1.282271 A    
C57   C58   1.526048 S    
C52   H50   1.110845 S    
C49   H45   1.110654 S    
C5    C7    1.334132 D    
O16   C56   1.417195 S    
C57   H63   1.110099 S    
C31   C65   1.482697 S    
C48   H41   1.111564 S    
C51   C52   1.526665 S    
C24   O16   1.383566 S    
C69   C70   1.398019 A    
C23   O15   1.397899 S    
C18   C20   1.403442 A    
C55   H57   1.110846 S    
C54   C55   1.525473 S    
C13   C15   1.403805 A    
C63   C64   1.398314 A    
C37   H15   1.110749 S    
C44   C45   1.530999 S    
C14   C16   1.400500 A    
O12   C44   1.417758 S    
C12   C14   1.408588 A    
C41   C42   1.529506 S    
C23   C27   1.413542 A    
C49   H44   1.109722 S    
C61   H68   1.082100 S    
C9    H5    1.083959 S    
O4    Zn2   1.965962 S    
C47   H39   1.111354 S    
C40   H24   1.109761 S    
C7    H3    1.084426 S    
C57   H62   1.110342 S    
C70   H76   1.082830 S    
O11   C41   1.418074 S    
O6    Zn1   1.976165 S    
O5    Zn1   1.976034 S    
C42   C43   1.526696 S    
C6    C8    1.335060 D    
C28   C29   1.225693 T    
C68   H74   1.082300 S    
C12   O12   1.387223 S    
C58   H64   1.110785 S    
C25   N1    1.362805 A    
C66   H72   1.083124 S    
C31   C34   1.413404 A    
C37   H16   1.109838 S    
C53   H53   1.107406 S    
C50   H47   1.117592 S    
