data_mof_unit_43217.cif
_audit_creation_date              2012-12-10T16:53:11-0500
_audit_creation_method            fapswitch 2.2
_symmetry_space_group_name_H-M    P1
_symmetry_Int_Tables_number       1
_space_group_crystal_system       triclinic
_cell_length_a                    10.774445
_cell_length_b                    10.947986
_cell_length_c                    9.757675
_cell_angle_alpha                 89.17905
_cell_angle_beta                  89.862748
_cell_angle_gamma                 91.911194
_cell_volume                      1150.2373271

loop_
_atom_site_label
_atom_site_type_symbol
_atom_type_description
_atom_site_fract_x
_atom_site_fract_y
_atom_site_fract_z
_atom_type_partial_charge
C1    C     C_R   0.492918 0.265057 0.501215 0.765366
C2    C     C_R   0.069469 0.599476 0.583144 0.028163
C3    C     C_R   0.129729 0.514932 0.499547 -0.077880
C4    C     C_R   0.062047 0.437388 0.413069 -0.214838
C5    C     C_R   0.934184 0.437921 0.412830 -0.206720
C6    C     C_R   0.871785 0.515501 0.499637 -0.073384
C7    C     C_2   0.447782 0.930531 0.407711 0.350757
C8    C     C_2   0.519862 0.865807 0.492809 0.171754
C9    C     C_2   0.470180 0.063989 0.392511 0.385898
C10   C     C_2   0.469461 0.131968 0.506984 0.151974
C11   C     C_2   0.431823 0.422553 0.922733 0.582531
C12   C     C_R   0.263048 0.504805 0.500015 0.775463
C13   C     C_2   0.416770 0.440069 0.078541 0.531705
C14   C     C_R   0.503650 0.733980 0.498706 0.731141
C15   C     C_R   0.737421 0.505770 0.499874 0.757331
C16   C     C_R   0.136496 0.686288 0.662563 -0.332791
C17   C     C_R   0.075005 0.765453 0.749646 0.546963
C18   C     C_R   0.945900 0.767298 0.746119 -0.191545
C19   C     C_R   0.878172 0.686103 0.664141 -0.288804
C20   C     C_R   0.938343 0.599392 0.583774 0.109831
Cu1   Cu    Cu3+1 0.500020 0.500020 0.638630 0.986845
Cu2   Cu    Cu3+1 0.499980 0.499980 0.361370 1.026963
H1    H     H_    0.108430 0.373572 0.348005 0.177917
H2    H     H_    0.236285 0.696237 0.655305 0.167084
H3    H     H_    0.897497 0.832212 0.807620 0.159067
H4    H     H_    0.778667 0.693332 0.663961 0.152094
H5    H     H_    0.883436 0.374702 0.347334 0.165515
N1    N     N_2   0.498640 0.498660 0.846910 -0.041209
N2    N     N_2   0.498610 0.498630 0.153040 -0.016851
O1    O     O_R   0.500020 0.321960 0.617040 -0.548881
O2    O     O_R   0.499980 0.321920 0.382900 -0.505677
O3    O     O_R   0.319670 0.500020 0.617100 -0.581360
O4    O     O_R   0.319630 0.499980 0.382950 -0.535413
O5    O     O_R   0.500020 0.678080 0.617100 -0.601704
O6    O     O_R   0.499980 0.678040 0.382960 -0.596974
O7    O     O_R   0.680370 0.500020 0.617050 -0.579109
O8    O     O_R   0.680330 0.499980 0.382900 -0.581272
O9    O     O_3   0.440267 0.074197 0.631246 -0.739659
H6    H     H_    0.458431 0.129675 0.708164 0.377543
O10   O     O_3   0.385448 0.316227 0.862421 -0.608760
C21   C     C_3   0.254040 0.312440 0.861608 0.019363
H7    H     H_    0.214519 0.404856 0.848438 0.135653
H8    H     H_    0.218378 0.268367 0.957645 0.181136
C22   C     C_3   0.206366 0.232978 0.744877 -0.707660
H9    H     H_    0.231672 0.136629 0.763038 0.270883
H10   H     H_    0.103595 0.236408 0.739390 0.197899
H11   H     H_    0.245917 0.265755 0.645500 0.243384
O11   O     O_3   0.500701 0.613094 0.893554 -0.714948
H12   H     H_    0.565866 0.657475 0.839587 0.364174
O12   O     O_3   0.312618 0.392847 0.143918 -0.733928
H13   H     H_    0.241112 0.428555 0.096074 0.261178
O13   O     O_3   0.612812 0.514135 0.096189 -0.506783
C23   C     C_3   0.657240 0.635305 0.121355 0.253725
H14   H     H_    0.675681 0.653418 0.229734 0.165994
H15   H     H_    0.590086 0.704584 0.088155 0.143902
C24   C     C_3   0.779550 0.658045 0.045523 -0.886761
H16   H     H_    0.811871 0.754704 0.057323 0.198064
H17   H     H_    0.851034 0.597475 0.088190 0.257733
H18   H     H_    0.767850 0.638674 0.935046 0.263864
O14   O     O_3   0.138958 0.849822 0.829998 -0.605547
C25   C     C_3   0.214900 0.790433 0.927112 0.088428
H19   H     H_    0.276824 0.861257 0.974078 0.194846
H20   H     H_    0.277150 0.723812 0.879967 0.173507
C26   C     C_3   0.138032 0.728379 0.042025 -0.861872
H21   H     H_    0.083766 0.648659 0.002026 0.231590
H22   H     H_    0.200795 0.695405 0.123729 0.242570
H23   H     H_    0.073367 0.793995 0.086729 0.258363
O15   O     O_3   0.358532 0.872369 0.326923 -0.616820
C27   C     C_3   0.238529 0.894232 0.378607 0.041854
H24   H     H_    0.236401 0.913655 0.490685 0.157071
H25   H     H_    0.180436 0.809625 0.364640 0.172511
C28   C     C_3   0.178881 0.997314 0.298169 -0.765697
H26   H     H_    0.187204 0.981864 0.186383 0.264881
H27   H     H_    0.078992 0.000579 0.325651 0.198732
H28   H     H_    0.224174 0.086708 0.323012 0.254771
O16   O     O_3   0.614884 0.923246 0.565418 -0.742352
H29   H     H_    0.657222 0.861174 0.621457 0.316203
O17   O     O_3   0.479122 0.119071 0.263090 -0.565047
C29   C     C_3   0.558817 0.054140 0.177295 0.051888
H30   H     H_    0.515137 0.964880 0.147832 0.173268
H31   H     H_    0.649581 0.038829 0.228329 0.128451
C30   C     C_3   0.583404 0.128141 0.046497 -0.704780
H32   H     H_    0.623271 0.220047 0.071321 0.259703
H33   H     H_    0.649797 0.080345 0.980449 0.193465
H34   H     H_    0.495229 0.138315 0.989646 0.274064

loop_
_geom_bond_atom_site_label_1
_geom_bond_atom_site_label_2
_ccdc_geom_bond_type
O10   C21   S    
Cu2   N2    S    
C25   C26   S    
C21   H7    S    
C19   C20   A    
C1    O2    A    
C7    C8    D    
Cu1   O7    S    
C23   H14   S    
O13   C23   S    
Cu2   O6    S    
C13   N2    D    
C5    C6    A    
C8    O16   S    
C24   H16   S    
C25   H20   S    
C18   C19   A    
C27   H25   S    
C19   H4    S    
C15   O8    A    
C3    C12   S    
C6    C15   S    
C5    H5    S    
O15   C27   S    
C2    C16   A    
C9    C10   D    
C22   H11   S    
C7    O15   S    
C16   H2    S    
Cu1   Cu2   S    
C12   O3    A    
C21   H8    S    
C27   H24   S    
C18   H3    S    
C28   H28   S    
C22   H10   S    
O12   H13   S    
C23   H15   S    
Cu1   O3    S    
Cu2   O2    S    
C2    C20   A    
C11   O10   S    
C26   H23   S    
O16   H29   S    
C28   H27   S    
C14   O6    A    
C29   H31   S    
C4    H1    S    
O17   C29   S    
C16   C17   A    
Cu1   O5    S    
Cu2   O8    S    
C13   O12   S    
O14   C25   S    
C26   H22   S    
C27   C28   S    
C17   C18   A    
O11   H12   S    
Cu1   N1    S    
C30   H33   S    
C21   C22   S    
C3    C4    A    
C15   O7    A    
C22   H9    S    
C23   C24   S    
C7    C9    S    
Cu2   O4    S    
N1    O11   S    
C8    C14   S    
C1    C10   S    
C28   H26   S    
C14   O5    A    
C29   C30   S    
C30   H34   S    
C6    C20   A    
Cu1   O1    S    
C24   H18   S    
C10   O9    S    
C26   H21   S    
C2    C3    A    
C11   C13   S    
O9    H6    S    
C11   N1    D    
C1    O1    A    
C24   H17   S    
C9    O17   S    
C25   H19   S    
C17   O14   S    
C29   H30   S    
C4    C5    A    
C30   H32   S    
C12   O4    A    
N2    O13   S    
