data_mof_unit_23649.cif
_audit_creation_date              2012-12-10T20:49:45-0500
_audit_creation_method            fapswitch 2.2
_symmetry_space_group_name_H-M    P1
_symmetry_Int_Tables_number       1
_space_group_crystal_system       triclinic
_cell_length_a                    8.09753
_cell_length_b                    8.93156
_cell_length_c                    16.634025
_cell_angle_alpha                 89.901038
_cell_angle_beta                  86.022624
_cell_angle_gamma                 90.039118
_cell_volume                      1200.13249412

loop_
_atom_site_label
_atom_site_type_symbol
_atom_type_description
_atom_site_fract_x
_atom_site_fract_y
_atom_site_fract_z
_atom_type_partial_charge
C1    C     C_R   0.500050 0.782054 0.499939 0.926995
C2    C     C_R   0.499972 0.217938 0.499977 0.935711
C3    C     C_1   0.500083 0.934816 0.499926 -0.192361
C4    C     C_1   0.499976 0.065181 0.499946 -0.181984
C5    C     C_R   0.478729 0.489370 0.653807 0.906451
C6    C     C_R   0.521367 0.500543 0.345736 0.886806
C7    C     C_R   0.471116 0.428642 0.735725 -0.190029
C8    C     C_R   0.529766 0.488207 0.258002 -0.217747
C9    C     C_R   0.611979 0.353735 0.760442 -0.313103
C10   C     C_R   0.384298 0.450518 0.221502 -0.282446
C11   C     C_R   0.610575 0.286355 0.835492 0.194020
C12   C     C_R   0.386801 0.423477 0.139545 0.188424
C13   C     C_R   0.467102 0.293450 0.887125 0.046214
C14   C     C_R   0.538398 0.431262 0.093011 0.048716
C15   C     C_R   0.322338 0.357073 0.860989 -0.248410
C16   C     C_R   0.681997 0.476840 0.128040 -0.252640
C17   C     C_R   0.323852 0.428659 0.786038 0.483025
C18   C     C_R   0.679019 0.507780 0.210171 0.503066
C19   C     C_2   0.481581 0.286049 0.973398 -0.114685
C20   C     C_2   0.549730 0.405109 0.006664 -0.156520
H1    H     H_    0.212214 0.362064 0.901567 0.196958
H2    H     H_    0.796766 0.488520 0.091214 0.194563
H3    H     H_    0.724835 0.347678 0.721638 0.216175
H4    H     H_    0.267274 0.440271 0.256790 0.220998
H5    H     H_    0.614714 0.488660 0.968637 0.158398
H6    H     H_    0.417199 0.199688 0.009309 0.186197
N1    N     N_1   0.926360 0.500000 0.499990 -0.023205
N2    N     N_1   0.073640 0.500000 0.500010 -0.020514
O1    O     O_R   0.363150 0.714660 0.500000 -0.615427
O2    O     O_R   0.636850 0.285340 0.500000 -0.614619
O3    O     O_R   0.636850 0.714660 0.500000 -0.620663
O4    O     O_R   0.363150 0.285340 0.500000 -0.613278
O5    O     O_R   0.346950 0.500000 0.615800 -0.565764
O6    O     O_R   0.653050 0.500000 0.384200 -0.580080
O7    O     O_R   0.620700 0.500000 0.615800 -0.628129
O8    O     O_R   0.379300 0.500000 0.384200 -0.626428
Zn1   Zn    Zn3+2 0.317220 0.500000 0.500010 1.012162
Zn2   Zn    Zn3+2 0.682780 0.500000 0.499990 1.002222
I1    I     I_    0.153353 0.384239 0.092318 -0.467424
I2    I     I_    0.831524 0.185108 0.870659 -0.434015
O9    O     O_3   0.824576 0.548417 0.243296 -0.611785
C21   C     C_3   0.831775 0.706243 0.250789 0.112960
H7    H     H_    0.900787 0.731467 0.304617 0.176155
H8    H     H_    0.707624 0.759884 0.261685 0.101878
C22   C     C_3   0.925673 0.775700 0.176630 -0.392552
H9    H     H_    0.049689 0.722748 0.167347 0.256637
H10   H     H_    0.856690 0.755249 0.122275 0.223258
C23   C     C_3   0.947315 0.944290 0.186554 -0.867547
H11   H     H_    0.824686 0.000010 0.194704 0.269494
H12   H     H_    0.015146 0.991056 0.131841 0.287134
H13   H     H_    0.019448 0.968336 0.239474 0.263599
O10   O     O_3   0.181654 0.495803 0.761309 -0.616025
C24   C     C_3   0.140089 0.623748 0.808900 0.078691
H14   H     H_    0.135363 0.721304 0.767575 0.174639
H15   H     H_    0.231717 0.652765 0.853732 0.123349
C25   C     C_3   0.968869 0.602537 0.852536 -0.340866
H16   H     H_    0.876690 0.578584 0.807746 0.246006
H17   H     H_    0.971402 0.506310 0.894640 0.246885
C26   C     C_3   0.914910 0.741453 0.900603 -0.906629
H18   H     H_    0.003355 0.765614 0.947086 0.274386
H19   H     H_    0.790366 0.722661 0.931210 0.258389
H20   H     H_    0.908637 0.839196 0.859682 0.294312

loop_
_geom_bond_atom_site_label_1
_geom_bond_atom_site_label_2
_ccdc_geom_bond_type
C1    C3    S    
C2    C4    S    
O3    Zn2   S    
C15   C17   A    
C6    O8    A    
C8    C18   A    
C11   C13   A    
O9    C21   S    
C5    O7    A    
C19   C20   D    
C25   C26   S    
C15   H1    S    
C2    O2    A    
C16   H2    S    
C12   I1    S    
C23   H12   S    
C26   H18   S    
C22   H10   S    
C16   C18   A    
C22   H9    S    
O10   C24   S    
C9    C11   A    
C6    O6    A    
C21   H8    S    
N2    Zn1   S    
C10   C12   A    
C17   O10   S    
C1    O1    A    
O8    Zn1   S    
C25   H17   S    
C9    H3    S    
C7    C9    A    
C24   H15   S    
C13   C15   A    
C11   I2    S    
C23   H13   S    
C14   C16   A    
C26   H19   S    
O4    Zn1   S    
C20   H5    S    
C13   C19   S    
N1    Zn2   S    
C3    C4    T    
C14   C20   S    
C1    O3    A    
O7    Zn2   S    
C25   H16   S    
O2    Zn2   S    
C2    O4    A    
C21   H7    S    
C24   C25   S    
O1    Zn1   S    
N1    N2    T    
C5    C7    S    
C19   H6    S    
C23   H11   S    
C26   H20   S    
C6    C8    S    
C22   C23   S    
C10   H4    S    
O6    Zn2   S    
C8    C10   A    
O5    Zn1   S    
C18   O9    S    
C24   H14   S    
C12   C14   A    
C7    C17   A    
C21   C22   S    
C5    O5    A    
