data_mof_unit_54333.cif
_audit_creation_date              2012-12-10T18:06:43-0500
_audit_creation_method            fapswitch 2.2
_symmetry_space_group_name_H-M    P1
_symmetry_Int_Tables_number       1
_space_group_crystal_system       triclinic
_cell_length_a                    12.603514
_cell_length_b                    13.086151
_cell_length_c                    15.443274
_cell_angle_alpha                 83.257628
_cell_angle_beta                  98.816705
_cell_angle_gamma                 97.054104
_cell_volume                      2485.28075969

loop_
_atom_site_label
_atom_site_type_symbol
_atom_type_description
_atom_site_fract_x
_atom_site_fract_y
_atom_site_fract_z
_atom_type_partial_charge
C1    C     C_R   0.441885 0.308457 0.507115 0.975083
C2    C     C_R   0.458526 0.573761 0.095992 0.021007
C3    C     C_R   0.351848 0.595005 0.060439 0.102212
C4    C     C_R   0.538043 0.575766 0.040080 0.103969
C5    C     C_R   0.504712 0.578106 0.948661 0.095786
C6    C     C_R   0.400043 0.604893 0.914065 -0.245790
C7    C     C_R   0.325717 0.615353 0.969313 -0.133865
C8    C     C_R   0.649189 0.573686 0.072401 -0.251348
C9    C     C_R   0.722889 0.561454 0.016999 -0.147684
C10   C     C_R   0.687329 0.545959 0.928797 0.109863
C11   C     C_R   0.576875 0.552234 0.895033 0.018156
C12   C     C_R   0.436184 0.515350 0.335842 0.944378
C13   C     C_R   0.759441 0.522468 0.874229 0.468153
C14   C     C_R   0.719516 0.501650 0.787164 -0.319411
C15   C     C_R   0.539277 0.525182 0.810429 -0.256098
C16   C     C_R   0.646356 0.944492 0.368370 0.472813
C17   C     C_R   0.583642 0.802025 0.469080 -0.149181
C18   C     C_R   0.333023 0.157660 0.570911 -0.342508
C19   C     C_R   0.313356 0.050635 0.590363 0.521460
C20   C     C_R   0.371713 0.986266 0.554767 -0.163371
C21   C     C_R   0.445862 0.027267 0.495686 -0.052286
C22   C     C_R   0.448691 0.132577 0.463943 0.045935
C23   C     C_R   0.556273 0.691875 0.489032 0.875212
C24   C     C_R   0.516519 0.966962 0.466721 0.067732
C25   C     C_R   0.576685 0.007292 0.397120 0.000628
C26   C     C_R   0.560073 0.105822 0.354694 -0.350572
C27   C     C_R   0.495609 0.168543 0.386786 0.458055
C28   C     C_R   0.528916 0.867116 0.506012 -0.229302
C29   C     C_R   0.645159 0.840747 0.402202 -0.185612
C30   C     C_R   0.403535 0.198651 0.510481 -0.133777
C31   C     C_R   0.142175 0.655142 0.613639 0.382800
C32   C     C_R   0.757258 0.380015 0.395887 -0.130167
C33   C     C_R   0.852990 0.356140 0.371988 0.408752
C34   C     C_R   0.565536 0.490075 0.663819 0.880305
C35   C     C_R   0.950366 0.404035 0.411120 -0.178197
C36   C     C_R   0.952577 0.475165 0.474156 -0.049093
C37   C     C_R   0.853419 0.496758 0.494779 0.182291
C38   C     C_R   0.048708 0.525876 0.516616 -0.096002
C39   C     C_R   0.044580 0.601257 0.575954 -0.000718
C40   C     C_R   0.944316 0.617789 0.597965 0.387716
C41   C     C_R   0.850641 0.566665 0.555828 -0.312866
C42   C     C_R   0.149911 0.503033 0.503201 -0.051338
C43   C     C_R   0.238874 0.625913 0.598611 -0.053429
C44   C     C_R   0.403401 0.539438 0.241360 -0.095723
C45   C     C_R   0.609212 0.502136 0.755840 -0.099520
C46   C     C_R   0.272765 0.593155 0.116358 0.461766
C47   C     C_R   0.299771 0.565870 0.207179 -0.296614
C48   C     C_R   0.480963 0.542925 0.185680 -0.257404
H1    H     H_    0.246118 0.634859 0.939945 0.224015
H2    H     H_    0.689518 0.789909 0.374247 0.182256
H3    H     H_    0.594662 0.134206 0.295407 0.150349
H4    H     H_    0.296129 0.208767 0.604991 0.164902
H5    H     H_    0.354959 0.904325 0.572712 0.163658
H6    H     H_    0.680217 0.344851 0.366465 0.154547
H7    H     H_    0.022046 0.384644 0.389615 0.165721
H8    H     H_    0.776011 0.582537 0.572500 0.210315
H9    H     H_    0.774380 0.485440 0.744197 0.168268
H10   H     H_    0.807096 0.559800 0.044618 0.211283
H11   H     H_    0.239853 0.564614 0.250756 0.162327
H12   H     H_    0.558411 0.517527 0.212915 0.171208
H13   H     H_    0.374524 0.620389 0.844203 0.167231
N1    N     N_R   0.239390 0.551900 0.544730 -0.137794
N2    N     N_R   0.759950 0.448600 0.455730 -0.130589
O1    O     O_R   0.374950 0.371210 0.521360 -0.620319
O2    O     O_R   0.542050 0.338030 0.492790 -0.580578
O3    O     O_R   0.368720 0.526070 0.390200 -0.615827
O4    O     O_R   0.535820 0.492890 0.361630 -0.606814
O5    O     O_R   0.457950 0.661970 0.507210 -0.610245
O6    O     O_R   0.625050 0.628790 0.478640 -0.637769
O7    O     O_R   0.464180 0.507110 0.638370 -0.620089
O8    O     O_R   0.631280 0.473930 0.609800 -0.633673
Zn1   Zn    Zn3+2 0.388420 0.522150 0.519080 0.946167
Zn2   Zn    Zn3+2 0.611580 0.477850 0.480920 0.946828
O9    O     O_3   0.867587 0.520073 0.907008 -0.747022
H14   H     H_    0.906314 0.502868 0.860250 0.353768
O10   O     O_3   0.712297 0.979283 0.305168 -0.747460
H15   H     H_    0.736230 0.053547 0.309907 0.342301
H16   H     H_    0.491636 0.835427 0.563134 0.153425
O11   O     O_3   0.242233 0.006901 0.647351 -0.734935
H17   H     H_    0.207578 0.062712 0.666748 0.338666
O12   O     O_3   0.470843 0.261569 0.340326 -0.779062
H18   H     H_    0.506244 0.273226 0.286397 0.325208
H19   H     H_    0.314643 0.664875 0.627277 0.156329
H20   H     H_    0.453950 0.518966 0.786684 0.175492
O13   O     O_3   0.938933 0.679699 0.663574 -0.732638
H21   H     H_    0.862555 0.681473 0.671411 0.333417
O14   O     O_3   0.146712 0.737544 0.662355 -0.691210
H22   H     H_    0.095494 0.784861 0.629428 0.388274
H23   H     H_    0.161604 0.446477 0.461354 0.145208
O15   O     O_3   0.854125 0.287579 0.310854 -0.747129
H24   H     H_    0.778609 0.261284 0.289382 0.317847
O16   O     O_3   0.170029 0.616711 0.081062 -0.750286
H25   H     H_    0.124992 0.611182 0.129076 0.343510
H26   H     H_    0.681611 0.583999 0.140068 0.158719

loop_
_geom_bond_atom_site_label_1
_geom_bond_atom_site_label_2
_ccdc_geom_bond_type
C40   O13   S    
O14   H22   S    
C43   H19   S    
C23   O6    A    
C35   C36   A    
C4    C8    A    
O12   H18   S    
C18   H4    S    
O13   H21   S    
C26   C27   A    
C17   C23   S    
C31   C43   A    
C6    H13   S    
C36   C37   A    
C5    C11   A    
C3    C7    A    
C38   C39   A    
C46   O16   S    
C17   C29   A    
C9    H10   S    
C1    C30   S    
C11   C15   A    
O3    Zn1   S    
C19   C20   A    
C8    C9    A    
C1    O2    A    
O6    Zn2   S    
C18   C30   A    
C28   H16   S    
C9    C10   A    
C42   N1    A    
C44   C47   A    
C21   C22   A    
C32   H6    S    
C37   N2    A    
C48   H12   S    
C14   C45   A    
C29   H2    S    
C12   O4    A    
C31   O14   S    
O9    H14   S    
C35   H7    S    
C27   O12   S    
C8    H26   S    
O10   H15   S    
C7    H1    S    
O2    Zn2   S    
C39   C40   A    
O8    Zn2   S    
C18   C19   A    
N2    Zn2   S    
C2    C48   A    
C16   C29   A    
C12   O3    A    
C23   O5    A    
C2    C4    A    
C41   H8    S    
O5    Zn1   S    
C20   C21   A    
N1    Zn1   S    
C34   C45   S    
C24   C25   A    
C19   O11   S    
C6    C7    A    
O4    Zn2   S    
C40   C41   A    
C22   C27   A    
C15   C45   A    
C1    O1    A    
C16   C25   A    
C14   H9    S    
C34   O7    A    
C46   C47   A    
C22   C30   A    
C16   O10   S    
C17   C28   A    
C33   O15   S    
C24   C28   A    
C32   N2    A    
C20   H5    S    
C10   C13   A    
C38   C42   A    
C15   H20   S    
C3    C46   A    
C42   H23   S    
C32   C33   A    
C36   C38   A    
C2    C3    A    
C25   C26   A    
C12   C44   S    
C26   H3    S    
O15   H24   S    
C5    C6    A    
O16   H25   S    
C33   C35   A    
C31   C39   A    
O1    Zn1   S    
C37   C41   A    
C10   C11   A    
C47   H11   S    
O11   H17   S    
C4    C5    A    
C13   O9    S    
C21   C24   A    
O7    Zn1   S    
C13   C14   A    
C34   O8    A    
C44   C48   A    
C43   N1    A    
