data_mof_unit_14507.cif
_audit_creation_date              2012-12-10T17:07:09-0500
_audit_creation_method            fapswitch 2.2
_symmetry_space_group_name_H-M    P1
_symmetry_Int_Tables_number       1
_space_group_crystal_system       triclinic
_cell_length_a                    17.230183
_cell_length_b                    11.033527
_cell_length_c                    9.990868
_cell_angle_alpha                 111.352439
_cell_angle_beta                  95.048715
_cell_angle_gamma                 93.428383
_cell_volume                      1753.4665221

loop_
_atom_site_label
_atom_site_type_symbol
_atom_type_description
_atom_site_fract_x
_atom_site_fract_y
_atom_site_fract_z
_atom_type_partial_charge
C1    C     C_R   0.494402 0.254255 0.441015 0.830147
C2    C     C_R   0.505598 0.745745 0.558985 0.830148
C3    C     C_2   0.489477 0.114051 0.408288 -0.357223
C4    C     C_2   0.510523 0.885949 0.591712 -0.357222
C5    C     C_2   0.504462 0.069618 0.514701 -0.152789
C6    C     C_2   0.495538 0.930382 0.485299 -0.152788
C7    C     C_2   0.511433 0.501223 0.076951 0.564730
C8    C     C_2   0.488567 0.498776 0.923049 0.564730
C9    C     C_R   0.352116 0.506282 0.519314 0.799266
C10   C     C_R   0.647884 0.493718 0.480686 0.799267
C11   C     C_R   0.268758 0.519002 0.531912 -0.119426
C12   C     C_R   0.731242 0.480998 0.468088 -0.119427
C13   C     C_R   0.223814 0.569276 0.442564 0.476780
C14   C     C_R   0.776188 0.430732 0.557444 0.476781
C15   C     C_R   0.144445 0.581712 0.458712 -0.219350
C16   C     C_R   0.855557 0.418301 0.541300 -0.219357
C17   C     C_R   0.109303 0.538033 0.556037 0.052401
C18   C     C_R   0.890699 0.461975 0.443970 0.052411
C19   C     C_R   0.154109 0.489183 0.644808 -0.188527
C20   C     C_R   0.845890 0.510814 0.355189 -0.188508
C21   C     C_R   0.233649 0.480889 0.633822 -0.273276
C22   C     C_R   0.766350 0.519105 0.366172 -0.273286
C23   C     C_2   0.023890 0.537787 0.560073 0.361367
C24   C     C_2   0.976111 0.462224 0.439936 0.361372
Cu1   Cu    Cu3+1 0.513640 0.521550 0.643210 1.002197
Cu2   Cu    Cu3+1 0.486360 0.478450 0.356790 1.002196
H1    H     H_    0.732691 0.558148 0.297325 0.199744
H2    H     H_    0.267307 0.441840 0.702663 0.199738
H3    H     H_    0.127154 0.455674 0.720744 0.155287
H4    H     H_    0.872845 0.544318 0.279248 0.155296
H5    H     H_    0.890279 0.375327 0.604888 0.143810
H6    H     H_    0.109724 0.624692 0.395130 0.143810
H7    H     H_    0.476505 0.863708 0.374995 0.181671
H8    H     H_    0.523495 0.136292 0.625005 0.181671
H9    H     H_    0.527845 0.953078 0.702561 0.142260
H10   H     H_    0.472155 0.046922 0.297439 0.142260
N1    N     N_2   0.465840 0.446060 0.141630 -0.028770
N2    N     N_2   0.534160 0.553940 0.858370 -0.028770
O1    O     O_R   0.507280 0.332200 0.576490 -0.574968
O2    O     O_R   0.492720 0.667800 0.423510 -0.574967
O3    O     O_R   0.484240 0.295800 0.334620 -0.606704
O4    O     O_R   0.515760 0.704200 0.665380 -0.606704
O5    O     O_R   0.399260 0.520290 0.634950 -0.551090
O6    O     O_R   0.600740 0.479710 0.365050 -0.551092
O7    O     O_R   0.376220 0.483890 0.393080 -0.533503
O8    O     O_R   0.623780 0.516110 0.606920 -0.533502
O9    O     O_3   0.259759 0.617675 0.350908 -0.576062
C25   C     C_3   0.226617 0.548283 0.206450 -0.214746
H11   H     H_    0.168202 0.579490 0.185277 0.136914
H12   H     H_    0.222647 0.440437 0.177995 0.155819
H13   H     H_    0.264977 0.571292 0.133588 0.216173
O10   O     O_3   0.740243 0.382335 0.649102 -0.576060
C26   C     C_3   0.773385 0.451730 0.793560 -0.214736
H14   H     H_    0.777356 0.559578 0.822012 0.155813
H15   H     H_    0.831801 0.420522 0.814732 0.136916
H16   H     H_    0.735024 0.428722 0.866422 0.216177
O11   O     O_3   0.008141 0.398935 0.311884 -0.607346
C27   C     C_3   0.965376 0.277218 0.230050 -0.335412
H17   H     H_    0.000581 0.220583 0.144964 0.185064
H18   H     H_    0.909649 0.290609 0.174570 0.177571
H19   H     H_    0.954074 0.218530 0.297712 0.157308
O12   O     O_3   0.991858 0.601079 0.688123 -0.607352
C28   C     C_3   0.034642 0.722768 0.769992 -0.335405
H20   H     H_    0.045978 0.781466 0.702354 0.157316
H21   H     H_    0.090350 0.709332 0.825484 0.177573
H22   H     H_    0.999436 0.779418 0.855068 0.185060
O13   O     O_3   0.412026 0.456345 0.859379 -0.579035
C29   C     C_3   0.402250 0.319076 0.784686 -0.220377
H23   H     H_    0.347587 0.279368 0.810509 0.163171
H24   H     H_    0.451277 0.266301 0.809750 0.105067
H25   H     H_    0.390761 0.295495 0.667031 0.173097
O14   O     O_3   0.587974 0.543655 0.140621 -0.579037
C30   C     C_3   0.597750 0.680924 0.215314 -0.220376
H26   H     H_    0.548723 0.733698 0.190251 0.105068
H27   H     H_    0.652413 0.720631 0.189491 0.163172
H28   H     H_    0.609239 0.704504 0.332969 0.173098
O15   O     O_3   0.609895 0.585499 0.914522 -0.498395
C31   C     C_3   0.631580 0.711957 0.917716 -0.154054
H29   H     H_    0.588361 0.781496 0.966476 0.118112
H30   H     H_    0.640618 0.711945 0.809853 0.187074
H31   H     H_    0.688818 0.749286 0.985238 0.106000
O16   O     O_3   0.390105 0.414501 0.085478 -0.498393
C32   C     C_3   0.368420 0.288043 0.082284 -0.154055
H32   H     H_    0.359382 0.288055 0.190147 0.187074
H33   H     H_    0.411638 0.218504 0.033522 0.118111
H34   H     H_    0.311181 0.250715 0.014762 0.106001

loop_
_geom_bond_atom_site_label_1
_geom_bond_atom_site_label_2
_ccdc_geom_bond_type
C28   H21   S    
C9    O7    A    
C30   H26   S    
Cu1   O5    S    
Cu2   O6    S    
C7    C8    S    
C20   H4    S    
O15   C31   S    
C16   H5    S    
C17   C23   S    
C18   C24   S    
C19   C21   A    
C5    C6    S    
C31   H30   S    
C27   H18   S    
C12   C22   A    
Cu2   O7    S    
C25   H13   S    
C14   O10   S    
C32   H32   S    
C29   H23   S    
C10   O8    A    
C23   C24   D    
C27   H19   S    
C25   H12   S    
C28   H22   S    
C30   H27   S    
C8    N2    D    
C26   H15   S    
C9    O5    A    
C10   O6    A    
O13   C29   S    
C15   H6    S    
C4    C6    D    
C7    O14   S    
C13   O9    S    
C31   H29   S    
C24   O11   S    
Cu1   Cu2   S    
C26   H14   S    
C11   C21   A    
C1    C3    S    
C2    C4    S    
O12   C28   S    
Cu1   N2    S    
O9    C25   S    
C5    H8    S    
C7    N1    D    
C9    C11   S    
C10   C12   S    
C1    O3    A    
C25   H11   S    
C32   H33   S    
C21   H2    S    
C12   C14   A    
C22   H1    S    
C13   C15   A    
C30   H28   S    
C14   C16   A    
N1    O16   S    
C19   H3    S    
O10   C26   S    
C26   H16   S    
C15   C17   A    
C20   C22   A    
O14   C30   S    
C3    C5    D    
Cu1   O4    S    
Cu2   N1    S    
N2    O15   S    
C6    H7    S    
C27   H17   S    
Cu1   O1    S    
C11   C13   A    
C31   H31   S    
Cu2   O2    S    
O11   C27   S    
C3    H10   S    
C2    O4    A    
C29   H25   S    
C17   C19   A    
C18   C20   A    
C4    H9    S    
C1    O1    A    
C28   H20   S    
C2    O2    A    
C32   H34   S    
C8    O13   S    
C16   C18   A    
O16   C32   S    
C29   H24   S    
C23   O12   S    
Cu1   O8    S    
Cu2   O3    S    
