data_mof_unit_51018.cif
_audit_creation_date              2012-12-10T17:20:21-0500
_audit_creation_method            fapswitch 2.2
_symmetry_space_group_name_H-M    P1
_symmetry_Int_Tables_number       1
_space_group_crystal_system       triclinic
_cell_length_a                    11.705035
_cell_length_b                    10.869244
_cell_length_c                    9.589089
_cell_angle_alpha                 91.800276
_cell_angle_beta                  89.952745
_cell_angle_gamma                 93.031489
_cell_volume                      1217.66175789

loop_
_atom_site_label
_atom_site_type_symbol
_atom_type_description
_atom_site_fract_x
_atom_site_fract_y
_atom_site_fract_z
_atom_type_partial_charge
C1    C     C_R   0.496790 0.262093 0.496959 0.771031
C2    C     C_R   0.314507 0.069902 0.809709 -0.212383
C3    C     C_R   0.365453 0.963966 0.852664 -0.013922
C4    C     C_R   0.428590 0.896816 0.755109 -0.222278
C5    C     C_R   0.452536 0.942103 0.620463 0.049210
C6    C     C_R   0.424234 0.063388 0.594184 0.056733
C7    C     C_R   0.484924 0.127099 0.488029 -0.169354
C8    C     C_R   0.545015 0.060837 0.383456 0.143593
C9    C     C_R   0.546045 0.933274 0.392993 -0.186610
C10   C     C_R   0.502803 0.873168 0.509966 -0.146288
C11   C     C_R   0.655842 0.661520 0.148772 -0.137495
C12   C     C_R   0.284142 0.500789 0.500043 0.818482
C13   C     C_R   0.732501 0.739190 0.078577 -0.212579
C14   C     C_R   0.730098 0.741396 0.935052 -0.188486
C15   C     C_R   0.652559 0.663974 0.860651 -0.151996
C16   C     C_R   0.575196 0.580569 0.927633 0.229988
C17   C     C_R   0.575931 0.579936 0.077247 0.244117
C18   C     C_R   0.428673 0.422989 0.071405 -0.062060
C19   C     C_R   0.428972 0.422837 0.923580 -0.034682
C20   C     C_R   0.501174 0.738154 0.503215 0.786906
C21   C     C_R   0.715907 0.500170 0.499964 0.799860
C22   C     C_1   0.162425 0.500776 0.500106 -0.172193
C23   C     C_1   0.059934 0.500601 0.500090 0.004218
C24   C     C_1   0.940115 0.500396 0.499987 0.001175
C25   C     C_1   0.837620 0.500278 0.499913 -0.180768
C26   C     C_R   0.337253 0.115969 0.677116 0.155453
Cu1   Cu    Cu3+1 0.499990 0.499990 0.640660 0.937475
Cu2   Cu    Cu3+1 0.500010 0.500010 0.359340 0.932219
H1    H     H_    0.788862 0.803491 0.880685 0.154172
H2    H     H_    0.657216 0.673385 0.750988 0.191008
H3    H     H_    0.371106 0.359194 0.866791 0.126238
H4    H     H_    0.254786 0.115363 0.877780 0.168019
H5    H     H_    0.463525 0.814154 0.790650 0.215251
H6    H     H_    0.584595 0.879141 0.311197 0.173635
H7    H     H_    0.370349 0.359710 0.124529 0.143761
H8    H     H_    0.663426 0.669937 0.258900 0.186581
H9    H     H_    0.793777 0.798854 0.136391 0.153222
N1    N     N_R   0.501070 0.501210 0.147910 -0.203162
N2    N     N_R   0.501110 0.501290 0.852040 -0.200501
O1    O     O_R   0.499990 0.319640 0.618810 -0.568594
O2    O     O_R   0.500000 0.319660 0.381240 -0.595435
O3    O     O_R   0.337190 0.500000 0.618790 -0.577713
O4    O     O_R   0.337200 0.500030 0.381210 -0.563682
O5    O     O_R   0.500000 0.680340 0.618760 -0.610463
O6    O     O_R   0.500010 0.680360 0.381190 -0.596357
O7    O     O_R   0.662800 0.499970 0.618790 -0.585604
O8    O     O_R   0.662810 0.500000 0.381210 -0.595092
C27   C     C_3   0.606154 0.126135 0.262885 -0.336749
C28   C     C_3   0.675913 0.046672 0.163727 -0.882013
H10   H     H_    0.742556 0.000987 0.222532 0.247484
H11   H     H_    0.619187 0.977348 0.106240 0.276295
H12   H     H_    0.719401 0.106172 0.085617 0.252206
H13   H     H_    0.541296 0.169004 0.198165 0.232494
H14   H     H_    0.666550 0.199584 0.307033 0.211274
C29   C     C_3   0.255630 0.205678 0.619446 -0.389693
C30   C     C_3   0.134830 0.146382 0.603378 -0.823844
H15   H     H_    0.136098 0.061930 0.535128 0.265271
H16   H     H_    0.098318 0.122076 0.706441 0.249444
H17   H     H_    0.078519 0.212246 0.554968 0.245901
H18   H     H_    0.252353 0.287751 0.690327 0.207421
H19   H     H_    0.281548 0.236228 0.514501 0.195606
C31   C     C_2   0.348909 0.920269 0.996985 0.836732
O9    O     O_2   0.292476 0.978459 0.081002 -0.608253
O10   O     O_R   0.399180 0.813203 0.038099 -0.781688
H20   H     H_    0.383040 0.794000 0.139241 0.347464

loop_
_geom_bond_atom_site_label_1
_geom_bond_atom_site_label_2
_ccdc_geom_bond_type
C12   O3    A    
C23   C24   S    
C8    C27   S    
Cu2   O8    S    
C6    C7    A    
C18   H7    S    
Cu2   O4    S    
C13   H9    S    
C20   O6    A    
C14   C15   A    
C30   H17   S    
Cu2   N1    S    
Cu1   O1    S    
C29   C30   S    
C28   H12   S    
C19   H3    S    
O10   H20   S    
C2    C3    A    
C18   N1    A    
C24   C25   T    
C7    C8    A    
C2    C26   A    
C6    C26   A    
C13   C14   A    
C26   C29   S    
C27   H14   S    
C11   C13   A    
Cu1   O3    S    
C29   H18   S    
C31   O9    D    
C19   N2    A    
C5    C6    A    
C29   H19   S    
Cu1   O7    S    
C1    O2    A    
C27   C28   S    
C20   O5    A    
C30   H16   S    
C9    H6    S    
C21   O7    A    
C12   O4    A    
C17   N1    A    
C22   C23   T    
C27   H13   S    
Cu2   O6    S    
C16   C17   A    
C14   H1    S    
C15   C16   A    
C12   C22   S    
Cu2   O2    S    
C5    C10   A    
C30   H15   S    
C15   H2    S    
C2    H4    S    
C18   C19   A    
C9    C10   A    
C3    C31   S    
C10   C20   S    
Cu1   Cu2   S    
C28   H10   S    
C21   C25   S    
C4    H5    S    
C4    C5    A    
C31   O10   S    
C16   N2    A    
C1    O1    A    
C21   O8    A    
C1    C7    S    
Cu1   O5    S    
C11   C17   A    
C3    C4    A    
Cu1   N2    S    
C8    C9    A    
C28   H11   S    
C11   H8    S    
