data_mof_unit_10639.cif
_audit_creation_date              2012-12-10T17:13:33-0500
_audit_creation_method            fapswitch 2.2
_symmetry_space_group_name_H-M    P1
_symmetry_Int_Tables_number       1
_space_group_crystal_system       triclinic
_cell_length_a                    10.773386
_cell_length_b                    12.990926
_cell_length_c                    11.764365
_cell_angle_alpha                 100.240635
_cell_angle_beta                  92.529773
_cell_angle_gamma                 91.850149
_cell_volume                      1617.33909204

loop_
_atom_site_label
_atom_site_type_symbol
_atom_type_description
_atom_site_fract_x
_atom_site_fract_y
_atom_site_fract_z
_atom_type_partial_charge
C1    C     C_R   0.502595 0.298997 0.477614 0.828162
C2    C     C_3   0.877560 0.507513 0.496012 0.033382
C3    C     C_3   0.934103 0.599248 0.589229 -0.409094
C4    C     C_3   0.921407 0.523815 0.374760 -0.186031
C5    C     C_R   0.499478 0.813975 0.534367 -0.052158
C6    C     C_R   0.509811 0.184646 0.462934 -0.116272
C7    C     C_R   0.552908 0.013626 0.353461 -0.237494
C8    C     C_R   0.549368 0.122277 0.359480 0.281653
C9    C     C_R   0.480284 0.137642 0.557412 -0.318883
C10   C     C_R   0.487596 0.030268 0.551018 0.177350
C11   C     C_R   0.522855 0.968076 0.447817 0.113931
C12   C     C_R   0.260532 0.506247 0.500996 0.775875
C13   C     C_R   0.528072 0.860434 0.439965 -0.234551
C14   C     C_R   0.466526 0.875869 0.638047 -0.210040
C15   C     C_R   0.459982 0.983816 0.646171 -0.194300
C16   C     C_R   0.402542 0.388873 0.022591 -0.351024
C17   C     C_R   0.404954 0.400761 0.143613 0.458400
C18   C     C_R   0.549454 0.545788 0.157291 -0.021029
C19   C     C_R   0.545968 0.536792 0.034691 0.017181
C20   C     C_R   0.466294 0.460596 0.967714 0.012576
C21   C     C_R   0.447837 0.458424 0.846866 0.433792
C22   C     C_R   0.607827 0.589568 0.854657 0.022228
C23   C     C_R   0.501243 0.700652 0.521773 0.784452
C24   C     C_R   0.618122 0.601557 0.976872 -0.325328
C25   C     C_R   0.739683 0.504146 0.499056 0.780716
C26   C     C_3   0.071160 0.406332 0.528513 -0.499649
C27   C     C_3   0.927593 0.403516 0.526476 -0.178170
C28   C     C_3   0.077339 0.602106 0.588941 -0.389420
C29   C     C_3   0.065018 0.516396 0.373361 0.103877
C30   C     C_3   0.122400 0.510405 0.498318 0.112103
Cu1   Cu    Cu3+1 0.509350 0.507730 0.615930 0.928053
Cu2   Cu    Cu3+1 0.490650 0.492270 0.384070 0.963579
H1    H     H_    0.107155 0.397550 0.615213 0.187594
H2    H     H_    0.111812 0.679396 0.574457 0.162946
H3    H     H_    0.898989 0.675463 0.573940 0.170709
H4    H     H_    0.555009 0.812775 0.360180 0.155735
H5    H     H_    0.443665 0.840708 0.711736 0.155235
H6    H     H_    0.579192 0.963450 0.275358 0.146164
H7    H     H_    0.433053 0.030713 0.726265 0.134266
H8    H     H_    0.451198 0.184769 0.636614 0.163259
H9    H     H_    0.106469 0.338879 0.467854 0.159249
H10   H     H_    0.665916 0.638707 0.811775 0.136081
H11   H     H_    0.346876 0.325538 0.970700 0.196002
H12   H     H_    0.682874 0.660418 0.025455 0.154116
H13   H     H_    0.609816 0.605109 0.210586 0.149583
H14   H     H_    0.898410 0.395516 0.614243 0.150800
H15   H     H_    0.114739 0.596984 0.676511 0.166128
H16   H     H_    0.905413 0.589628 0.676632 0.177921
H17   H     H_    0.079434 0.438230 0.320113 0.094638
H18   H     H_    0.879619 0.459427 0.307280 0.122668
N1    N     N_R   0.523430 0.519360 0.790130 -0.206821
N2    N     N_R   0.476570 0.480640 0.209880 -0.201244
O1    O     O_R   0.506640 0.354460 0.582000 -0.607883
O2    O     O_R   0.490840 0.341410 0.386200 -0.555273
O3    O     O_R   0.325590 0.506510 0.597900 -0.595182
O4    O     O_R   0.309790 0.493450 0.402100 -0.571665
O5    O     O_R   0.509160 0.658590 0.613800 -0.590649
O6    O     O_R   0.493360 0.645540 0.418000 -0.585292
O7    O     O_R   0.690210 0.506550 0.597900 -0.594929
O8    O     O_R   0.674410 0.493490 0.402100 -0.580372
C31   C     C_1   0.875723 0.621835 0.342845 0.253727
N3    N     N_1   0.839418 0.698133 0.317897 -0.334276
N4    N     N_2   0.587258 0.169242 0.264434 -0.397862
H19   H     H_    0.519344 0.209363 0.229589 0.292551
C32   C     C_3   0.661184 0.111605 0.176522 -0.683670
H20   H     H_    0.699350 0.166091 0.122781 0.232484
H21   H     H_    0.602465 0.049950 0.119172 0.203211
H22   H     H_    0.740509 0.076079 0.216664 0.253712
N5    N     N_2   0.343685 0.397396 0.788906 -0.447767
H23   H     H_    0.346530 0.368579 0.702547 0.296683
C33   C     C_3   0.222643 0.433573 0.823844 -0.764815
H24   H     H_    0.150718 0.370350 0.794186 0.223397
H25   H     H_    0.201761 0.503972 0.787800 0.241197
H26   H     H_    0.217644 0.455471 0.918837 0.234685
N6    N     N_2   0.328638 0.333520 0.197772 -0.396879
H27   H     H_    0.255862 0.371233 0.237620 0.266804
C34   C     C_3   0.288446 0.230672 0.134710 -0.811490
H28   H     H_    0.256924 0.181414 0.196807 0.247332
H29   H     H_    0.365572 0.191333 0.086989 0.236377
H30   H     H_    0.209157 0.237164 0.073027 0.229362
C35   C     C_1   0.876623 0.309789 0.446516 0.218173
N7    N     N_1   0.837822 0.235797 0.384024 -0.268022
N8    N     N_2   0.126037 0.590547 0.310625 -0.413339
H31   H     H_    0.094290 0.583417 0.225420 0.242412
C36   C     C_3   0.162876 0.696728 0.365266 -0.599018
H32   H     H_    0.200338 0.739483 0.299619 0.211273
H33   H     H_    0.238634 0.696900 0.431996 0.212520
H34   H     H_    0.082814 0.739470 0.403015 0.223579

loop_
_geom_bond_atom_site_label_1
_geom_bond_atom_site_label_2
_ccdc_geom_bond_type
C23   O6    A    
N4    C32   S    
C28   H15   S    
C19   C20   A    
Cu2   O6    S    
C1    O2    A    
C6    C9    A    
C35   N7    T    
C18   N2    A    
C7    C8    A    
C29   H17   S    
C34   H28   S    
C7    C11   A    
C26   C27   S    
C3    C28   S    
C29   N8    S    
C10   C15   A    
C34   H30   S    
C3    H16   S    
C18   C19   A    
Cu1   O7    S    
N5    C33   S    
C1    O1    A    
Cu2   N2    S    
N8    H31   S    
C16   C17   A    
C32   H21   S    
C2    C27   S    
C25   O8    A    
C9    C10   A    
C5    C13   A    
C4    C29   S    
C36   H33   S    
C28   H2    S    
C31   N3    T    
C17   N2    A    
Cu2   O2    S    
C34   H29   S    
C1    C6    S    
C27   C35   S    
C13   H4    S    
C33   H25   S    
C6    C8    A    
C36   H32   S    
C4    C31   S    
C9    H8    S    
C4    H18   S    
C2    C4    S    
N6    H27   S    
C29   C30   S    
C26   H1    S    
Cu1   Cu2   S    
C5    C23   S    
C3    H3    S    
C16   C20   A    
C32   H22   S    
Cu1   O1    S    
N6    C34   S    
C16   H11   S    
C15   H7    S    
C5    C14   A    
C12   O4    A    
C27   H14   S    
N8    C36   S    
C26   C30   S    
C24   H12   S    
C22   C24   A    
Cu2   O8    S    
C18   H13   S    
C21   N1    A    
C36   H34   S    
C23   O5    A    
C12   C30   S    
Cu1   N1    S    
C33   H26   S    
Cu1   O5    S    
C28   C30   S    
C2    C3    S    
C33   H24   S    
C14   H5    S    
C11   C13   A    
C22   H10   S    
C7    H6    S    
C19   C24   A    
C2    C25   S    
N5    H23   S    
C12   O3    A    
C10   C11   A    
C8    N4    S    
N4    H19   S    
C20   C21   A    
C32   H20   S    
C21   N5    S    
C17   N6    S    
C14   C15   A    
C25   O7    A    
Cu1   O3    S    
Cu2   O4    S    
C26   H9    S    
C22   N1    A    
