data_mof_unit_34726.cif
_audit_creation_date              2012-12-11T14:21:07-0500
_audit_creation_method            fapswitch 2.2
_symmetry_space_group_name_H-M    P1
_symmetry_Int_Tables_number       1
_space_group_crystal_system       triclinic
_cell_length_a                    11.545417
_cell_length_b                    11.529695
_cell_length_c                    19.571366
_cell_angle_alpha                 90.31697
_cell_angle_beta                  89.962327
_cell_angle_gamma                 60.099082
_cell_volume                      2258.40557706

loop_
_atom_site_label
_atom_site_type_symbol
_atom_type_description
_atom_site_fract_x
_atom_site_fract_y
_atom_site_fract_z
_atom_type_partial_charge
C1    C     C_R   0.640302 0.117076 0.599340 0.544413
C2    C     C_1   0.652900 0.149291 0.668709 0.005015
C3    C     C_R   0.669908 0.667067 0.193911 0.056131
C4    C     C_R   0.612282 0.746076 0.598672 0.544904
C5    C     C_R   0.541079 0.731639 0.222352 -0.024306
C6    C     C_R   0.529393 0.706016 0.291029 0.026889
C7    C     C_R   0.766304 0.631367 0.307004 -0.152517
C8    C     C_R   0.784149 0.612098 0.236879 0.197665
C9    C     C_R   0.425290 0.801342 0.181608 0.257381
C10   C     C_R   0.305371 0.812318 0.204113 -0.137807
C11   C     C_R   0.298253 0.763526 0.267599 -0.175654
C12   C     C_1   0.640875 0.704014 0.668040 0.005442
C13   C     C_R   0.408852 0.709262 0.311702 0.292164
C14   C     C_R   0.640250 0.678523 0.334724 0.002099
C15   C     C_R   0.150200 0.185543 0.189931 0.067452
C16   C     C_R   0.241058 0.145085 0.598232 0.544395
C17   C     C_R   0.228547 0.237386 0.215247 0.026473
C18   C     C_R   0.229768 0.253948 0.286262 -0.039445
C19   C     C_R   0.143081 0.100482 0.302027 -0.152128
C20   C     C_R   0.105676 0.117642 0.233743 0.190700
C21   C     C_R   0.290756 0.288080 0.171366 0.284932
C22   C     C_R   0.319573 0.384637 0.196454 -0.090256
C23   C     C_1   0.126589 0.199145 0.859265 0.009313
C24   C     C_R   0.295769 0.422650 0.264563 -0.095045
C25   C     C_R   0.254189 0.357191 0.309421 -0.076252
C26   C     C_R   0.201281 0.169926 0.329462 -0.026811
C27   C     C_R   0.666303 0.186707 0.192949 0.000096
C28   C     C_R   0.647501 0.111154 0.402266 0.535023
C29   C     C_R   0.726972 0.054552 0.217146 0.053988
C30   C     C_R   0.755618 0.033811 0.287210 -0.075964
C31   C     C_R   0.611672 0.273108 0.309212 0.207626
C32   C     C_R   0.611091 0.294430 0.239359 -0.108262
C33   C     C_R   0.775171 0.942915 0.172262 0.235592
C34   C     C_1   0.171662 0.169990 0.727757 -0.030197
C35   C     C_R   0.878837 0.818664 0.193880 -0.027937
C36   C     C_R   0.927227 0.802447 0.260248 0.210155
C37   C     C_R   0.864506 0.908794 0.306978 -0.125162
C38   C     C_R   0.678981 0.141359 0.333865 -0.007635
C39   C     C_R   0.081620 0.231326 0.928538 0.554780
C40   C     C_R   0.615579 0.736506 0.402994 0.564532
C41   C     C_R   0.683949 0.604452 0.929472 0.555068
C42   C     C_R   0.708487 0.206792 0.930061 0.558168
C43   C     C_R   0.083622 0.234028 0.124702 0.638278
C44   C     C_R   0.684408 0.611472 0.125645 0.626013
C45   C     C_1   0.150151 0.182421 0.798959 -0.029671
C46   C     C_R   0.705969 0.210650 0.126035 0.611683
C47   C     C_R   0.248989 0.140847 0.399758 0.550949
C48   C     C_1   0.670577 0.646495 0.860094 0.009106
C49   C     C_1   0.654528 0.683783 0.728446 -0.030452
C50   C     C_1   0.663482 0.666728 0.799675 -0.030005
C51   C     C_1   0.195484 0.160415 0.667445 0.003829
C52   C     C_1   0.678693 0.191378 0.860726 0.007992
C53   C     C_1   0.658554 0.166912 0.729055 -0.029759
C54   C     C_1   0.665767 0.180830 0.800331 -0.029463
Cr1   Cr    Cr6+3 0.404720 0.198220 0.499960 1.035677
Cr2   Cr    Cr6+3 0.698290 0.897110 0.500380 1.020385
Cr3   Cr    Cr6+3 0.396970 0.904720 0.499610 1.054940
Cr4   Cr    Cr6+3 0.926180 0.151990 0.028120 1.072409
Cr5   Cr    Cr6+3 0.921330 0.451820 0.027470 1.070251
Cr6   Cr    Cr6+3 0.626260 0.446870 0.028710 1.036416
H1    H     H_    0.312495 0.501533 0.283149 0.175273
H2    H     H_    0.053514 0.683217 0.327578 0.298202
H3    H     H_    0.910151 0.894960 0.356547 0.137962
H4    H     H_    0.343505 0.900397 0.098388 0.330865
H5    H     H_    0.976384 0.495430 0.247676 0.346646
H6    H     H_    0.205853 0.768320 0.282539 0.128826
H7    H     H_    0.314166 0.658591 0.377114 0.304959
H8    H     H_    0.118666 0.040148 0.334845 0.112094
H9    H     H_    0.366187 0.286182 0.081968 0.327662
H10   H     H_    0.001146 0.028730 0.247121 0.313916
H11   H     H_    0.232242 0.398597 0.360292 0.165273
H12   H     H_    0.218806 0.854106 0.171248 0.161757
H13   H     H_    0.850959 0.605674 0.340059 0.133604
H14   H     H_    0.358570 0.431798 0.163087 0.102951
H15   H     H_    0.588874 0.356754 0.398464 0.340401
H16   H     H_    0.764651 0.870584 0.083730 0.323592
H17   H     H_    0.571154 0.396242 0.221638 0.151531
H18   H     H_    0.924191 0.735102 0.158480 0.167325
O1    O     O_R   0.267740 0.231960 0.575440 -0.505650
O2    O     O_R   0.596130 0.579390 0.952730 -0.498335
O3    O     O_R   0.639060 0.321160 0.958670 -0.498067
O4    O     O_R   0.527280 0.186640 0.570530 -0.494386
O5    O     O_R   0.821240 0.124200 0.104370 -0.438312
O6    O     O_R   0.036890 0.167040 0.097840 -0.464029
O7    O     O_R   0.056180 0.349610 0.102880 -0.453041
O8    O     O_R   0.797660 0.564870 0.097950 -0.463319
O9    O     O_R   0.595880 0.584250 0.104270 -0.501061
O10   O     O_R   0.638830 0.325670 0.099150 -0.534964
O11   O     O_3   0.824590 0.350230 0.028100 -0.281908
O12   O     O_R   0.685970 0.784660 0.430010 -0.512205
O13   O     O_R   0.728090 0.003450 0.576380 -0.506399
O14   O     O_R   0.682970 0.789190 0.570490 -0.496478
O15   O     O_R   0.499290 0.771880 0.575530 -0.501134
O16   O     O_R   0.285330 0.030870 0.569730 -0.495847
O17   O     O_R   0.270980 0.227080 0.423890 -0.533676
O18   O     O_R   0.530280 0.182120 0.430050 -0.483638
O19   O     O_R   0.731330 0.998570 0.424830 -0.531909
O20   O     O_3   0.552688 0.383306 0.351736 -0.668438
O21   O     O_3   0.721137 0.958391 0.107651 -0.666103
O22   O     O_3   0.034376 0.680939 0.278356 -0.733959
O23   O     O_R   0.502530 0.767000 0.423990 -0.449600
O24   O     O_3   0.433424 0.853487 0.119486 -0.661416
O25   O     O_3   0.911333 0.536736 0.210007 -0.664376
O26   O     O_3   0.404809 0.646560 0.370897 -0.626775
O27   O     O_3   0.321677 0.242068 0.104727 -0.671059
O28   O     O_3   0.022061 0.072976 0.209724 -0.691208
O29   O     O_R   0.288330 0.026350 0.429250 -0.498073
O30   O     O_3   0.499990 0.000020 0.499980 -0.260399
O31   O     O_R   0.821500 0.119340 0.952830 -0.500504
O32   O     O_R   0.037130 0.162530 0.957360 -0.504413
O33   O     O_R   0.056440 0.344740 0.951340 -0.501698
O34   O     O_R   0.797900 0.560360 0.957470 -0.504060

loop_
_geom_bond_atom_site_label_1
_geom_bond_atom_site_label_2
_ccdc_geom_bond_type
C28   O19   A    
C24   H1    S    
C23   C45   T    
C27   C29   A    
Cr4   O31   S    
C19   C20   A    
C18   C26   A    
C16   C51   S    
C41   O2    A    
C12   C49   T    
Cr6   O10   S    
C7    C8    A    
C7    H13   S    
C53   C54   S    
H16   O21   S    
H4    O24   S    
C42   O3    A    
C34   C51   T    
C36   C37   A    
C42   O31   A    
C5    C6    A    
C29   C33   A    
C7    C14   A    
C30   C38   A    
C1    C2    S    
Cr5   O11   S    
C31   O20   S    
C19   C26   A    
Cr2   O30   S    
C32   H17   S    
Cr2   O13   S    
C35   C36   A    
C9    O24   S    
C41   O34   A    
Cr5   O33   S    
C25   H11   S    
C4    C12   S    
C44   O9    A    
C9    C10   A    
C20   O28   S    
C11   H6    S    
Cr2   O12   S    
C8    O25   S    
C40   O23   A    
C1    O13   A    
Cr3   O15   S    
C21   C22   A    
Cr1   O4    S    
C43   O6    A    
C18   C25   A    
Cr2   O19   S    
C44   O8    A    
C37   H3    S    
Cr6   O9    S    
C52   C54   T    
H7    O26   S    
C17   C18   A    
C46   O10   A    
C39   O32   A    
C15   C20   A    
C3    C44   S    
C43   O7    A    
C24   C25   A    
Cr1   O17   S    
C3    C8    A    
H10   O28   S    
H9    O27   S    
C1    O4    A    
Cr6   O11   S    
H15   O20   S    
C17   C21   A    
C4    O15   A    
C30   C37   A    
C33   O21   S    
Cr5   O7    S    
C5    C9    A    
C29   C30   A    
Cr4   O6    S    
C6    C14   A    
Cr1   O1    S    
Cr6   O3    S    
C31   C32   A    
C28   C38   S    
Cr5   O34   S    
C19   H8    S    
C36   O22   S    
C34   C45   S    
C13   O26   S    
C26   C47   S    
H2    O22   S    
C27   C46   S    
Cr3   O29   S    
C47   O29   A    
Cr3   O16   S    
C22   C24   A    
H5    O25   S    
C15   C17   A    
Cr6   O2    S    
C47   O17   A    
C27   C32   A    
Cr4   O32   S    
Cr1   O18   S    
C3    C5    A    
C2    C53   T    
Cr3   O23   S    
C35   H18   S    
C16   O16   A    
C31   C38   A    
Cr1   O30   S    
C28   O18   A    
C16   O1    A    
Cr5   O8    S    
C15   C43   S    
Cr4   O5    S    
C6    C13   A    
C39   O33   A    
C11   C13   A    
C23   C39   S    
C48   C50   T    
C33   C35   A    
C41   C48   S    
Cr4   O11   S    
C10   C11   A    
C14   C40   S    
C46   O5    A    
Cr2   O14   S    
Cr3   O30   S    
C49   C50   S    
C22   H14   S    
C40   O12   A    
C21   O27   S    
C42   C52   S    
C4    O14   A    
C10   H12   S    
