data_mof_unit_56023.cif
_audit_creation_date              2012-12-10T18:19:14-0500
_audit_creation_method            fapswitch 2.2
_symmetry_space_group_name_H-M    P1
_symmetry_Int_Tables_number       1
_space_group_crystal_system       triclinic
_cell_length_a                    14.926228
_cell_length_b                    14.163293
_cell_length_c                    11.505552
_cell_angle_alpha                 91.518064
_cell_angle_beta                  87.076856
_cell_angle_gamma                 88.324078
_cell_volume                      2427.16779735

loop_
_atom_site_label
_atom_site_type_symbol
_atom_type_description
_atom_site_fract_x
_atom_site_fract_y
_atom_site_fract_z
_atom_type_partial_charge
C1    C     C_R   0.327109 0.501428 0.509118 0.988111
C2    C     C_R   0.434399 0.205263 0.564783 0.484291
C3    C     C_R   0.423590 0.802190 0.535688 0.469466
C4    C     C_R   0.562037 0.197256 0.432321 0.504651
C5    C     C_R   0.425839 0.903024 0.550064 -0.232522
C6    C     C_R   0.570761 0.097982 0.445753 -0.204643
C7    C     C_R   0.573620 0.897180 0.452832 -0.225090
C8    C     C_R   0.427712 0.104987 0.555955 -0.219214
C9    C     C_R   0.499603 0.950470 0.501402 -0.118359
C10   C     C_R   0.499748 0.051094 0.502060 -0.121946
C11   C     C_R   0.354966 0.957675 0.607445 0.413525
C12   C     C_R   0.672893 0.498217 0.491458 0.998530
C13   C     C_R   0.646535 0.044522 0.400535 0.373994
C14   C     C_R   0.645195 0.944724 0.396260 0.391589
C15   C     C_R   0.351869 0.056950 0.600063 0.364235
C16   C     C_R   0.499024 0.499056 0.282113 0.963942
C17   C     C_R   0.502044 0.500892 0.717781 0.924482
C18   C     C_1   0.499657 0.497454 0.161520 -0.137905
C19   C     C_1   0.502607 0.502305 0.838312 -0.204653
C20   C     C_1   0.500761 0.498487 0.059211 0.014026
C21   C     C_1   0.502064 0.501011 0.940577 -0.003045
C22   C     C_R   0.820019 0.502614 0.380424 0.357510
C23   C     C_R   0.913785 0.510863 0.386170 -0.066928
C24   C     C_R   0.178507 0.509225 0.617405 0.412737
C25   C     C_R   0.768827 0.493269 0.485729 -0.199450
C26   C     C_R   0.231390 0.504394 0.512230 -0.196634
C27   C     C_R   0.807872 0.481141 0.590769 -0.338536
C28   C     C_R   0.193213 0.504150 0.404929 -0.349852
C29   C     C_R   0.899547 0.487055 0.597945 0.035476
C30   C     C_R   0.100956 0.512239 0.398998 0.036989
C31   C     C_R   0.953172 0.501243 0.495365 -0.029861
C32   C     C_R   0.046473 0.504791 0.502018 -0.044672
C33   C     C_3   0.845310 0.546599 0.853313 0.107798
C34   C     C_R   0.085549 0.498926 0.611338 -0.069811
C35   C     C_3   0.908997 0.604209 0.925216 -0.328810
C36   C     C_3   0.860091 0.689743 0.985222 -0.947104
C37   C     C_3   0.151511 0.621636 0.177298 0.078949
C38   C     C_3   0.087053 0.688893 0.118430 -0.347301
C39   C     C_3   0.133066 0.778238 0.079557 -0.937586
C40   C     C_3   0.708212 0.767947 0.552457 0.164740
C41   C     C_3   0.808088 0.748167 0.522444 -0.293190
C42   C     C_3   0.864702 0.770969 0.625729 -1.012531
C43   C     C_3   0.395201 0.273247 0.745745 0.184242
C44   C     C_3   0.338523 0.217331 0.832871 -0.331852
C45   C     C_R   0.938383 0.479648 0.706317 0.450981
C46   C     C_3   0.343238 0.258028 0.956763 -0.956608
C47   C     C_3   0.283213 0.775700 0.471959 0.175413
C48   C     C_3   0.186793 0.763817 0.521155 -0.248993
C49   C     C_3   0.118582 0.818004 0.451852 -1.013325
C50   C     C_3   0.562568 0.231979 0.239188 0.162623
C51   C     C_3   0.599961 0.149404 0.160548 -0.361251
C52   C     C_3   0.562554 0.151135 0.039776 -1.005103
C53   C     C_3   0.303792 0.923692 0.792239 0.132864
C54   C     C_3   0.339245 0.829600 0.836666 -0.310644
C55   C     C_3   0.366278 0.839461 0.962531 -1.033644
C56   C     C_R   0.062287 0.527650 0.292166 0.474150
C57   C     C_3   0.787397 0.091851 0.441521 0.120295
C58   C     C_3   0.783478 0.188010 0.506341 -0.319819
C59   C     C_3   0.857842 0.195202 0.591998 -0.954359
C60   C     C_3   0.708228 0.896516 0.216882 0.120972
C61   C     C_3   0.631745 0.835959 0.174579 -0.341727
C62   C     C_3   0.627723 0.836639 0.042392 -0.976974
C63   C     C_3   0.224926 0.130617 0.540842 0.148653
C64   C     C_3   0.152481 0.205257 0.579294 -0.307348
C65   C     C_3   0.104891 0.243911 0.475471 -0.955848
C66   C     C_R   0.030852 0.482674 0.711313 -0.212834
C67   C     C_R   0.969447 0.529932 0.287691 -0.221496
C68   C     C_R   0.576383 0.797303 0.466928 0.493151
H1    H     H_    0.765135 0.468969 0.667682 0.175864
H2    H     H_    0.964694 0.629581 0.867599 0.229935
H3    H     H_    0.833544 0.737490 0.919338 0.248593
H4    H     H_    0.907002 0.729767 0.038027 0.260374
H5    H     H_    0.803780 0.666977 0.043552 0.318925
H6    H     H_    0.214104 0.612112 0.121127 0.195402
H7    H     H_    0.171533 0.653489 0.261226 0.106107
H8    H     H_    0.062175 0.652543 0.040555 0.268645
H9    H     H_    0.029168 0.708503 0.179734 0.200239
H10   H     H_    0.163352 0.814495 0.154027 0.248377
H11   H     H_    0.083189 0.827198 0.042673 0.267634
H12   H     H_    0.236532 0.502109 0.326185 0.176296
H13   H     H_    0.186166 0.759841 0.011077 0.292728
H14   H     H_    0.685674 0.721831 0.624415 0.125479
H15   H     H_    0.700693 0.842793 0.585225 0.102776
H16   H     H_    0.819100 0.673010 0.496914 0.227449
H17   H     H_    0.830857 0.790914 0.447627 0.256912
H18   H     H_    0.866162 0.848655 0.641067 0.270243
H19   H     H_    0.934287 0.742722 0.607862 0.276283
H20   H     H_    0.836807 0.738162 0.705479 0.261572
H21   H     H_    0.380883 0.348692 0.768616 0.226335
H22   H     H_    0.468002 0.258413 0.758188 0.092753
H23   H     H_    0.058836 0.470516 0.794596 0.239266
H24   H     H_    0.267111 0.219751 0.810020 0.278385
H25   H     H_    0.363867 0.142954 0.830431 0.204898
H26   H     H_    0.413598 0.271497 0.977197 0.258804
H27   H     H_    0.314556 0.207724 0.019948 0.262320
H28   H     H_    0.304057 0.325824 0.966732 0.313824
H29   H     H_    0.296749 0.725591 0.396645 0.104669
H30   H     H_    0.288528 0.848404 0.437757 0.104633
H31   H     H_    0.170707 0.688133 0.519246 0.206409
H32   H     H_    0.179685 0.789343 0.613321 0.281033
H33   H     H_    0.129117 0.895171 0.459794 0.273109
H34   H     H_    0.943094 0.548958 0.206228 0.218528
H35   H     H_    0.049654 0.803875 0.485992 0.275327
H36   H     H_    0.124808 0.795663 0.358786 0.260200
H37   H     H_    0.572228 0.297629 0.190423 0.204335
H38   H     H_    0.488379 0.226246 0.254575 0.094884
H39   H     H_    0.674287 0.152453 0.151440 0.267816
H40   H     H_    0.580813 0.081768 0.199503 0.208761
H41   H     H_    0.489446 0.138669 0.046277 0.272637
H42   H     H_    0.595680 0.093842 0.983892 0.268170
H43   H     H_    0.575248 0.219788 0.998398 0.276685
H44   H     H_    0.238899 0.942631 0.839957 0.164542
H45   H     H_    0.722458 0.353578 0.257600 0.380296
H46   H     H_    0.350876 0.980478 0.814276 0.107902
H47   H     H_    0.286231 0.776563 0.830637 0.263050
H48   H     H_    0.398955 0.804157 0.781930 0.242193
H49   H     H_    0.424091 0.886737 0.968046 0.275901
H50   H     H_    0.386245 0.768977 0.994459 0.275754
H51   H     H_    0.309521 0.869328 0.019364 0.271579
H52   H     H_    0.854176 0.082337 0.394805 0.164591
H53   H     H_    0.782594 0.033602 0.505028 0.118085
H54   H     H_    0.790401 0.245275 0.442504 0.255126
H55   H     H_    0.717820 0.198258 0.555516 0.217437
H56   H     H_    0.338253 0.611273 0.815593 0.366190
H57   H     H_    0.849440 0.141559 0.660091 0.264820
H58   H     H_    0.854952 0.266557 0.634665 0.292747
H59   H     H_    0.924468 0.183771 0.545824 0.268036
H60   H     H_    0.772442 0.867460 0.175537 0.169169
H61   H     H_    0.701119 0.970043 0.186611 0.146737
H62   H     H_    0.642016 0.762117 0.202323 0.289453
H63   H     H_    0.566145 0.863632 0.213144 0.198489
H64   H     H_    0.612958 0.909430 0.013566 0.261942
H65   H     H_    0.573735 0.790083 0.014552 0.278504
H66   H     H_    0.692335 0.810261 0.999988 0.269623
H67   H     H_    0.787469 0.526509 0.911110 0.216257
H68   H     H_    0.192389 0.067171 0.505043 0.122141
H69   H     H_    0.268687 0.160777 0.470459 0.139011
H70   H     H_    0.102471 0.173620 0.640432 0.218405
H71   H     H_    0.183500 0.264959 0.625494 0.264171
H72   H     H_    0.153072 0.280558 0.416721 0.282946
H73   H     H_    0.051034 0.295504 0.506790 0.277811
H74   H     H_    0.074334 0.185703 0.426125 0.256666
H75   H     H_    0.816866 0.591228 0.785296 0.102794
H76   H     H_    0.937814 0.558551 0.991697 0.265689
N1    N     N_R   0.500000 0.750030 0.500000 -0.196686
N2    N     N_R   0.500000 0.249970 0.500000 -0.204219
O1    O     O_R   0.367850 0.580280 0.500030 -0.566321
O2    O     O_2   0.825604 0.468808 0.142112 -0.336335
O3    O     O_3   0.687107 0.413779 0.256403 -0.555352
O4    O     O_2   0.160053 0.603477 0.823897 -0.360980
O5    O     O_2   0.239914 0.449995 0.818703 -0.356986
O6    O     O_3   0.321409 0.594971 0.735529 -0.546874
O7    O     O_3   0.887836 0.461870 0.807427 -0.633590
O8    O     O_3   0.113975 0.531494 0.188863 -0.628078
O9    O     O_3   0.658013 0.748805 0.453120 -0.555616
O10   O     O_3   0.369445 0.258628 0.629657 -0.598061
O11   O     O_3   0.344516 0.756145 0.559529 -0.553393
O12   O     O_R   0.632150 0.419720 0.499970 -0.593533
O13   O     O_3   0.609981 0.239876 0.343329 -0.594347
O14   O     O_3   0.287713 0.914723 0.672006 -0.617252
O15   O     O_3   0.721730 0.089449 0.356894 -0.629459
O16   O     O_3   0.715445 0.893264 0.339108 -0.623472
O17   O     O_3   0.273660 0.105453 0.638265 -0.629259
O18   O     O_R   0.632150 0.580280 0.499970 -0.581099
O19   O     O_R   0.367850 0.419720 0.500030 -0.595229
O20   O     O_R   0.500010 0.580270 0.334450 -0.611308
O21   O     O_R   0.499990 0.419730 0.665550 -0.647615
O22   O     O_R   0.499990 0.580270 0.665550 -0.591642
O23   O     O_R   0.500010 0.419730 0.334450 -0.610214
O24   O     O_2   0.719257 0.589999 0.226558 -0.306035
S1    S     S_3+6 0.764752 0.496257 0.246244 -0.018330
S2    S     S_3+6 0.224737 0.538795 0.753194 -0.040772
Zn1   Zn    Zn3+2 0.500000 0.607200 0.500000 1.025788
Zn2   Zn    Zn3+2 0.500000 0.392800 0.500000 0.997676

loop_
_geom_bond_atom_site_label_1
_geom_bond_atom_site_label_2
_ccdc_geom_bond_type
C37   H6    S    
C2    N2    A    
C47   O11   S    
C27   C29   A    
C41   C42   S    
C35   C36   S    
C68   O9    S    
C34   C66   A    
C49   H36   S    
C64   H70   S    
C53   C54   S    
C33   H75   S    
C59   H58   S    
C63   O17   S    
C58   H55   S    
C43   H21   S    
C47   H30   S    
C62   H65   S    
C15   O17   S    
C19   C21   T    
C24   C26   A    
C5    C11   A    
C49   H33   S    
C38   C39   S    
O6    S2    S    
C33   O7    S    
C4    O13   S    
O24   S1    D    
C59   H59   S    
O2    S1    D    
C23   C67   A    
C44   H25   S    
C17   C19   S    
C7    C68   A    
C65   H72   S    
C11   C15   A    
C16   O23   A    
O12   Zn2   S    
C7    C14   A    
O4    S2    D    
C46   H27   S    
C47   C48   S    
C35   H2    S    
C16   O20   A    
C51   H40   S    
C53   O14   S    
C22   C25   A    
C54   H48   S    
C50   H37   S    
C60   O16   S    
O23   Zn2   S    
C40   O9    S    
C42   H18   S    
C1    O19   A    
C9    C10   A    
C22   S1    S    
C44   H24   S    
C36   H3    S    
C35   H76   S    
H56   O6    S    
C13   C14   A    
C63   H69   S    
C40   H15   S    
C45   O7    S    
C24   S2    S    
C44   C46   S    
C11   O14   S    
O22   Zn1   S    
C48   H32   S    
C58   H54   S    
C43   H22   S    
C51   C52   S    
C39   H10   S    
C62   H64   S    
C60   H60   S    
C39   H13   S    
C56   O8    S    
C17   O21   A    
C38   H8    S    
C52   H43   S    
C23   C31   A    
C58   C59   S    
C41   H16   S    
C30   C56   A    
C24   C34   A    
O5    S2    D    
C29   C45   A    
C60   C61   S    
C39   H11   S    
C14   O16   S    
C43   C44   S    
C5    C9    A    
C37   C38   S    
H45   O3    S    
C12   O18   A    
C40   H14   S    
C65   H73   S    
C33   H67   S    
C31   C32   A    
C46   H26   S    
C52   H42   S    
C4    N2    A    
C54   H47   S    
C50   C51   S    
C46   H28   S    
O18   Zn1   S    
C16   C18   S    
C61   H62   S    
O21   Zn2   S    
C53   H44   S    
C8    C10   A    
C48   C49   S    
N1    Zn1   S    
C3    N1    A    
C8    C15   A    
C57   H52   S    
C1    C26   S    
C1    O1    A    
C4    C6    A    
C42   H20   S    
C43   O10   S    
C53   H46   S    
C3    O11   S    
C55   H49   S    
C7    C9    A    
C48   H31   S    
C54   C55   S    
C40   C41   S    
O20   Zn1   S    
C2    O10   S    
O3    S1    S    
C37   O8    S    
C2    C8    A    
C3    C5    A    
C17   O22   A    
C27   H1    S    
C60   H61   S    
C49   H35   S    
O1    Zn1   S    
C13   O15   S    
C66   H23   S    
C38   H9    S    
C50   O13   S    
C25   C27   A    
C56   C67   A    
C41   H17   S    
C26   C28   A    
C47   H29   S    
C12   C25   S    
C63   H68   S    
C62   H66   S    
C28   C30   A    
O19   Zn2   S    
C29   C31   A    
C59   H57   S    
C64   C65   S    
C6    C13   A    
C30   C32   A    
C65   H74   S    
C57   C58   S    
C52   H41   S    
N2    Zn2   S    
C33   C35   S    
C18   C20   T    
C37   H7    S    
C61   C62   S    
C28   H12   S    
C6    C10   A    
C61   H63   S    
C57   H53   S    
C63   C64   S    
C55   H51   S    
C57   O15   S    
C20   C21   S    
C51   H39   S    
C45   C66   A    
C50   H38   S    
C22   C23   A    
C42   H19   S    
C12   O12   A    
C36   H5    S    
C55   H50   S    
C68   N1    A    
C36   H4    S    
C67   H34   S    
C32   C34   A    
C64   H71   S    
