data_mof_unit_43681.cif
_audit_creation_date              2012-12-11T15:56:30-0500
_audit_creation_method            fapswitch 2.2
_symmetry_space_group_name_H-M    P1
_symmetry_Int_Tables_number       1
_space_group_crystal_system       triclinic
_cell_length_a                    17.392463
_cell_length_b                    24.312553
_cell_length_c                    14.966148
_cell_angle_alpha                 89.939332
_cell_angle_beta                  126.019535
_cell_angle_gamma                 89.99956
_cell_volume                      5118.601725

loop_
_atom_site_label
_atom_site_type_symbol
_atom_type_description
_atom_site_fract_x
_atom_site_fract_y
_atom_site_fract_z
_atom_type_partial_charge
C1    C     C_R   0.307545 0.122742 0.906986 -0.131005
C2    C     C_R   0.555562 0.152970 0.908809 -0.154176
C3    C     C_R   0.810995 0.363850 0.999588 0.011781
C4    C     C_R   0.569282 0.000208 0.370481 0.003762
C5    C     C_R   0.069366 0.500194 0.370524 0.003638
C6    C     C_R   0.191092 0.999599 0.637181 0.038500
C7    C     C_R   0.690970 0.500463 0.637283 0.038624
C8    C     C_R   0.522712 0.046486 0.756170 -0.142371
C9    C     C_R   0.523921 0.954522 0.756340 -0.153535
C10   C     C_R   0.022705 0.546483 0.756156 -0.142301
C11   C     C_R   0.023894 0.454517 0.756313 -0.153596
C12   C     C_R   0.769504 0.953973 0.247443 -0.142448
C13   C     C_R   0.056332 0.347354 0.908675 -0.151417
C14   C     C_R   0.769228 0.046428 0.248099 -0.134557
C15   C     C_R   0.269256 0.453546 0.248086 -0.129814
C16   C     C_R   0.269455 0.545993 0.247294 -0.147171
C17   C     C_1   0.099669 0.873745 0.882961 0.031837
C18   C     C_1   0.098200 0.127310 0.875973 0.028095
C19   C     C_1   0.599384 0.373648 0.881861 0.028251
C20   C     C_1   0.598507 0.627139 0.877363 0.031850
C21   C     C_3   0.587759 0.152765 0.492778 0.282751
C22   C     C_3   0.514791 0.197145 0.422214 -0.957889
C23   C     C_3   0.710071 0.872005 0.563698 0.277736
C24   C     C_R   0.055586 0.652981 0.908868 -0.154559
C25   C     C_3   0.684985 0.813701 0.518549 -0.952447
C26   C     C_3   0.088406 0.652729 0.493184 0.282413
C27   C     C_3   0.015748 0.697165 0.422200 -0.957484
C28   C     C_3   0.209520 0.371698 0.563819 0.277044
C29   C     C_3   0.184134 0.313487 0.518193 -0.952318
C30   C     C_R   0.555123 0.000953 0.731722 0.070167
C31   C     C_R   0.055102 0.500945 0.731699 0.070176
C32   C     C_R   0.824452 0.000386 0.271977 0.030361
C33   C     C_R   0.324429 0.499571 0.271796 0.030203
C34   C     C_R   0.615561 0.184764 0.000516 0.009581
C35   C     C_R   0.616702 0.815537 0.000551 0.008411
C36   C     C_R   0.115626 0.684745 0.000630 0.009446
C37   C     C_R   0.307926 0.876662 0.907075 -0.133378
C38   C     C_R   0.116633 0.315518 0.000422 0.008611
C39   C     C_3   0.033754 0.949085 0.487269 -0.164467
C40   C     C_3   0.021058 0.036084 0.516784 -0.150533
C41   C     C_3   0.521378 0.463268 0.516277 -0.150568
C42   C     C_3   0.532936 0.550683 0.487972 -0.163863
C43   C     C_3   0.955118 0.985962 0.471786 -0.131740
C44   C     C_3   0.454761 0.513142 0.471873 -0.132573
C45   C     C_3   0.925644 0.000604 0.355820 0.185004
C46   C     C_3   0.425596 0.499342 0.355760 0.184789
C47   C     C_3   0.003319 0.963654 0.370077 -0.160471
C48   C     C_R   0.807640 0.622884 0.907092 -0.130662
C49   C     C_3   0.991128 0.050904 0.400233 -0.169060
C50   C     C_3   0.491727 0.449284 0.399554 -0.170744
C51   C     C_3   0.502826 0.536954 0.370652 -0.158730
C52   C     C_3   0.071397 0.014073 0.416924 -0.148163
C53   C     C_3   0.571562 0.486783 0.416875 -0.148570
C54   C     C_R   0.401476 0.876390 0.092380 -0.138997
C55   C     C_R   0.400881 0.122731 0.092272 -0.141854
C56   C     C_R   0.901381 0.376440 0.092309 -0.139100
C57   C     C_R   0.900980 0.622773 0.092354 -0.141896
C58   C     C_3   0.099275 0.999328 0.531944 0.185640
C59   C     C_R   0.807833 0.376797 0.906982 -0.133605
C60   C     C_3   0.599138 0.500701 0.532040 0.186181
C61   C     C_3   0.253749 0.821044 0.104279 -0.393085
C62   C     C_3   0.250068 0.177343 0.101681 -0.385828
C63   C     C_3   0.753183 0.321261 0.103808 -0.392953
C64   C     C_3   0.750792 0.677605 0.102308 -0.385973
C65   C     C_3   0.700156 0.270863 0.104707 -0.411526
C66   C     C_3   0.699877 0.728869 0.104360 -0.412206
C67   C     C_3   0.200582 0.770708 0.105088 -0.411548
C68   C     C_3   0.199299 0.228664 0.103845 -0.412141
C69   C     C_3   0.799536 0.265397 0.999906 -0.433744
C70   C     C_R   0.647712 0.152537 0.092086 -0.154218
C71   C     C_3   0.801271 0.733948 0.002828 -0.432327
C72   C     C_3   0.299400 0.765304 0.999559 -0.433703
C73   C     C_3   0.301476 0.233853 0.003323 -0.432428
C74   C     C_3   0.147222 0.821134 0.894455 -0.066800
C75   C     C_3   0.147659 0.179801 0.892230 -0.067087
C76   C     C_3   0.647190 0.321044 0.893989 -0.065977
C77   C     C_3   0.647644 0.679655 0.892810 -0.067978
C78   C     C_3   0.252740 0.819783 0.999473 0.326027
C79   C     C_3   0.252244 0.179584 0.999133 0.319428
C80   C     C_3   0.752582 0.319868 0.999284 0.326319
C81   C     C_R   0.648381 0.847554 0.092176 -0.154684
C82   C     C_3   0.752415 0.679666 0.999361 0.319137
C83   C     C_3   0.661354 0.235351 0.000064 0.385113
C84   C     C_3   0.662092 0.764719 0.000174 0.383481
C85   C     C_3   0.161463 0.735309 0.000233 0.385794
C86   C     C_3   0.161975 0.264678 0.999976 0.382746
C87   C     C_3   0.744770 0.216137 0.997572 -0.394275
C88   C     C_3   0.746200 0.783504 0.998748 -0.394852
C89   C     C_3   0.244656 0.716067 0.997334 -0.394513
C90   C     C_3   0.246399 0.283435 0.999149 -0.394646
C91   C     C_3   0.592452 0.271919 0.897220 -0.461946
C92   C     C_R   0.147786 0.652498 0.092166 -0.153976
C93   C     C_3   0.593076 0.728608 0.896774 -0.461182
C94   C     C_3   0.092492 0.771987 0.897623 -0.462679
C95   C     C_3   0.093076 0.228730 0.896239 -0.460411
C96   C     C_3   0.613479 0.055885 0.639915 -0.555987
C97   C     C_3   0.634185 0.954236 0.656177 -0.534354
C98   C     C_3   0.113575 0.555844 0.640000 -0.556124
C99   C     C_3   0.134122 0.454187 0.656152 -0.534875
C100  C     C_R   0.553558 0.045531 0.306322 -0.101380
C101  C     C_R   0.549681 0.954522 0.305169 -0.130496
C102  C     C_R   0.053616 0.545522 0.306353 -0.102343
C103  C     C_R   0.148307 0.347513 0.092087 -0.155044
C104  C     C_R   0.049718 0.454516 0.305179 -0.129621
C105  C     C_3   0.607770 0.058730 0.533065 0.437701
C106  C     C_3   0.645171 0.956442 0.560635 0.431201
C107  C     C_3   0.108006 0.558673 0.533238 0.438638
C108  C     C_3   0.145070 0.456343 0.560578 0.431088
C109  C     C_3   0.467852 0.994457 0.533877 -0.399297
C110  C     C_3   0.967857 0.494496 0.533852 -0.399500
C111  C     C_3   0.568777 0.001445 0.643425 0.296015
C112  C     C_3   0.068779 0.501429 0.643422 0.296305
C113  C     C_3   0.575117 0.001033 0.473590 0.128434
C114  C     C_R   0.556364 0.847341 0.908741 -0.151808
C115  C     C_3   0.075177 0.501013 0.473626 0.128507
C116  C     C_3   0.473039 0.988941 0.436609 -0.342764
C117  C     C_3   0.973048 0.489032 0.436580 -0.342859
C118  C     C_R   0.240022 0.953776 0.697077 -0.137665
C119  C     C_R   0.240076 0.045767 0.695945 -0.150486
C120  C     C_R   0.740069 0.454275 0.696094 -0.150556
C121  C     C_R   0.739901 0.546268 0.697034 -0.137838
C122  C     C_R   0.310402 0.135342 0.999510 0.012171
C123  C     C_R   0.311130 0.863744 0.999712 0.011778
C124  C     C_R   0.810542 0.635445 0.999655 0.012190
H1    H     H_    0.250544 0.130363 0.821528 0.087861
H2    H     H_    0.971858 0.092482 0.362239 0.105389
H3    H     H_    0.690987 0.834629 0.177572 0.087760
H4    H     H_    0.190249 0.665219 0.177600 0.084515
H5    H     H_    0.190810 0.334507 0.177430 0.087467
H6    H     H_    0.513060 0.834790 0.823247 0.086268
H7    H     H_    0.511841 0.165832 0.823431 0.087237
H8    H     H_    0.012970 0.334828 0.823168 0.086190
H9    H     H_    0.011906 0.665864 0.823501 0.087351
H10   H     H_    0.905913 0.974487 0.493175 0.109746
H11   H     H_    0.405319 0.523864 0.493296 0.110558
H12   H     H_    0.643156 0.153763 0.477554 0.070041
H13   H     H_    0.472947 0.407897 0.360948 0.105834
H14   H     H_    0.621572 0.162820 0.581046 0.083757
H15   H     H_    0.548937 0.238268 0.448496 0.210980
H16   H     H_    0.485654 0.190989 0.334215 0.241417
H17   H     H_    0.455952 0.195657 0.431432 0.262732
H18   H     H_    0.748087 0.870088 0.654913 0.093237
H19   H     H_    0.757808 0.889957 0.544623 0.087600
H20   H     H_    0.647982 0.814253 0.427692 0.250037
H21   H     H_    0.750804 0.788731 0.557504 0.212935
H22   H     H_    0.637803 0.794533 0.537033 0.257396
H23   H     H_    0.144168 0.653586 0.478537 0.069751
H24   H     H_    0.492366 0.566802 0.308196 0.109340
H25   H     H_    0.121791 0.662839 0.581330 0.083834
H26   H     H_    0.049988 0.738259 0.448732 0.210793
H27   H     H_    0.987188 0.690991 0.334385 0.241242
H28   H     H_    0.956474 0.695772 0.430668 0.262918
H29   H     H_    0.247068 0.369629 0.654938 0.093273
H30   H     H_    0.257775 0.389544 0.545425 0.089409
H31   H     H_    0.147778 0.314185 0.427463 0.249913
H32   H     H_    0.249765 0.288300 0.557569 0.212968
H33   H     H_    0.136260 0.294458 0.535769 0.257678
H34   H     H_    0.122253 0.025464 0.398074 0.109486
H35   H     H_    0.622635 0.476118 0.397973 0.108569
H36   H     H_    0.327375 0.819686 0.181116 0.151977
H37   H     H_    0.322720 0.176394 0.179844 0.159681
H38   H     H_    0.826711 0.320099 0.180840 0.151751
H39   H     H_    0.823602 0.676904 0.180246 0.159965
H40   H     H_    0.220595 0.859581 0.106713 0.163485
H41   H     H_    0.251121 0.868712 0.821756 0.086660
H42   H     H_    0.213357 0.139461 0.099856 0.166676
H43   H     H_    0.719694 0.359763 0.105758 0.163687
H44   H     H_    0.714484 0.639677 0.101119 0.166504
H45   H     H_    0.141315 0.784310 0.108591 0.154951
H46   H     H_    0.139388 0.216102 0.106949 0.155406
H47   H     H_    0.640739 0.284409 0.107974 0.155100
H48   H     H_    0.640185 0.716251 0.107836 0.155253
H49   H     H_    0.750758 0.246896 0.181006 0.149524
H50   H     H_    0.751546 0.752339 0.180869 0.155003
H51   H     H_    0.251174 0.746647 0.181248 0.149831
H52   H     H_    0.750726 0.630756 0.821744 0.087682
H53   H     H_    0.250941 0.252002 0.180567 0.154762
H54   H     H_    0.874351 0.262861 0.075145 0.168677
H55   H     H_    0.875243 0.735926 0.079802 0.167751
H56   H     H_    0.374321 0.762679 0.074554 0.168617
H57   H     H_    0.375295 0.235704 0.080588 0.167741
H58   H     H_    0.793972 0.189146 0.069801 0.159661
H59   H     H_    0.795026 0.810650 0.070682 0.159432
H60   H     H_    0.293925 0.689029 0.069446 0.159476
H61   H     H_    0.295138 0.310495 0.071280 0.159527
H62   H     H_    0.145048 0.816297 0.819183 0.089182
H63   H     H_    0.750946 0.369069 0.821564 0.086707
H64   H     H_    0.147727 0.185985 0.818696 0.090725
H65   H     H_    0.645341 0.316055 0.818956 0.088672
H66   H     H_    0.647273 0.685656 0.818941 0.091059
H67   H     H_    0.431184 0.868486 0.177754 0.092221
H68   H     H_    0.430202 0.129794 0.177790 0.107130
H69   H     H_    0.931043 0.368510 0.177665 0.092228
H70   H     H_    0.930349 0.629781 0.177896 0.107242
H71   H     H_    0.032621 0.785680 0.900088 0.159853
H72   H     H_    0.032911 0.214827 0.897964 0.160117
H73   H     H_    0.532458 0.285637 0.899429 0.159994
H74   H     H_    0.051987 0.907321 0.524424 0.103764
H75   H     H_    0.533115 0.714727 0.898910 0.159912
H76   H     H_    0.560943 0.248406 0.819460 0.136854
H77   H     H_    0.561565 0.752418 0.819256 0.136452
H78   H     H_    0.060810 0.748563 0.819732 0.137071
H79   H     H_    0.061858 0.252665 0.818917 0.136266
H80   H     H_    0.801768 0.263343 0.927093 0.154872
H81   H     H_    0.806117 0.736200 0.931918 0.157415
H82   H     H_    0.301276 0.763319 0.926489 0.154639
H83   H     H_    0.306773 0.236201 0.932755 0.157622
H84   H     H_    0.717679 0.191634 0.921566 0.155208
H85   H     H_    0.029871 0.065525 0.578891 0.112713
H86   H     H_    0.719737 0.807707 0.922471 0.156968
H87   H     H_    0.217350 0.691606 0.921223 0.155010
H88   H     H_    0.220258 0.307720 0.923054 0.157140
H89   H     H_    0.576129 0.092097 0.641922 0.183715
H90   H     H_    0.603762 0.913859 0.655303 0.193521
H91   H     H_    0.076205 0.592066 0.641942 0.183710
H92   H     H_    0.103669 0.413828 0.655309 0.193471
H93   H     H_    0.688839 0.058865 0.713533 0.134493
H94   H     H_    0.705286 0.957498 0.736916 0.135280
H95   H     H_    0.188908 0.558808 0.713688 0.134386
H96   H     H_    0.530501 0.433311 0.577941 0.111520
H97   H     H_    0.205239 0.457438 0.736875 0.135352
H98   H     H_    0.680281 0.067016 0.555184 -0.040450
H99   H     H_    0.718812 0.970409 0.594214 -0.030420
H100  H     H_    0.180586 0.566850 0.555481 -0.041657
H101  H     H_    0.218761 0.470189 0.594134 -0.029942
H102  H     H_    0.422961 0.030678 0.520538 0.179452
H103  H     H_    0.431685 0.957352 0.536512 0.155418
H104  H     H_    0.922992 0.530721 0.520574 0.179833
H105  H     H_    0.931658 0.457388 0.536419 0.154954
H106  H     H_    0.572942 0.087564 0.332273 0.129002
H107  H     H_    0.550639 0.592248 0.525757 0.104641
H108  H     H_    0.559255 0.911796 0.327991 0.162976
H109  H     H_    0.073054 0.587551 0.332321 0.129367
H110  H     H_    0.059293 0.411787 0.327971 0.163023
H111  H     H_    0.420972 0.017730 0.369917 0.188936
H112  H     H_    0.451474 0.946544 0.402373 0.178184
H113  H     H_    0.921100 0.517905 0.369999 0.189037
H114  H     H_    0.951322 0.446675 0.402166 0.178117
H115  H     H_    0.226347 0.911720 0.668168 0.082934
H116  H     H_    0.225467 0.087707 0.666029 0.091828
H117  H     H_    0.725541 0.412356 0.666287 0.089314
H118  H     H_    0.993186 0.934315 0.307193 0.109105
H119  H     H_    0.726093 0.588338 0.667972 0.085473
H120  H     H_    0.528928 0.089314 0.743374 0.093413
H121  H     H_    0.530894 0.912097 0.741071 0.094612
H122  H     H_    0.028931 0.589312 0.743361 0.093443
H123  H     H_    0.030848 0.412093 0.741034 0.094572
H124  H     H_    0.793160 0.911687 0.263525 0.099866
H125  H     H_    0.792095 0.088820 0.264299 0.093289
H126  H     H_    0.292205 0.411147 0.264426 0.094029
H127  H     H_    0.293067 0.588267 0.263286 0.099320
H128  H     H_    0.690056 0.165337 0.177467 0.084233
N1    N     N_R   0.392450 0.103580 0.942190 -0.036243
N2    N     N_R   0.525490 0.971610 0.207550 -0.045569
N3    N     N_R   0.025490 0.528390 0.207550 -0.044794
N4    N     N_R   0.025490 0.471610 0.207550 -0.045673
N5    N     N_R   0.317450 0.971190 0.792000 -0.033944
N6    N     N_R   0.317450 0.028810 0.792000 -0.033527
N7    N     N_R   0.817450 0.471190 0.792000 -0.033305
N8    N     N_R   0.817450 0.528810 0.792000 -0.034114
N9    N     N_R   0.473900 0.028390 0.792280 -0.040420
N10   N     N_R   0.473900 0.971610 0.792280 -0.039777
N11   N     N_R   0.973900 0.528390 0.792280 -0.040511
N12   N     N_R   0.392450 0.896420 0.942190 -0.036436
N13   N     N_R   0.973900 0.471610 0.792280 -0.039687
N14   N     N_R   0.682310 0.971180 0.208170 -0.039716
N15   N     N_R   0.682310 0.028820 0.208170 -0.041968
N16   N     N_R   0.182310 0.471180 0.208170 -0.039970
N17   N     N_R   0.182310 0.528820 0.208170 -0.041781
N18   N     N_R   0.606470 0.103570 0.057210 -0.031774
N19   N     N_R   0.606470 0.896430 0.057210 -0.031572
N20   N     N_R   0.106470 0.603570 0.057210 -0.031439
N21   N     N_R   0.106470 0.396430 0.057210 -0.031893
N22   N     N_R   0.549740 0.896000 0.943240 -0.031889
N23   N     N_R   0.892450 0.603580 0.942190 -0.036487
N24   N     N_R   0.549740 0.104000 0.943240 -0.032204
N25   N     N_R   0.049740 0.396000 0.943240 -0.031869
N26   N     N_R   0.049740 0.604000 0.943240 -0.032223
N27   N     N_1   0.062463 0.914994 0.873893 -0.094717
N28   N     N_1   0.059537 0.086152 0.863189 -0.092914
N29   N     N_1   0.561980 0.414892 0.872287 -0.095107
N30   N     N_1   0.560097 0.585961 0.865226 -0.092342
N31   N     N_R   0.892450 0.396420 0.942190 -0.036172
N32   N     N_R   0.450490 0.896000 0.057360 -0.037238
N33   N     N_R   0.450490 0.104000 0.057360 -0.038229
N34   N     N_R   0.950490 0.396000 0.057360 -0.037290
N35   N     N_R   0.950490 0.604000 0.057360 -0.038172
N36   N     N_R   0.525490 0.028390 0.207550 -0.044885
Ni1   Ni    Ni4+2 0.433780 0.065390 0.868430 0.209634
Ni2   Ni    Ni4+2 0.433780 0.934610 0.868430 0.208224
Ni3   Ni    Ni4+2 0.933780 0.565390 0.868430 0.209837
Ni4   Ni    Ni4+2 0.933780 0.434610 0.868430 0.208104
Ni5   Ni    Ni4+2 0.565800 0.934190 0.131570 0.206645
Ni6   Ni    Ni4+2 0.565800 0.065810 0.131570 0.202598
Ni7   Ni    Ni4+2 0.065800 0.434190 0.131570 0.207056
Ni8   Ni    Ni4+2 0.065800 0.565810 0.131570 0.202086
O1    O     O_3   0.542112 0.100815 0.464197 -0.625378
O2    O     O_3   0.625749 0.903325 0.512996 -0.642702
O3    O     O_3   0.042549 0.600842 0.464416 -0.625385
O4    O     O_3   0.125408 0.403244 0.512821 -0.642702

loop_
_geom_bond_atom_site_label_1
_geom_bond_atom_site_label_2
_ccdc_geom_bond_type
C118  H115  S    
C63   C65   S    
C32   C45   S    
C6    C58   S    
C96   C105  S    
N23   N35   A    
C87   H58   S    
C16   N17   A    
C109  H103  S    
C75   C95   S    
N25   Ni4   S    
C67   H45   S    
N26   Ni3   S    
C77   H66   S    
C119  H116  S    
C70   N18   A    
C8    H120  S    
C105  H98   S    
C102  N3    A    
C1    C122  A    
C40   C43   S    
C31   C112  S    
C10   H122  S    
N36   Ni6   S    
C93   H77   S    
C29   H31   S    
C71   C82   S    
C42   H107  S    
C2    C34   A    
C44   H11   S    
C117  H113  S    
C88   H86   S    
C21   C22   S    
C114  H6    S    
C23   H19   S    
C42   C44   S    
C82   C124  S    
C44   C46   S    
C45   C47   S    
C52   H34   S    
C67   C85   S    
C50   C53   S    
C40   C58   S    
C4    C113  S    
C15   N16   A    
C86   C90   S    
C72   H82   S    
C22   H15   S    
C64   C66   S    
N15   Ni6   S    
C69   H54   S    
C73   H57   S    
C2    H7    S    
C106  O2    S    
C52   C58   S    
N6    Ni1   S    
C90   H61   S    
C39   H74   S    
C97   H90   S    
C41   H96   S    
C39   C47   S    
N11   N13   A    
C28   C29   S    
N20   N26   A    
N11   Ni3   S    
C26   H25   S    
C84   C88   S    
N3    Ni8   S    
N4    Ni7   S    
C35   C84   S    
C47   C52   S    
N31   Ni4   S    
C83   C91   S    
C62   C68   S    
C110  H104  S    
C77   C82   S    
C97   C111  S    
C116  H111  S    
C13   H8    S    
C26   O3    S    
C120  H117  S    
C12   N14   A    
C86   C95   S    
C121  N8    A    
C71   C88   S    
C71   H81   S    
C119  N6    A    
C108  H101  S    
C97   H94   S    
C66   H50   S    
C56   N34   A    
C75   C79   S    
C54   C123  A    
C27   H28   S    
C75   H64   S    
C14   H125  S    
C99   C108  S    
C24   C36   A    
C38   C86   S    
N14   Ni5   S    
C21   O1    S    
C108  C115  S    
C105  C113  S    
C73   C90   S    
C109  C111  S    
N9    N10   A    
C62   H37   S    
C95   H79   S    
C40   C49   S    
C68   H53   S    
N5    N6    A    
C85   C94   S    
C72   C78   S    
C37   C123  A    
C59   H63   S    
C84   C93   S    
C104  H110  S    
C5    C115  S    
N31   N34   A    
C7    C121  A    
C53   C60   S    
C63   C80   S    
N8    Ni3   S    
C19   N29   T    
C96   C111  S    
C98   C112  S    
C106  C113  S    
C61   H36   S    
C37   H41   S    
C39   C58   S    
C46   C51   S    
C51   C53   S    
C38   C103  A    
N18   Ni6   S    
C43   C45   S    
C61   C67   S    
C106  H99   S    
C64   C82   S    
C9    N10   A    
C73   C79   S    
C78   C123  S    
N22   Ni2   S    
C13   C38   A    
C23   O2    S    
C9    C30   A    
N24   Ni1   S    
C62   H42   S    
C27   H26   S    
C28   H29   S    
C25   H20   S    
C91   H76   S    
C70   H128  S    
C6    C119  A    
C14   N15   A    
C107  H100  S    
C121  H119  S    
C59   N31   A    
C76   C80   S    
C41   C60   S    
C47   H118  S    
C109  H102  S    
C100  N36   A    
C57   H70   S    
C37   N12   A    
C107  O3    S    
N7    Ni4   S    
C101  H108  S    
C110  C112  S    
C87   H84   S    
C76   C91   S    
C69   H80   S    
C72   H56   S    
C8    N9    A    
C28   O4    S    
N3    N4    A    
C48   H52   S    
N19   N22   A    
C83   C87   S    
C98   H91   S    
C99   H97   S    
C61   H40   S    
C74   C94   S    
N2    Ni5   S    
C57   N35   A    
C89   H87   S    
C26   C27   S    
C18   C75   S    
C20   C77   S    
C19   C76   S    
C93   H75   S    
C92   N20   A    
C99   H92   S    
C96   H93   S    
C22   H16   S    
C55   N33   A    
C10   N11   A    
N21   Ni7   S    
N19   Ni5   S    
C109  C116  S    
C68   H46   S    
C10   C31   A    
C67   H51   S    
C115  C117  S    
N9    Ni1   S    
N33   Ni6   S    
C25   H22   S    
C94   H78   S    
C9    H121  S    
C34   C70   A    
C69   C87   S    
C36   C92   A    
C73   H83   S    
C98   H95   S    
C81   H3    S    
C33   C46   S    
C20   N30   T    
C21   H14   S    
C64   H39   S    
C3    C80   S    
C110  C117  S    
C16   H127  S    
C1    N1    A    
C79   C122  S    
C53   H35   S    
C94   H71   S    
C103  N21   A    
C85   C89   S    
C29   H33   S    
C12   H124  S    
N21   N25   A    
C96   H89   S    
C43   H10   S    
C49   H2    S    
C110  H105  S    
C45   C49   S    
C49   C52   S    
C4    C101  A    
C116  H112  S    
C103  H5    S    
C17   N27   T    
N20   Ni8   S    
C29   H32   S    
C18   N28   T    
C97   C106  S    
C117  H114  S    
N12   N32   A    
C41   C44   S    
C41   C50   S    
C114  N22   A    
C5    C102  A    
C27   H27   S    
C7    C120  A    
C14   C32   A    
C15   H126  S    
C36   C85   S    
C120  N7    A    
C8    C30   A    
C55   H68   S    
C100  H106  S    
C101  N2    A    
C64   H44   S    
N23   Ni3   S    
C57   C124  A    
C90   H88   S    
C40   H85   S    
C77   C93   S    
N34   Ni7   S    
C26   H23   S    
C98   C107  S    
N16   N17   A    
C102  H109  S    
C74   C78   S    
C74   H62   S    
C24   H9    S    
C63   H38   S    
C68   C86   S    
C35   C81   A    
C50   H13   S    
C13   N25   A    
C118  N5    A    
C65   H47   S    
C51   H24   S    
C66   H48   S    
C1    H1    S    
N1    N33   A    
C65   C83   S    
C81   N19   A    
N35   Ni8   S    
C35   C114  A    
C71   H55   S    
N17   Ni8   S    
C76   H65   S    
N13   Ni4   S    
C23   H18   S    
C21   H12   S    
C42   C51   S    
C113  C116  S    
C5    C104  A    
C11   C31   A    
C12   C32   A    
C28   H30   S    
C105  O1    S    
C92   H4    S    
N5    Ni2   S    
C108  O4    S    
C95   H72   S    
C54   N32   A    
C54   H67   S    
C89   H60   S    
N18   N24   A    
C62   C79   S    
C42   C60   S    
C88   H59   S    
C39   C43   S    
C66   C84   S    
N10   Ni2   S    
C16   C33   A    
C3    C56   A    
C61   C78   S    
C11   N13   A    
N12   Ni2   S    
C107  C115  S    
C7    C60   S    
C4    C100  A    
C17   C74   S    
C34   C83   S    
N7    N8    A    
C65   H49   S    
N1    Ni1   S    
C48   C124  A    
N2    N36   A    
C46   C50   S    
C104  N4    A    
C30   C111  S    
C11   H123  S    
N16   Ni7   S    
C72   C89   S    
C24   N26   A    
N32   Ni5   S    
C99   C112  S    
C22   H17   S    
C63   H43   S    
C6    C118  A    
C23   C25   S    
C55   C122  A    
N14   N15   A    
C2    N24   A    
C56   H69   S    
C91   H73   S    
C48   N23   A    
C69   C80   S    
C25   H21   S    
C15   C33   A    
C3    C59   A    
