data_mof_unit_66144.cif
_audit_creation_date              2012-10-26T18:40:56-0400
_audit_creation_method            fapswitch 2.2
_symmetry_space_group_name_H-M    P1
_symmetry_Int_Tables_number       1
_space_group_crystal_system       triclinic
_cell_length_a                    19.355291
_cell_length_b                    18.242398
_cell_length_c                    10.879396
_cell_angle_alpha                 89.997404
_cell_angle_beta                  92.791728
_cell_angle_gamma                 89.952579
_cell_volume                      3836.81209739

loop_
_atom_site_label
_atom_site_type_symbol
_atom_type_description
_atom_site_fract_x
_atom_site_fract_y
_atom_site_fract_z
_atom_type_partial_charge
Br1   Br    Br    0.395076 0.677041 0.300066 -0.426051
Br2   Br    Br    0.605525 0.676545 0.699060 -0.431105
Br3   Br    Br    0.386989 0.327846 0.316318 -0.390647
Br4   Br    Br    0.613044 0.327766 0.683610 -0.401510
C1    C     C_R   0.367806 0.499952 0.499582 0.603142
C2    C     C_R   0.292607 0.499267 0.503041 0.032281
C3    C     C_R   0.964064 0.557911 0.517134 -0.171074
C4    C     C_R   0.035779 0.558462 0.518068 -0.177561
C5    C     C_R   0.072481 0.492653 0.511862 0.016951
C6    C     C_R   0.927866 0.491725 0.505932 0.079809
C7    C     C_R   0.037278 0.425184 0.503778 0.247884
C8    C     C_R   0.963756 0.424862 0.496889 0.291477
C9    C     C_R   0.457960 0.722579 0.417333 0.281284
C10   C     C_R   0.542156 0.722385 0.582675 0.280658
C11   C     C_R   0.458293 0.799659 0.415557 -0.131517
C12   C     C_R   0.632156 0.499908 0.500761 0.609003
C13   C     C_R   0.541829 0.799474 0.584739 -0.131697
C14   C     C_R   0.500054 0.839222 0.500223 -0.045345
C15   C     C_R   0.506187 0.500005 0.262723 0.621649
C16   C     C_R   0.493849 0.500020 0.737291 0.621599
C17   C     C_R   0.495321 0.960993 0.610501 -0.104651
C18   C     C_R   0.504875 0.960976 0.389958 -0.104614
C19   C     C_R   0.494580 0.038043 0.610311 -0.053084
C20   C     C_R   0.505574 0.038020 0.390094 -0.053740
C21   C     C_R   0.500058 0.077828 0.500184 0.119365
C22   C     C_R   0.500098 0.921390 0.500239 0.032411
C23   C     C_R   0.851862 0.493537 0.502881 0.077564
C24   C     C_R   0.455574 0.199827 0.418329 0.183586
C25   C     C_R   0.544464 0.199806 0.581873 0.183636
C26   C     C_R   0.455149 0.277908 0.421136 0.283077
C27   C     C_R   0.544867 0.277882 0.578922 0.283142
C28   C     C_R   0.500026 0.160563 0.500136 0.043084
C29   C     C_R   0.540992 0.633061 0.110414 0.294310
C30   C     C_R   0.459453 0.633256 0.889659 0.296187
C31   C     C_R   0.522285 0.699537 0.052513 -0.097840
C32   C     C_R   0.478388 0.699643 0.947512 -0.097729
C33   C     C_R   0.486217 0.566376 0.939062 -0.014653
C34   C     C_R   0.148417 0.495277 0.513437 0.029926
C35   C     C_R   0.514060 0.566314 0.060981 -0.016275
C36   C     C_R   0.512614 0.499610 0.128080 0.024455
C37   C     C_R   0.487497 0.499658 0.871952 0.026581
C38   C     C_R   0.504244 0.432477 0.064343 0.217117
C39   C     C_R   0.495794 0.432495 0.935678 0.219138
C40   C     C_R   0.740038 0.473305 0.398551 -0.155242
C41   C     C_R   0.262265 0.469111 0.605645 -0.085742
C42   C     C_R   0.812532 0.470769 0.397626 0.290975
C43   C     C_R   0.190527 0.467551 0.613192 0.291004
C44   C     C_R   0.818985 0.519159 0.606471 -0.155111
C45   C     C_R   0.179086 0.525010 0.410567 -0.129467
C46   C     C_R   0.746563 0.521676 0.607261 0.252464
C47   C     C_R   0.251268 0.526935 0.404220 0.248519
C48   C     C_R   0.707431 0.499126 0.502084 0.053089
Cu1   Cu    Cu3+1 0.500000 0.573360 0.500000 1.141801
Cu2   Cu    Cu3+1 0.500000 0.426640 0.500000 1.138936
H1    H     H_    0.424682 0.828610 0.349425 0.143484
H2    H     H_    0.294703 0.447754 0.681479 0.160273
H3    H     H_    0.849936 0.536145 0.687175 0.113580
H4    H     H_    0.146514 0.545474 0.334218 0.124694
H5    H     H_    0.936480 0.609399 0.523146 0.137703
H6    H     H_    0.062955 0.610313 0.525028 0.142436
H7    H     H_    0.474624 0.331620 0.085844 0.354546
H8    H     H_    0.525339 0.331571 0.914121 0.352851
H9    H     H_    0.398991 0.189010 0.266232 0.363690
H10   H     H_    0.601036 0.188988 0.734001 0.362947
H11   H     H_    0.602613 0.682747 0.230421 0.325047
H12   H     H_    0.575521 0.828283 0.650841 0.143274
H13   H     H_    0.397882 0.683242 0.769795 0.324906
H14   H     H_    0.810788 0.433742 0.229830 0.335217
H15   H     H_    0.114258 0.449231 0.720233 0.339527
H16   H     H_    0.748112 0.557195 0.775951 0.339187
H17   H     H_    0.245891 0.569709 0.240262 0.341219
H18   H     H_    0.049034 0.321622 0.540313 0.342707
H19   H     H_    0.953036 0.325396 0.435517 0.347198
H20   H     H_    0.490873 0.932233 0.696838 0.113393
H21   H     H_    0.509331 0.932202 0.303633 0.113327
H22   H     H_    0.489173 0.066649 0.696520 0.148168
H23   H     H_    0.510967 0.066604 0.303865 0.147469
H24   H     H_    0.540318 0.751356 0.090491 0.107192
H25   H     H_    0.460502 0.751550 0.909534 0.107188
H26   H     H_    0.708903 0.455820 0.318344 0.118078
N1    N     N_R   0.500000 0.683620 0.500000 -0.212742
N2    N     N_R   0.500000 0.316380 0.500000 -0.256362
O1    O     O_R   0.400190 0.561980 0.499980 -0.448181
O2    O     O_3   0.493700 0.367105 0.871457 -0.656208
O3    O     O_3   0.410764 0.160155 0.341177 -0.684496
O4    O     O_3   0.589289 0.160113 0.659093 -0.686295
O5    O     O_3   0.589560 0.631755 0.207859 -0.675899
O6    O     O_3   0.410800 0.632186 0.792341 -0.673332
O7    O     O_3   0.845885 0.447559 0.295165 -0.647633
O8    O     O_3   0.164475 0.439389 0.719348 -0.646854
O9    O     O_3   0.713122 0.543568 0.710319 -0.632663
O10   O     O_3   0.282237 0.552785 0.301169 -0.627361
O11   O     O_3   0.075979 0.361530 0.503895 -0.660285
O12   O     O_R   0.599810 0.561980 0.500020 -0.451164
O13   O     O_3   0.925799 0.361149 0.481598 -0.653172
O14   O     O_R   0.400190 0.438070 0.500040 -0.483963
O15   O     O_R   0.599810 0.438070 0.499960 -0.482014
O16   O     O_R   0.500000 0.561970 0.319650 -0.445665
O17   O     O_R   0.500000 0.561970 0.680350 -0.446072
O18   O     O_R   0.500010 0.438060 0.319710 -0.430782
O19   O     O_R   0.499990 0.438060 0.680290 -0.430163
O20   O     O_3   0.506261 0.367077 0.128556 -0.659438

loop_
_geom_bond_atom_site_label_1
_geom_bond_atom_site_label_2
_ccdc_geom_bond_type
C6    C23   S    
C23   C44   A    
C3    C6    A    
C17   C22   A    
C2    C41   A    
C11   C14   A    
C30   C33   A    
Cu2   O19   S    
H16   O9    S    
C14   C22   S    
C19   H22   S    
C16   C37   S    
C44   H3    S    
C34   C45   A    
Cu1   Cu2   S    
Cu1   O17   S    
C13   H12   S    
C29   C35   A    
C27   N2    A    
C25   C28   A    
C1    C2    S    
C1    O1    A    
C12   O15   A    
C9    N1    A    
Cu1   N1    S    
C3    H5    S    
H17   O10   S    
C31   C32   A    
C41   H2    S    
C4    C5    A    
C45   C47   A    
C46   C48   A    
C8    O13   S    
C2    C47   A    
Cu2   O14   S    
C40   C48   A    
C21   C28   S    
C44   C46   A    
H9    O3    S    
C39   O2    S    
C37   C39   A    
C10   C13   A    
Cu2   O18   S    
C18   H21   S    
C38   O20   S    
H10   O4    S    
C15   O16   A    
C40   C42   A    
H11   O5    S    
C41   C43   A    
C24   C28   A    
C20   C21   A    
C35   C36   A    
C42   O7    S    
C16   O19   A    
C17   H20   S    
C45   H4    S    
C11   H1    S    
C26   N2    A    
Br3   C26   S    
C47   O10   S    
C46   O9    S    
C9    C11   A    
C40   H26   S    
C7    C8    A    
C13   C14   A    
H13   O6    S    
Cu2   O15   S    
C30   O6    S    
C5    C7    A    
C34   C43   A    
C6    C8    A    
H18   O11   S    
C23   C42   A    
C17   C19   A    
C43   O8    S    
C18   C20   A    
Br1   C9    S    
C38   C39   A    
H19   O13   S    
H15   O8    S    
Cu2   N2    S    
C1    O14   A    
H8    O2    S    
Cu1   O12   S    
C12   C48   S    
C32   H25   S    
C15   O18   A    
Cu1   O16   S    
C31   H24   S    
C12   O12   A    
Cu1   O1    S    
C25   O4    S    
H7    O20   S    
C29   O5    S    
C24   C26   A    
C33   C35   A    
C4    H6    S    
C7    O11   S    
C16   O17   A    
C36   C38   A    
C5    C34   S    
C29   C31   A    
C30   C32   A    
C19   C21   A    
C33   C37   A    
Br2   C10   S    
Br4   C27   S    
C3    C4    A    
C15   C36   S    
C20   H23   S    
C25   C27   A    
C18   C22   A    
C24   O3    S    
C10   N1    A    
H14   O7    S    
