data_mof_unit_63417.cif
_audit_creation_date              2012-12-10T19:39:06-0500
_audit_creation_method            fapswitch 2.2
_symmetry_space_group_name_H-M    P1
_symmetry_Int_Tables_number       1
_space_group_crystal_system       triclinic
_cell_length_a                    21.593058
_cell_length_b                    21.593062
_cell_length_c                    55.797762
_cell_angle_alpha                 90.000302
_cell_angle_beta                  89.999203
_cell_angle_gamma                 89.999981
_cell_volume                      26016.2779078

loop_
_atom_site_label
_atom_site_type_symbol
_atom_type_description
_atom_site_fract_x
_atom_site_fract_y
_atom_site_fract_z
_atom_type_partial_charge
C1    C     C_R   0.499719 0.380175 0.499834 0.972707
C2    C     C_R   0.554118 0.219492 0.503496 0.097110
C3    C     C_R   0.484090 0.112188 0.300396 0.514769
C4    C     C_R   0.387811 0.984088 0.800396 0.514770
C5    C     C_R   0.015914 0.387814 0.800395 0.514769
C6    C     C_R   0.612186 0.015908 0.800395 0.514769
C7    C     C_R   0.984094 0.612189 0.800396 0.514769
C8    C     C_R   0.943881 0.491209 0.313121 -0.069780
C9    C     C_R   0.508794 0.943884 0.313120 -0.069782
C10   C     C_R   0.056117 0.508791 0.313120 -0.069780
C11   C     C_R   0.491209 0.056118 0.313121 -0.069780
C12   C     C_R   0.443881 0.991206 0.813121 -0.069782
C13   C     C_R   0.780508 0.554118 0.503497 0.097081
C14   C     C_R   0.008796 0.443883 0.813121 -0.069780
C15   C     C_R   0.556116 0.008790 0.813120 -0.069780
C16   C     C_R   0.991212 0.556119 0.813121 -0.069780
C17   C     C_R   0.999999 0.500000 0.300415 -0.206055
C18   C     C_R   0.500001 0.000001 0.300415 -0.206055
C19   C     C_R   0.499998 0.999998 0.800415 -0.206055
C20   C     C_R   0.000004 0.500001 0.800415 -0.206055
C21   C     C_R   0.543509 0.036115 0.585758 0.378962
C22   C     C_R   0.963885 0.543512 0.585758 0.378961
C23   C     C_R   0.456487 0.963886 0.585758 0.378963
C24   C     C_R   0.445883 0.780508 0.503497 0.097040
C25   C     C_R   0.036114 0.456489 0.585757 0.378963
C26   C     C_R   0.043510 0.536116 0.085757 0.378966
C27   C     C_R   0.463882 0.043511 0.085758 0.378959
C28   C     C_R   0.956486 0.463888 0.085758 0.378957
C29   C     C_R   0.536113 0.956490 0.085758 0.378967
C30   C     C_R   0.945769 0.489386 0.338341 0.569509
C31   C     C_R   0.510617 0.945771 0.338340 0.569509
C32   C     C_R   0.054229 0.510613 0.338340 0.569506
C33   C     C_R   0.489387 0.054230 0.338341 0.569508
C34   C     C_R   0.445769 0.989384 0.838341 0.569509
C35   C     C_R   0.719492 0.945884 0.003500 0.097078
C36   C     C_R   0.010618 0.445771 0.838341 0.569508
C37   C     C_R   0.554228 0.010613 0.838340 0.569508
C38   C     C_R   0.989389 0.554231 0.838341 0.569507
C39   C     C_R   0.443152 0.003738 0.737064 0.068854
C40   C     C_R   0.996262 0.443155 0.737063 0.068854
C41   C     C_R   0.556844 0.996258 0.737063 0.068854
C42   C     C_R   0.003742 0.556847 0.737063 0.068854
C43   C     C_R   0.943152 0.503743 0.237064 0.068854
C44   C     C_R   0.496258 0.943155 0.237063 0.068854
C45   C     C_R   0.056845 0.496260 0.237063 0.068854
C46   C     C_R   0.054118 0.719492 0.003495 0.097087
C47   C     C_R   0.503737 0.056848 0.237063 0.068854
C48   C     C_R   0.499998 0.999998 0.724484 0.073509
C49   C     C_R   0.000002 0.500001 0.724484 0.073509
C50   C     C_R   0.999998 0.500002 0.224484 0.073509
C51   C     C_R   0.499997 0.000001 0.224484 0.073509
C52   C     C_R   0.029519 0.451510 0.388644 0.474509
C53   C     C_R   0.548491 0.029521 0.388645 0.474509
C54   C     C_R   0.970480 0.548489 0.388645 0.474508
C55   C     C_R   0.451514 0.970479 0.388645 0.474509
C56   C     C_R   0.529519 0.951510 0.888644 0.474509
C57   C     C_R   0.280508 0.054117 0.003496 0.097079
C58   C     C_R   0.048491 0.529521 0.888645 0.474509
C59   C     C_R   0.470479 0.048488 0.888645 0.474509
C60   C     C_R   0.951514 0.470480 0.888645 0.474510
C61   C     C_R   0.611747 0.985821 0.723856 -0.210612
C62   C     C_R   0.014178 0.611750 0.723857 -0.210612
C63   C     C_R   0.388249 0.014175 0.723857 -0.210612
C64   C     C_R   0.985825 0.388252 0.723856 -0.210612
C65   C     C_R   0.111747 0.485823 0.223856 -0.210611
C66   C     C_R   0.514172 0.111751 0.223857 -0.210611
C67   C     C_R   0.888250 0.514181 0.223857 -0.210610
C68   C     C_R   0.945881 0.280508 0.003494 0.097131
C69   C     C_R   0.485822 0.888252 0.223856 -0.210611
C70   C     C_R   0.610878 0.982601 0.698986 -0.137167
C71   C     C_R   0.017398 0.610882 0.698986 -0.137166
C72   C     C_R   0.389117 0.017396 0.698987 -0.137166
C73   C     C_R   0.982603 0.389121 0.698986 -0.137166
C74   C     C_R   0.110878 0.482603 0.198986 -0.137166
C75   C     C_R   0.517392 0.110882 0.198987 -0.137166
C76   C     C_R   0.889118 0.517402 0.198987 -0.137166
C77   C     C_R   0.482600 0.889121 0.198986 -0.137167
C78   C     C_R   0.555498 0.990739 0.686397 -0.025836
C79   C     C_3   0.216200 0.404532 0.525004 0.252635
C80   C     C_R   0.009260 0.555501 0.686397 -0.025836
C81   C     C_R   0.444497 0.009258 0.686398 -0.025837
C82   C     C_R   0.990741 0.444501 0.686397 -0.025836
C83   C     C_R   0.055498 0.490742 0.186397 -0.025836
C84   C     C_R   0.509254 0.055502 0.186397 -0.025836
C85   C     C_R   0.944498 0.509263 0.186398 -0.025836
C86   C     C_R   0.490737 0.944501 0.186397 -0.025837
C87   C     C_R   0.499998 0.999998 0.699096 -0.058628
C88   C     C_R   0.000001 0.500001 0.699096 -0.058628
C89   C     C_R   0.999998 0.500002 0.199096 -0.058628
C90   C     C_3   0.595467 0.216202 0.525005 0.252633
C91   C     C_R   0.499996 0.000001 0.199096 -0.058628
C92   C     C_R   0.445818 0.010902 0.661293 0.524358
C93   C     C_R   0.989097 0.445822 0.661292 0.524359
C94   C     C_R   0.554176 0.989096 0.661292 0.524359
C95   C     C_R   0.010903 0.554180 0.661292 0.524358
C96   C     C_R   0.945819 0.510907 0.161293 0.524359
C97   C     C_R   0.489093 0.945822 0.161292 0.524358
C98   C     C_R   0.054177 0.489099 0.161292 0.524360
C99   C     C_R   0.510897 0.054181 0.161292 0.524358
C100  C     C_R   1.000000 0.500000 0.426390 -0.471257
C101  C     C_3   0.783797 0.595463 0.525007 0.252634
C102  C     C_R   0.500001 1.000000 0.426390 -0.471255
C103  C     C_R   0.500000 0.999999 0.926390 -0.471255
C104  C     C_R   0.000001 0.500000 0.926390 -0.471256
C105  C     C_R   0.282979 0.446489 0.503900 -0.027977
C106  C     C_R   0.553511 0.282979 0.503900 -0.027955
C107  C     C_R   0.717021 0.553511 0.503901 -0.027932
C108  C     C_R   0.446489 0.717021 0.503901 -0.027936
C109  C     C_R   0.782979 0.946491 0.003904 -0.027915
C110  C     C_R   0.053511 0.782979 0.003899 -0.027954
C111  C     C_R   0.217021 0.053511 0.003901 -0.027949
C112  C     C_R   0.619825 0.499718 0.499833 0.972707
C113  C     C_3   0.404535 0.783799 0.525006 0.252636
C114  C     C_R   0.946488 0.217021 0.003899 -0.027971
C115  C     C_R   0.314681 0.501016 0.499216 -0.143983
C116  C     C_R   0.498984 0.314681 0.499216 -0.144044
C117  C     C_R   0.685319 0.498984 0.499215 -0.144051
C118  C     C_R   0.501016 0.685319 0.499216 -0.143989
C119  C     C_R   0.814681 0.001016 0.999216 -0.144074
C120  C     C_R   0.998984 0.814681 0.999216 -0.144029
C121  C     C_R   0.185319 0.998984 0.999215 -0.144027
C122  C     C_R   0.001016 0.185319 0.999216 -0.144055
C123  C     C_R   0.283389 0.552990 0.490157 0.435907
C124  C     C_3   0.716200 0.904547 0.025013 0.252636
C125  C     C_R   0.447012 0.283387 0.490155 0.435862
C126  C     C_R   0.716614 0.447014 0.490154 0.435831
C127  C     C_R   0.552988 0.716612 0.490155 0.435852
C128  C     C_R   0.783386 0.052984 0.990153 0.435808
C129  C     C_R   0.947011 0.783388 0.990156 0.435861
C130  C     C_R   0.216613 0.947013 0.990154 0.435856
C131  C     C_R   0.052989 0.216612 0.990156 0.435871
C132  C     C_R   0.218589 0.552580 0.490189 -0.328639
C133  C     C_R   0.447422 0.218588 0.490187 -0.328553
C134  C     C_R   0.781412 0.447424 0.490185 -0.328508
C135  C     C_3   0.095468 0.716202 0.025004 0.252634
C136  C     C_R   0.552578 0.781412 0.490187 -0.328556
C137  C     C_R   0.718588 0.052574 0.990184 -0.328471
C138  C     C_R   0.947421 0.718588 0.990188 -0.328556
C139  C     C_R   0.281412 0.947423 0.990186 -0.328553
C140  C     C_R   0.052579 0.281411 0.990188 -0.328563
C141  C     C_R   0.186671 0.499690 0.498082 -0.110428
C142  C     C_R   0.500311 0.186671 0.498082 -0.110474
C143  C     C_R   0.813329 0.500311 0.498082 -0.110485
C144  C     C_R   0.499690 0.813329 0.498082 -0.110452
C145  C     C_R   0.686671 0.999689 0.998082 -0.110498
C146  C     C_3   0.283797 0.095465 0.025006 0.252630
C147  C     C_R   0.000311 0.686671 0.998082 -0.110466
C148  C     C_R   0.313329 0.000311 0.998082 -0.110461
C149  C     C_R   0.999689 0.313329 0.998082 -0.110478
C150  C     C_3   0.645050 0.050577 0.576205 0.149491
C151  C     C_3   0.688133 0.084427 0.559071 -0.807518
C152  C     C_3   0.949420 0.645053 0.576206 0.149489
C153  C     C_3   0.915571 0.688133 0.559072 -0.807523
C154  C     C_3   0.354946 0.949422 0.576206 0.149491
C155  C     C_3   0.311865 0.915574 0.559072 -0.807524
C156  C     C_3   0.050576 0.354948 0.576205 0.149490
C157  C     C_3   0.904526 0.283799 0.025002 0.252632
C158  C     C_3   0.084423 0.311866 0.559070 -0.807511
C159  C     C_3   0.145051 0.550576 0.076204 0.149492
C160  C     C_3   0.188134 0.584424 0.059070 -0.807518
C161  C     C_3   0.449419 0.145052 0.076205 0.149490
C162  C     C_3   0.415570 0.188133 0.059071 -0.807518
C163  C     C_3   0.854946 0.449433 0.076204 0.149493
C164  C     C_3   0.811862 0.415579 0.059073 -0.807530
C165  C     C_3   0.550583 0.854949 0.076206 0.149485
C166  C     C_3   0.584433 0.811869 0.059072 -0.807528
C167  C     C_3   0.309722 0.619798 0.460129 0.102848
C168  C     C_3   0.286651 0.404784 0.525162 -0.504366
C169  C     C_3   0.354032 0.671847 0.453540 -0.777662
C170  C     C_3   0.380258 0.309774 0.460120 0.102827
C171  C     C_3   0.328147 0.354018 0.453539 -0.777617
C172  C     C_3   0.690196 0.380292 0.460113 0.102827
C173  C     C_3   0.645980 0.328155 0.453534 -0.777623
C174  C     C_3   0.619746 0.690227 0.460120 0.102848
C175  C     C_3   0.671849 0.645974 0.453537 -0.777640
C176  C     C_3   0.809831 0.119678 0.960107 0.102835
C177  C     C_3   0.854018 0.171842 0.953532 -0.777601
C178  C     C_3   0.880252 0.809773 0.960122 0.102846
C179  C     C_3   0.595215 0.286653 0.525163 -0.504348
C180  C     C_3   0.828150 0.854027 0.953541 -0.777649
C181  C     C_3   0.190227 0.880259 0.960118 0.102837
C182  C     C_3   0.145977 0.828153 0.953536 -0.777627
C183  C     C_3   0.119753 0.190229 0.960123 0.102836
C184  C     C_3   0.171857 0.145976 0.953541 -0.777635
C185  C     C_3   0.713346 0.595211 0.525165 -0.504349
C186  C     C_3   0.404787 0.713348 0.525165 -0.504368
C187  C     C_3   0.786651 0.904799 0.025171 -0.504346
C188  C     C_R   0.500282 0.619825 0.499834 0.972741
C189  C     C_3   0.095216 0.786653 0.025162 -0.504355
C190  C     C_3   0.213347 0.095213 0.025164 -0.504349
C191  C     C_3   0.904778 0.213348 0.025160 -0.504338
C192  C     C_R   0.499997 0.000000 0.623423 0.195399
C193  C     C_R   1.000000 0.500001 0.623423 0.195401
C194  C     C_R   0.999998 0.500003 0.123423 0.195395
C195  C     C_R   0.499996 0.000001 0.123423 0.195403
C196  C     C_R   0.541284 0.037911 0.610802 -0.216989
C197  C     C_R   0.962089 0.541287 0.610802 -0.216990
C198  C     C_R   0.458711 0.962090 0.610802 -0.216993
C199  C     C_R   0.380175 0.500281 0.499834 0.972747
C200  C     C_R   0.037910 0.458715 0.610802 -0.216993
C201  C     C_R   0.041285 0.537912 0.110802 -0.216989
C202  C     C_R   0.462085 0.041286 0.110802 -0.216989
C203  C     C_R   0.958711 0.462093 0.110802 -0.216982
C204  C     C_R   0.537908 0.958715 0.110802 -0.216997
C205  C     C_R   0.999999 0.499999 0.375978 -0.152490
C206  C     C_R   0.500002 0.000000 0.375978 -0.152490
C207  C     C_R   0.499999 0.999999 0.875978 -0.152490
C208  C     C_R   0.000003 0.500001 0.875978 -0.152490
C209  C     C_R   0.033087 0.453877 0.413593 0.375623
C210  C     C_R   0.999719 0.880175 0.999834 0.972732
C211  C     C_R   0.546123 0.033088 0.413594 0.375623
C212  C     C_R   0.966912 0.546122 0.413594 0.375620
C213  C     C_R   0.453880 0.966911 0.413594 0.375622
C214  C     C_R   0.533087 0.953877 0.913593 0.375621
C215  C     C_R   0.046124 0.533088 0.913594 0.375623
C216  C     C_R   0.466911 0.046121 0.913594 0.375624
C217  C     C_R   0.953880 0.466912 0.913593 0.375622
C218  C     C_R   1.000000 0.500000 0.452789 0.900528
C219  C     C_R   0.500000 1.000000 0.452789 0.900527
C220  C     C_R   0.500000 1.000000 0.952789 0.900524
C221  C     C_R   0.119825 0.999718 0.999833 0.972728
C222  C     C_R   0.000000 0.500000 0.952789 0.900527
C223  C     C_R   0.120484 0.499985 0.499779 0.948636
C224  C     C_R   0.500015 0.120484 0.499779 0.948635
C225  C     C_R   0.879516 0.500015 0.499778 0.948638
C226  C     C_R   0.499985 0.879516 0.499778 0.948637
C227  C     C_R   0.620484 0.999985 0.999778 0.948636
C228  C     C_R   0.000015 0.620484 0.999778 0.948636
C229  C     C_R   0.379516 0.000015 0.999778 0.948635
C230  C     C_R   0.999985 0.379516 0.999778 0.948635
C231  C     C_R   1.000000 0.500000 0.546882 1.030678
C232  C     C_R   0.000281 0.119825 0.999834 0.972712
C233  C     C_R   0.499999 0.000000 0.546882 1.030677
C234  C     C_R   0.500000 0.000000 0.046881 1.030683
C235  C     C_R   0.999999 0.500000 0.046881 1.030671
C236  C     C_R   0.499999 0.000000 0.573149 -0.254170
C237  C     C_R   1.000000 0.500000 0.573149 -0.254170
C238  C     C_R   0.999999 0.500001 0.073149 -0.254180
C239  C     C_R   0.499998 0.000001 0.073149 -0.254162
C240  C     C_R   0.943164 0.497556 0.262362 0.019393
C241  C     C_R   0.502446 0.943167 0.262362 0.019393
C242  C     C_R   0.056834 0.502446 0.262362 0.019393
C243  C     C_R   0.880175 0.000282 0.999834 0.972700
C244  C     C_R   0.497552 0.056836 0.262362 0.019393
C245  C     C_R   0.443163 0.997552 0.762363 0.019393
C246  C     C_R   0.002449 0.443166 0.762362 0.019394
C247  C     C_R   0.556833 0.002444 0.762362 0.019393
C248  C     C_R   0.997557 0.556836 0.762362 0.019393
C249  C     C_R   0.999999 0.500001 0.275004 0.076231
C250  C     C_R   0.500000 0.000001 0.275004 0.076231
C251  C     C_R   0.499998 0.999998 0.775004 0.076231
C252  C     C_R   0.000003 0.500001 0.775004 0.076231
C253  C     C_R   0.888090 0.487930 0.275346 -0.326657
C254  C     C_R   0.219492 0.445882 0.503495 0.097085
C255  C     C_R   0.512074 0.888093 0.275345 -0.326657
C256  C     C_R   0.111907 0.512072 0.275345 -0.326657
C257  C     C_R   0.487925 0.111910 0.275346 -0.326656
C258  C     C_R   0.388090 0.987925 0.775346 -0.326656
C259  C     C_R   0.012077 0.388093 0.775345 -0.326657
C260  C     C_R   0.611907 0.012071 0.775345 -0.326656
C261  C     C_R   0.987930 0.611910 0.775346 -0.326656
C262  C     C_R   0.887811 0.484092 0.300396 0.514769
C263  C     C_R   0.515912 0.887814 0.300395 0.514770
C264  C     C_R   0.112187 0.515908 0.300395 0.514768
H1    H     H_    0.654081 0.974264 0.689655 0.190190
H2    H     H_    0.640955 0.306998 0.520540 0.212438
H3    H     H_    0.500162 0.852674 0.071913 0.147621
H4    H     H_    0.558268 0.838048 0.094810 0.146917
H5    H     H_    0.634517 0.810480 0.063540 0.240581
H6    H     H_    0.565220 0.764328 0.060578 0.204680
H7    H     H_    0.578670 0.828310 0.040337 0.265151
H8    H     H_    0.798197 0.470649 0.301063 0.330142
H9    H     H_    0.529359 0.798200 0.301061 0.330142
H10   H     H_    0.201801 0.529351 0.301061 0.330142
H11   H     H_    0.470643 0.201802 0.301063 0.330143
H12   H     H_    0.298197 0.970643 0.801063 0.330142
H13   H     H_    0.693001 0.640952 0.520544 0.212430
H14   H     H_    0.029359 0.298200 0.801061 0.330142
H15   H     H_    0.701800 0.029353 0.801061 0.330141
H16   H     H_    0.970649 0.701802 0.801063 0.330143
H17   H     H_    0.043571 0.399960 0.360389 0.338466
H18   H     H_    0.600040 0.043575 0.360390 0.338465
H19   H     H_    0.956427 0.600039 0.360391 0.338466
H20   H     H_    0.399964 0.956426 0.360390 0.338465
H21   H     H_    0.543572 0.899960 0.860390 0.338466
H22   H     H_    0.100042 0.543574 0.860390 0.338466
H23   H     H_    0.456425 0.100037 0.860390 0.338466
H24   H     H_    0.359046 0.693003 0.520543 0.212431
H25   H     H_    0.899965 0.456427 0.860390 0.338465
H26   H     H_    0.088804 0.429163 0.439091 0.331209
H27   H     H_    0.570836 0.088805 0.439092 0.331208
H28   H     H_    0.911195 0.570836 0.439092 0.331208
H29   H     H_    0.429167 0.911194 0.439092 0.331207
H30   H     H_    0.588804 0.929164 0.939091 0.331207
H31   H     H_    0.070836 0.588805 0.939092 0.331208
H32   H     H_    0.411195 0.070835 0.939092 0.331209
H33   H     H_    0.929166 0.411195 0.939091 0.331210
H34   H     H_    0.261805 0.635422 0.455995 0.149683
H35   H     H_    0.806997 0.859056 0.020552 0.212421
H36   H     H_    0.321341 0.578705 0.448876 0.151396
H37   H     H_    0.402551 0.657151 0.456858 0.256780
H38   H     H_    0.348790 0.683611 0.434275 0.222563
H39   H     H_    0.343824 0.713641 0.464456 0.252502
H40   H     H_    0.364724 0.261845 0.455956 0.149667
H41   H     H_    0.421354 0.321501 0.448885 0.151445
H42   H     H_    0.342757 0.402551 0.456882 0.256745
H43   H     H_    0.316423 0.348816 0.434268 0.222554
H44   H     H_    0.286352 0.343708 0.464440 0.252525
H45   H     H_    0.738129 0.364801 0.455933 0.149664
H46   H     H_    0.140956 0.806998 0.020539 0.212439
H47   H     H_    0.678417 0.421392 0.448889 0.151464
H48   H     H_    0.597442 0.342726 0.456892 0.256719
H49   H     H_    0.651159 0.316456 0.434260 0.222549
H50   H     H_    0.656339 0.286357 0.464425 0.252547
H51   H     H_    0.635289 0.738154 0.455958 0.149669
H52   H     H_    0.578649 0.678509 0.448884 0.151435
H53   H     H_    0.657229 0.597443 0.456879 0.256735
H54   H     H_    0.683576 0.651178 0.434267 0.222553
H55   H     H_    0.713645 0.656274 0.464439 0.252529
H56   H     H_    0.761892 0.135129 0.955914 0.149647
H57   H     H_    0.193001 0.140954 0.020543 0.212438
H58   H     H_    0.821660 0.078575 0.948892 0.151481
H59   H     H_    0.902562 0.157309 0.956900 0.256700
H60   H     H_    0.848856 0.183525 0.934256 0.222544
H61   H     H_    0.843614 0.213641 0.964417 0.252557
H62   H     H_    0.864708 0.761847 0.955960 0.149671
H63   H     H_    0.921349 0.821490 0.948886 0.151433
H64   H     H_    0.842771 0.902558 0.956883 0.256731
H65   H     H_    0.816422 0.848824 0.934271 0.222551
H66   H     H_    0.786354 0.843728 0.964443 0.252531
H67   H     H_    0.238154 0.864720 0.955955 0.149669
H68   H     H_    0.859039 0.193003 0.020536 0.212443
H69   H     H_    0.178504 0.921356 0.948884 0.151439
H70   H     H_    0.097445 0.842768 0.956880 0.256739
H71   H     H_    0.151179 0.816429 0.934266 0.222553
H72   H     H_    0.156282 0.786356 0.964437 0.252527
H73   H     H_    0.135298 0.238155 0.955962 0.149669
H74   H     H_    0.078658 0.178513 0.948886 0.151435
H75   H     H_    0.157235 0.097444 0.956882 0.256740
H76   H     H_    0.183587 0.151181 0.934271 0.222555
H77   H     H_    0.213651 0.156274 0.964444 0.252525
H78   H     H_    0.197221 0.407120 0.558691 0.358496
H79   H     H_    0.844604 0.480734 0.266274 0.139875
H80   H     H_    0.592878 0.197223 0.558692 0.358497
H81   H     H_    0.802775 0.592871 0.558694 0.358498
H82   H     H_    0.407124 0.802778 0.558693 0.358497
H83   H     H_    0.697221 0.907153 0.058699 0.358505
H84   H     H_    0.092881 0.697223 0.058691 0.358496
H85   H     H_    0.302775 0.092874 0.058693 0.358497
H86   H     H_    0.907105 0.302782 0.058689 0.358501
H87   H     H_    0.519271 0.844607 0.266273 0.139875
H88   H     H_    0.155393 0.519267 0.266272 0.139875
H89   H     H_    0.025735 0.654084 0.689656 0.190190
H90   H     H_    0.480728 0.155395 0.266274 0.139875
H91   H     H_    0.344604 0.980728 0.766274 0.139875
H92   H     H_    0.019273 0.344607 0.766273 0.139875
H93   H     H_    0.655392 0.019267 0.766272 0.139875
H94   H     H_    0.980734 0.655396 0.766274 0.139875
H95   H     H_    0.572044 0.068630 0.620479 0.174384
H96   H     H_    0.931369 0.572047 0.620479 0.174383
H97   H     H_    0.427951 0.931370 0.620479 0.174383
H98   H     H_    0.068630 0.427954 0.620478 0.174383
H99   H     H_    0.072045 0.568631 0.120478 0.174384
H100  H     H_    0.345914 0.025732 0.689657 0.190190
H101  H     H_    0.431365 0.072046 0.120479 0.174384
H102  H     H_    0.927950 0.431375 0.120479 0.174389
H103  H     H_    0.568628 0.927956 0.120479 0.174379
H104  H     H_    0.655900 0.977749 0.732337 0.150018
H105  H     H_    0.022251 0.655904 0.732338 0.150017
H106  H     H_    0.344095 0.022247 0.732339 0.150018
H107  H     H_    0.977753 0.344099 0.732338 0.150018
H108  H     H_    0.155901 0.477750 0.232337 0.150017
H109  H     H_    0.522244 0.155904 0.232338 0.150017
H110  H     H_    0.844096 0.522254 0.232339 0.150017
H111  H     H_    0.974267 0.345918 0.689656 0.190190
H112  H     H_    0.477751 0.844099 0.232338 0.150017
H113  H     H_    0.193626 0.594077 0.485138 0.179837
H114  H     H_    0.405925 0.193627 0.485135 0.179880
H115  H     H_    0.806373 0.405927 0.485131 0.179902
H116  H     H_    0.594075 0.806373 0.485134 0.179875
H117  H     H_    0.693629 0.094069 0.985128 0.179918
H118  H     H_    0.905924 0.693627 0.985136 0.179878
H119  H     H_    0.306373 0.905926 0.985133 0.179878
H120  H     H_    0.094078 0.306372 0.985136 0.179877
H121  H     H_    0.194656 0.358732 0.521234 0.105321
H122  H     H_    0.154081 0.474265 0.189655 0.190190
H123  H     H_    0.641267 0.194658 0.521235 0.105322
H124  H     H_    0.805341 0.641264 0.521238 0.105319
H125  H     H_    0.358734 0.805343 0.521237 0.105318
H126  H     H_    0.694657 0.858744 0.021246 0.105323
H127  H     H_    0.141268 0.694658 0.021233 0.105320
H128  H     H_    0.305342 0.141265 0.021237 0.105320
H129  H     H_    0.858727 0.305343 0.021230 0.105319
H130  H     H_    0.307536 0.427775 0.541071 0.230996
H131  H     H_    0.572222 0.307539 0.541072 0.230996
H132  H     H_    0.692460 0.572216 0.541073 0.230998
H133  H     H_    0.525727 0.154085 0.189656 0.190191
H134  H     H_    0.427780 0.692462 0.541073 0.230999
H135  H     H_    0.807536 0.927800 0.041078 0.230997
H136  H     H_    0.072224 0.807539 0.041071 0.230997
H137  H     H_    0.192460 0.072219 0.041073 0.230997
H138  H     H_    0.927767 0.192463 0.041070 0.230995
H139  H     H_    0.647321 0.000157 0.571910 0.147619
H140  H     H_    0.661954 0.058258 0.594808 0.146918
H141  H     H_    0.689528 0.134508 0.563542 0.240579
H142  H     H_    0.735671 0.065207 0.560575 0.204676
H143  H     H_    0.671689 0.078670 0.540337 0.265157
H144  H     H_    0.845916 0.525740 0.189657 0.190191
H145  H     H_    0.999841 0.647324 0.571911 0.147618
H146  H     H_    0.941738 0.661956 0.594809 0.146917
H147  H     H_    0.865489 0.689527 0.563542 0.240580
H148  H     H_    0.934789 0.735673 0.560577 0.204676
H149  H     H_    0.921330 0.671690 0.540338 0.265155
H150  H     H_    0.352675 0.999843 0.571912 0.147618
H151  H     H_    0.338043 0.941739 0.594809 0.146916
H152  H     H_    0.310470 0.865491 0.563541 0.240578
H153  H     H_    0.264326 0.934792 0.560577 0.204676
H154  H     H_    0.328308 0.921333 0.540337 0.265156
H155  H     H_    0.474264 0.845918 0.189656 0.190190
H156  H     H_    0.000155 0.352678 0.571911 0.147618
H157  H     H_    0.058259 0.338044 0.594809 0.146917
H158  H     H_    0.134506 0.310470 0.563540 0.240577
H159  H     H_    0.065203 0.264327 0.560575 0.204674
H160  H     H_    0.078664 0.328310 0.540336 0.265157
H161  H     H_    0.147321 0.500155 0.071910 0.147619
H162  H     H_    0.161955 0.558257 0.094808 0.146917
H163  H     H_    0.189530 0.634506 0.063540 0.240578
H164  H     H_    0.235672 0.565203 0.060574 0.204675
H165  H     H_    0.171689 0.578667 0.040336 0.265158
H166  H     H_    0.306996 0.359044 0.520539 0.212443
H167  H     H_    0.499839 0.147323 0.071911 0.147621
H168  H     H_    0.441735 0.161955 0.094809 0.146918
H169  H     H_    0.365488 0.189527 0.063541 0.240577
H170  H     H_    0.434789 0.235672 0.060576 0.204676
H171  H     H_    0.421330 0.171689 0.040337 0.265157
H172  H     H_    0.852681 0.499852 0.071905 0.147621
H173  H     H_    0.838041 0.441764 0.094808 0.146919
H174  H     H_    0.810458 0.365500 0.063548 0.240578
H175  H     H_    0.764326 0.434806 0.060574 0.204678
H176  H     H_    0.828310 0.421320 0.040338 0.265162
N1    N     N_R   0.499997 0.999999 0.649198 -0.325495
N2    N     N_R   1.000000 0.500001 0.649198 -0.325495
N3    N     N_R   0.999998 0.500003 0.149198 -0.325495
N4    N     N_R   0.499995 0.000001 0.149198 -0.325495
N5    N     N_R   0.999999 0.499999 0.350224 -0.374604
N6    N     N_R   0.500002 0.000001 0.350224 -0.374604
N7    N     N_R   0.499999 0.999998 0.850224 -0.374604
N8    N     N_R   0.000004 0.500001 0.850224 -0.374604
O1    O     O_R   0.500120 0.408340 0.520000 -0.625678
O2    O     O_R   0.591600 0.500100 0.479780 -0.631388
O3    O     O_3   0.606385 0.683919 0.484762 -0.628823
O4    O     O_3   0.816075 0.106381 0.984757 -0.628811
O5    O     O_3   0.893614 0.816081 0.984765 -0.628813
O6    O     O_3   0.183920 0.893616 0.984762 -0.628823
O7    O     O_3   0.106387 0.183918 0.984765 -0.628821
O8    O     O_3   0.191093 0.435327 0.544867 -0.697344
O9    O     O_3   0.564670 0.191096 0.544867 -0.697347
O10   O     O_3   0.808903 0.564665 0.544869 -0.697346
O11   O     O_3   0.435332 0.808906 0.544868 -0.697341
O12   O     O_3   0.691093 0.935353 0.044873 -0.697349
O13   O     O_R   0.499900 0.591600 0.479780 -0.631355
O14   O     O_3   0.064672 0.691095 0.044867 -0.697344
O15   O     O_3   0.308903 0.064667 0.044868 -0.697344
O16   O     O_3   0.935318 0.308906 0.044866 -0.697351
O17   O     O_R   0.408400 0.499900 0.479780 -0.631297
O18   O     O_R   0.000100 0.908400 0.979780 -0.631352
O19   O     O_R   0.091600 0.000100 0.979780 -0.631353
O20   O     O_R   0.999900 0.091600 0.979780 -0.631348
O21   O     O_R   0.908400 0.999900 0.979780 -0.631412
O22   O     O_2   0.393433 0.023868 0.649081 -0.578884
O23   O     O_2   0.976131 0.393437 0.649080 -0.578885
O24   O     O_2   0.606562 0.976130 0.649080 -0.578885
O25   O     O_R   0.591660 0.500120 0.520000 -0.625674
O26   O     O_2   0.023868 0.606565 0.649080 -0.578884
O27   O     O_2   0.893434 0.523874 0.149081 -0.578884
O28   O     O_2   0.476128 0.893437 0.149080 -0.578883
O29   O     O_2   0.106562 0.476132 0.149080 -0.578885
O30   O     O_2   0.523862 0.106566 0.149080 -0.578884
O31   O     O_R   0.000080 0.551700 0.464240 -0.602654
O32   O     O_R   0.448300 0.000080 0.464240 -0.602652
O33   O     O_R   0.999920 0.448300 0.464240 -0.602651
O34   O     O_R   0.551700 0.999920 0.464240 -0.602653
O35   O     O_R   0.500080 0.051700 0.964240 -0.602651
O36   O     O_R   0.499880 0.591660 0.520000 -0.625685
O37   O     O_R   0.948300 0.500080 0.964240 -0.602652
O38   O     O_R   0.499920 0.948300 0.964240 -0.602652
O39   O     O_R   0.051700 0.499920 0.964240 -0.602653
O40   O     O_R   0.091720 0.551710 0.499860 -0.634186
O41   O     O_R   0.448290 0.091720 0.499860 -0.634181
O42   O     O_R   0.908280 0.448290 0.499860 -0.634177
O43   O     O_R   0.551710 0.908280 0.499860 -0.634181
O44   O     O_R   0.591720 0.051710 0.999860 -0.634172
O45   O     O_R   0.948290 0.591720 0.999860 -0.634182
O46   O     O_R   0.408280 0.948290 0.999860 -0.634180
O47   O     O_R   0.408340 0.499880 0.520000 -0.625693
O48   O     O_R   0.051710 0.408280 0.999860 -0.634182
O49   O     O_R   0.091720 0.448270 0.499890 -0.625801
O50   O     O_R   0.551730 0.091720 0.499890 -0.625800
O51   O     O_R   0.908280 0.551730 0.499890 -0.625802
O52   O     O_R   0.448270 0.908280 0.499890 -0.625801
O53   O     O_R   0.591720 0.948270 0.999890 -0.625806
O54   O     O_R   0.051730 0.591720 0.999890 -0.625799
O55   O     O_R   0.408280 0.051730 0.999890 -0.625803
O56   O     O_R   0.948270 0.408280 0.999890 -0.625798
O57   O     O_R   0.000130 0.551710 0.535480 -0.604593
O58   O     O_R   0.000120 0.908340 0.020000 -0.625677
O59   O     O_R   0.448290 0.000130 0.535480 -0.604591
O60   O     O_R   0.999870 0.448290 0.535480 -0.604590
O61   O     O_R   0.551710 0.999870 0.535480 -0.604593
O62   O     O_R   0.500130 0.051710 0.035480 -0.604592
O63   O     O_R   0.948290 0.500130 0.035480 -0.604595
O64   O     O_R   0.499870 0.948290 0.035480 -0.604592
O65   O     O_R   0.051710 0.499870 0.035480 -0.604591
O66   O     O_2   0.894029 0.477444 0.351093 -0.447771
O67   O     O_2   0.522561 0.894031 0.351092 -0.447771
O68   O     O_2   0.105970 0.522555 0.351092 -0.447770
O69   O     O_R   0.091660 0.000120 0.020000 -0.625679
O70   O     O_2   0.477444 0.105970 0.351093 -0.447772
O71   O     O_2   0.394029 0.977441 0.851093 -0.447772
O72   O     O_2   0.022561 0.394031 0.851092 -0.447771
O73   O     O_2   0.605969 0.022556 0.851092 -0.447773
O74   O     O_2   0.977447 0.605971 0.851093 -0.447771
O75   O     O_3   0.584336 0.073879 0.573439 -0.577191
O76   O     O_3   0.926120 0.584338 0.573439 -0.577193
O77   O     O_3   0.415661 0.926122 0.573439 -0.577191
O78   O     O_3   0.073878 0.415662 0.573439 -0.577189
O79   O     O_3   0.084337 0.573879 0.073439 -0.577190
O80   O     O_R   0.999880 0.091660 0.020000 -0.625674
O81   O     O_3   0.426118 0.084337 0.073439 -0.577193
O82   O     O_3   0.915658 0.426125 0.073440 -0.577189
O83   O     O_3   0.573879 0.915665 0.073439 -0.577201
O84   O     O_3   0.832931 0.474150 0.312607 -0.688175
O85   O     O_3   0.525856 0.832934 0.312606 -0.688175
O86   O     O_3   0.167067 0.525849 0.312606 -0.688173
O87   O     O_3   0.474147 0.167068 0.312607 -0.688175
O88   O     O_3   0.332931 0.974145 0.812608 -0.688176
O89   O     O_3   0.025857 0.332934 0.812606 -0.688175
O90   O     O_3   0.667066 0.025850 0.812605 -0.688175
O91   O     O_R   0.908340 0.999880 0.020000 -0.625668
O92   O     O_3   0.974152 0.667069 0.812607 -0.688176
O93   O     O_3   0.057484 0.401975 0.377261 -0.661349
O94   O     O_3   0.598025 0.057488 0.377261 -0.661349
O95   O     O_3   0.942514 0.598024 0.377262 -0.661352
O96   O     O_3   0.401979 0.942513 0.377262 -0.661351
O97   O     O_3   0.557485 0.901975 0.877261 -0.661352
O98   O     O_3   0.098027 0.557487 0.877262 -0.661350
O99   O     O_3   0.442512 0.098022 0.877262 -0.661350
O100  O     O_3   0.901979 0.442514 0.877261 -0.661350
O101  O     O_3   0.069513 0.410009 0.424799 -0.668311
O102  O     O_R   0.500100 0.408400 0.479780 -0.631357
O103  O     O_3   0.589990 0.069515 0.424799 -0.668313
O104  O     O_3   0.930485 0.589990 0.424800 -0.668314
O105  O     O_3   0.410013 0.930484 0.424799 -0.668315
O106  O     O_3   0.569514 0.910010 0.924799 -0.668313
O107  O     O_3   0.089991 0.569515 0.924800 -0.668314
O108  O     O_3   0.430484 0.089989 0.924800 -0.668314
O109  O     O_3   0.910012 0.430485 0.924799 -0.668312
O110  O     O_3   0.316088 0.606385 0.484766 -0.628830
O111  O     O_3   0.393616 0.316080 0.484763 -0.628822
O112  O     O_3   0.683924 0.393617 0.484760 -0.628815
Zn1   Zn    Zn3+2 0.500000 0.500000 0.526750 0.986707
Zn2   Zn    Zn3+2 0.930950 0.500100 0.999850 0.989315
Zn3   Zn    Zn3+2 0.499900 0.930950 0.999850 0.989315
Zn4   Zn    Zn3+2 0.069050 0.499900 0.999850 0.989313
Zn5   Zn    Zn3+2 0.000000 1.000000 0.026750 0.986711
Zn6   Zn    Zn3+2 0.500000 0.500000 0.473040 0.969277
Zn7   Zn    Zn3+2 0.000000 0.000000 0.973040 0.969241
Zn8   Zn    Zn3+2 0.000100 0.569050 0.499850 0.989304
Zn9   Zn    Zn3+2 0.430950 0.000100 0.499850 0.989313
Zn10  Zn    Zn3+2 0.999900 0.430950 0.499850 0.989319
Zn11  Zn    Zn3+2 0.569050 0.999900 0.499850 0.989314
Zn12  Zn    Zn3+2 0.500100 0.069050 0.999850 0.989325

loop_
_geom_bond_atom_site_label_1
_geom_bond_atom_site_label_2
_ccdc_geom_bond_type
O59   Zn9   S    
O34   Zn11  S    
C212  O104  S    
O43   Zn11  S    
C27   C202  A    
C3    O87   S    
H84   O14   S    
C41   C61   A    
C74   C83   A    
C173  H49   S    
C95   O26   S    
O13   Zn6   S    
C97   O28   S    
C172  H47   S    
C112  O2    A    
C140  H120  S    
C149  C230  S    
C108  C186  S    
C35   C124  S    
C178  O5    S    
C248  C261  A    
C85   C96   A    
C101  C185  S    
H15   O90   S    
C170  H41   S    
C233  O59   A    
C35   C145  A    
O41   Zn9   S    
C2    C90   S    
C131  C140  A    
C134  C143  A    
H10   O86   S    
C151  H142  S    
C246  C252  A    
C84   C91   A    
O25   Zn1   S    
H80   O9    S    
C225  O51   A    
C117  C126  A    
C186  H134  S    
C69   H112  S    
C26   O79   S    
C35   C109  A    
C124  H126  S    
C119  C128  A    
C235  O63   A    
C240  C249  A    
C224  O50   A    
C156  H157  S    
O36   Zn1   S    
C55   O96   S    
C247  C260  A    
C180  H66   S    
C219  O34   A    
C120  C210  S    
C171  H44   S    
C162  H170  S    
C115  C123  A    
C21   O75   S    
C27   C239  A    
C229  O55   A    
H32   O108  S    
C127  C136  A    
C193  N2    S    
C194  C201  A    
C150  O75   S    
C210  O58   A    
C165  O83   S    
C120  C129  A    
C77   H155  S    
C183  C184  S    
C157  C191  S    
C183  H73   S    
H26   O101  S    
C102  C213  A    
C178  C180  S    
C25   C237  A    
C16   C20   A    
C54   C205  A    
C232  O80   A    
C48   C87   A    
C177  H61   S    
C245  C258  A    
C154  C155  S    
C36   O72   S    
C34   N7    A    
C175  H55   S    
C255  C263  A    
C221  O69   A    
C101  O10   S    
C46   C110  A    
O31   Zn8   S    
C79   H121  S    
H25   O100  S    
O39   Zn4   S    
C55   C206  A    
C118  C188  S    
C60   O100  S    
C131  O7    S    
C242  C249  A    
C133  H114  S    
O20   Zn7   S    
C25   O78   S    
C210  O18   A    
C66   H109  S    
C185  H13   S    
C139  H119  S    
C153  H147  S    
C8    C17   A    
C206  N6    S    
C233  O61   A    
C156  C158  S    
C80   C88   A    
C130  O6    S    
O38   Zn3   S    
C57   C111  A    
C56   C207  A    
C115  C199  S    
C45   C50   A    
C78   C94   A    
C181  O6    S    
O62   Zn12  S    
C99   N4    A    
C21   C196  A    
C159  O79   S    
C129  O5    S    
C104  C217  A    
C3    C11   A    
O50   Zn11  S    
H20   O96   S    
C126  C134  A    
C184  H75   S    
C52   O93   S    
C64   H107  S    
C92   N1    A    
C103  C216  A    
H9    O85   S    
C248  C252  A    
C190  H137  S    
C78   C87   A    
H11   O87   S    
C11   C18   A    
C164  H176  S    
C123  C132  A    
C227  O53   A    
C166  H7    S    
C191  H138  S    
C69   C77   A    
C151  H141  S    
C121  C130  A    
C128  C137  A    
C178  H62   S    
C167  C169  S    
C207  N7    S    
C194  N3    S    
C109  C187  S    
C208  N8    S    
C42   C248  A    
C133  C142  A    
C161  O81   S    
C141  C254  A    
O46   Zn3   S    
O69   Zn5   S    
C222  O39   A    
C14   C36   A    
C47   C244  A    
H23   O99   S    
C102  C211  A    
C20   C252  A    
C21   C236  A    
C170  C171  S    
C231  O60   A    
C40   C49   A    
C100  C209  A    
C230  O56   A    
C27   O81   S    
C86   C97   A    
C169  H37   S    
C174  C175  S    
C15   C37   A    
C246  C259  A    
C159  H161  S    
C155  H152  S    
C138  H118  S    
C81   C92   A    
O58   Zn5   S    
C128  O4    S    
C83   C98   A    
C64   C73   A    
C68   C149  A    
C96   O27   S    
C262  O84   S    
C42   C62   A    
C94   O24   S    
C196  H95   S    
C220  O38   A    
C103  C220  S    
C22   C237  A    
C28   C238  A    
C175  H54   S    
C54   C212  A    
C100  C218  S    
C228  O45   A    
C29   C204  A    
C143  C225  S    
C187  H35   S    
O45   Zn2   S    
C104  C222  S    
C160  H163  S    
C153  H149  S    
O33   Zn10  S    
C83   C89   A    
C139  C148  A    
C52   C205  A    
C11   C33   A    
C26   C201  A    
C126  O112  S    
C156  H156  S    
C163  H172  S    
H33   O109  S    
C31   O67   S    
C229  O46   A    
C3    C257  A    
C211  O103  S    
C2    C106  A    
C65   C74   A    
C97   N4    A    
C94   N1    A    
C58   C208  A    
C53   C206  A    
C152  O76   S    
C80   C95   A    
C103  C214  A    
C134  H115  S    
C124  O12   S    
C241  C255  A    
C1    O102  A    
O40   Zn8   S    
C141  C223  S    
H30   O106  S    
C192  C198  A    
C116  C125  A    
C45   C65   A    
C161  H167  S    
C166  H5    S    
C173  H50   S    
C57   C148  A    
C4    C12   A    
C118  C127  A    
H28   O104  S    
H85   O15   S    
C122  C131  A    
C150  H139  S    
O52   Zn9   S    
C59   C207  A    
C132  C141  A    
C114  C191  S    
C47   C66   A    
C90   C179  S    
C28   C203  A    
O32   Zn9   S    
C105  C115  A    
C137  H117  S    
C172  O112  S    
C222  O37   A    
C55   C213  A    
C181  H69   S    
C112  O25   A    
C43   C50   A    
C247  C251  A    
C218  O33   A    
C182  H72   S    
C105  C168  S    
C255  H87   S    
C90   O9    S    
C169  H39   S    
O21   Zn7   S    
C170  H40   S    
C253  H79   S    
C19   C251  A    
C2    C142  A    
C76   C85   A    
C17   C249  A    
C235  C238  S    
C62   C71   A    
C7    C261  A    
C155  H154  S    
C38   O74   S    
C233  C236  S    
C183  O7    S    
C188  O13   A    
H22   O98   S    
C179  H2    S    
C9    C18   A    
C32   O68   S    
C59   O99   S    
C152  C153  S    
C43   C67   A    
C150  C151  S    
C203  H102  S    
C258  H91   S    
C8    C262  A    
C140  C149  A    
C226  O43   A    
H78   O8    S    
C199  O17   A    
O54   Zn4   S    
C61   C70   A    
C221  O19   A    
C1    O1    A    
C224  O41   A    
C171  H42   S    
C167  H36   S    
C127  O3    S    
C28   O82   S    
C192  N1    S    
C235  O65   A    
C215  O107  S    
C161  C162  S    
O19   Zn7   S    
O64   Zn3   S    
C181  C182  S    
C176  O4    S    
C15   C19   A    
C23   C198  A    
C162  H171  S    
C165  C166  S    
C204  H103  S    
C192  C196  A    
C137  C145  A    
C37   N7    A    
C152  H146  S    
C132  H113  S    
H18   O94   S    
C72   C81   A    
C38   N8    A    
C86   C91   A    
C74   H122  S    
C112  C117  S    
C65   H108  S    
C111  C121  A    
C234  O64   A    
C62   H105  S    
C5    C259  A    
C223  O40   A    
C6    C260  A    
C22   C197  A    
C176  H58   S    
C46   C135  S    
C30   O66   S    
O63   Zn2   S    
C259  H92   S    
O44   Zn12  S    
H16   O92   S    
C182  H70   S    
C165  H4    S    
C156  O78   S    
C135  H127  S    
C24   C108  A    
C177  H60   S    
C174  H51   S    
C189  H136  S    
H83   O12   S    
H8    O84   S    
O48   Zn4   S    
C58   C215  A    
H81   O10   S    
C245  C251  A    
C82   C93   A    
C57   C146  S    
O60   Zn10  S    
C63   H106  S    
C49   C88   A    
C53   O94   S    
C105  C254  A    
C223  O49   A    
C167  O110  S    
C130  C139  A    
C32   N5    A    
H29   O105  S    
C67   H110  S    
C176  H56   S    
C201  H99   S    
C232  O20   A    
C58   O98   S    
C101  H124  S    
C14   C20   A    
C164  H174  S    
O47   Zn1   S    
C151  H143  S    
C59   C216  A    
C60   C208  A    
C47   C51   A    
C195  C204  A    
C158  H158  S    
O37   Zn2   S    
C95   N2    A    
C106  C116  A    
C163  O82   S    
C73   H111  S    
C22   O76   S    
C163  H173  S    
C145  C227  S    
C26   C238  A    
C50   C89   A    
C264  O86   S    
C159  C160  S    
O102  Zn6   S    
C157  O16   S    
C256  H88   S    
O51   Zn8   S    
C184  H77   S    
H86   O16   S    
C44   C69   A    
C195  N4    S    
C92   O22   S    
C148  C229  S    
C5    C14   A    
C81   C87   A    
C34   O71   S    
O57   Zn8   S    
C225  O42   A    
C7    C16   A    
C154  H150  S    
C167  H34   S    
C52   C209  A    
H12   O88   S    
C12   C34   A    
C68   C157  S    
C98   O29   S    
H21   O97   S    
C73   C82   A    
C109  C119  A    
C180  H65   S    
C30   N5    A    
C136  H116  S    
C162  H169  S    
C85   C89   A    
C75   H133  S    
C84   C99   A    
C56   O97   S    
C241  C250  A    
C104  C215  A    
C40   C246  A    
C178  H63   S    
O91   Zn5   S    
C193  C200  A    
C122  C232  S    
C234  O62   A    
C110  C189  S    
O61   Zn11  S    
C8    C30   A    
C93   N2    A    
C99   O30   S    
C136  C144  A    
C25   C200  A    
C113  H125  S    
C183  H74   S    
C6    O90   S    
C24   C144  A    
O49   Zn10  S    
C12   C19   A    
C79   C254  S    
C13   C143  A    
H17   O93   S    
C75   C84   A    
O65   Zn4   S    
C213  O105  S    
C43   C240  A    
H19   O95   S    
C123  O110  S    
C63   C72   A    
C111  C190  S    
C197  H96   S    
C121  C221  S    
C190  H57   S    
C54   O95   S    
C263  O85   S    
O18   Zn7   S    
C107  C117  A    
C220  O35   A    
C39   C48   A    
C168  H130  S    
C253  C262  A    
C175  H53   S    
H27   O103  S    
C146  H128  S    
C98   N3    A    
C70   C78   A    
C242  C256  A    
C226  O52   A    
C163  C164  S    
C13   C107  A    
C160  H164  S    
C187  H135  S    
C195  C202  A    
C37   O73   S    
C153  H148  S    
C171  H43   S    
C240  C253  A    
C244  C250  A    
C135  O14   S    
C216  O108  S    
C90   H123  S    
C154  H151  S    
C170  O111  S    
C4    O88   S    
C82   C88   A    
C93   O23   S    
C113  C186  S    
C10   C17   A    
C231  O57   A    
C9    C263  A    
O17   Zn6   S    
C135  C189  S    
C79   O8    S    
C6    C15   A    
O80   Zn5   S    
C230  O48   A    
C23   O77   S    
C129  C138  A    
C46   C147  A    
C185  H132  S    
C10   C264  A    
C146  O15   S    
C188  O36   A    
C199  O47   A    
C158  H159  S    
C66   C75   A    
C1    C116  S    
C79   C168  S    
C202  H101  S    
C24   C113  S    
C164  H175  S    
C36   N8    A    
C41   C247  A    
C51   C91   A    
C166  H6    S    
C144  C226  S    
O1    Zn1   S    
C142  C224  S    
C71   C80   A    
C150  H140  S    
C44   C241  A    
C113  O11   S    
C191  H68   S    
C152  H145  S    
C125  O111  S    
C108  C118  A    
O42   Zn10  S    
C110  C120  A    
C209  O101  S    
C61   H104  S    
C172  H45   S    
C100  C212  A    
C39   C245  A    
C7    O92   S    
C173  H48   S    
C169  H38   S    
C227  O44   A    
C159  H162  S    
C157  H129  S    
C160  H165  S    
C217  O109  S    
C138  C147  A    
C53   C211  A    
C205  N5    S    
C260  H93   S    
C158  H160  S    
C218  O31   A    
C155  H153  S    
C168  H166  S    
C71   H89   S    
C31   N6    A    
C189  H46   S    
C181  H67   S    
C102  C219  S    
C5    O89   S    
C23   C236  A    
C44   C51   A    
C176  C177  S    
C77   C86   A    
C244  C257  A    
C228  O54   A    
C76   H144  S    
C13   C101  S    
C106  C179  S    
C172  C173  S    
C70   H1    S    
H82   O11   S    
C125  C133  A    
O56   Zn2   S    
O55   Zn12  S    
C4    C258  A    
C29   O83   S    
C243  O91   A    
C219  O32   A    
C214  O106  S    
C56   C214  A    
C72   H100  S    
H14   O89   S    
C179  H131  S    
C257  H90   S    
C124  C187  S    
C147  C228  S    
C184  H76   S    
C180  H64   S    
C154  O77   S    
C39   C63   A    
C107  C185  S    
C40   C64   A    
C231  C237  S    
C256  C264  A    
O2    Zn6   S    
C174  O3    S    
C186  H24   S    
C60   C217  A    
C96   N3    A    
C18   C250  A    
C193  C197  A    
C194  C203  A    
C45   C242  A    
O35   Zn12  S    
C41   C48   A    
C200  H98   S    
C234  C239  S    
C9    C31   A    
C42   C49   A    
C114  C122  A    
C10   C32   A    
C243  O21   A    
C182  H71   S    
C165  H3    S    
C16   C38   A    
C161  H168  S    
C146  C190  S    
H31   O107  S    
C67   C76   A    
C177  H59   S    
C174  H52   S    
C261  H94   S    
C119  C243  S    
C33   O70   S    
C29   C239  A    
O53   Zn3   S    
C68   C114  A    
C33   N6    A    
C198  H97   S    
