data_mof_unit_6189.cif
_audit_creation_date              2012-12-10T16:46:49-0500
_audit_creation_method            fapswitch 2.2
_symmetry_space_group_name_H-M    P1
_symmetry_Int_Tables_number       1
_space_group_crystal_system       triclinic
_cell_length_a                    15.846191
_cell_length_b                    8.684609
_cell_length_c                    7.517509
_cell_angle_alpha                 103.357257
_cell_angle_beta                  94.707635
_cell_angle_gamma                 93.239259
_cell_volume                      1000.12001117

loop_
_atom_site_label
_atom_site_type_symbol
_atom_type_description
_atom_site_fract_x
_atom_site_fract_y
_atom_site_fract_z
_atom_type_partial_charge
C1    C     C_R   0.497382 0.199760 0.452982 0.859355
C2    C     C_3   0.952079 0.402605 0.627493 -0.398623
C3    C     C_3   0.917228 0.504827 0.497071 0.099788
C4    C     C_3   0.959733 0.678890 0.565993 0.597483
C5    C     C_3   0.057967 0.675775 0.564828 -0.420079
C6    C     C_1   0.824704 0.502844 0.495386 0.078506
C7    C     C_1   0.175338 0.501569 0.504612 -0.032113
C8    C     C_1   0.250909 0.500535 0.504380 -0.114913
C9    C     C_2   0.496030 0.031364 0.427161 -0.316974
C10   C     C_2   0.504138 0.968652 0.572839 -0.316564
C11   C     C_R   0.340449 0.499606 0.501420 0.806819
C12   C     C_R   0.502690 0.800246 0.547018 0.864515
C13   C     C_R   0.659535 0.500520 0.498586 0.809620
C14   C     C_3   0.049946 0.405005 0.633626 -0.365527
C15   C     C_3   0.040566 0.430247 0.305622 -0.417659
C16   C     C_3   0.942193 0.431381 0.300086 0.301334
C17   C     C_1   0.749091 0.501471 0.495763 -0.058657
C18   C     C_3   0.083111 0.503137 0.502446 0.144474
Cu1   Cu    Cu3+1 0.509300 0.517380 0.684380 1.110712
Cu2   Cu    Cu3+1 0.490700 0.482620 0.315620 1.107374
H1    H     H_    0.924073 0.277875 0.580154 0.243842
H2    H     H_    0.078617 0.457090 0.776695 0.188226
H3    H     H_    0.933552 0.446945 0.768669 0.193748
H4    H     H_    0.488271 0.958743 0.287274 0.207127
H5    H     H_    0.511910 0.041274 0.712726 0.208326
H6    H     H_    0.068886 0.281156 0.593537 0.208217
H7    H     H_    0.063882 0.498671 0.208710 0.154016
H8    H     H_    0.059083 0.306694 0.258501 0.219819
H9    H     H_    0.920183 0.508853 0.208627 0.138539
H10   H     H_    0.090537 0.731013 0.703718 0.207343
H11   H     H_    0.081907 0.746894 0.471205 0.198995
N1    N     N_2   0.476670 0.456430 0.038530 0.110959
N2    N     N_2   0.523330 0.543570 0.961470 0.110747
O1    O     O_R   0.506050 0.286130 0.619770 -0.553078
O2    O     O_R   0.490330 0.256780 0.308370 -0.565215
O3    O     O_R   0.387300 0.514690 0.655770 -0.544741
O4    O     O_R   0.371580 0.485340 0.344370 -0.561378
O5    O     O_R   0.509670 0.743220 0.691630 -0.564752
O6    O     O_R   0.493950 0.713870 0.380230 -0.554562
O7    O     O_R   0.628420 0.514660 0.655630 -0.556126
O8    O     O_R   0.612700 0.485310 0.344230 -0.543178
Cl1   Cl    Cl    0.921170 0.805813 0.424213 -0.567776
Cl2   Cl    Cl    0.399050 0.320045 0.907981 -0.494605
Cl3   Cl    Cl    0.601057 0.679772 0.091969 -0.448746
O9    O     O_3   0.903750 0.274139 0.236706 -0.550550
C19   C     C_3   0.890607 0.232342 0.042988 -0.182698
H12   H     H_    0.950805 0.245769 0.979670 0.147924
H13   H     H_    0.842031 0.303865 0.992534 0.150001
H14   H     H_    0.866285 0.105769 0.998118 0.253175
Cl4   Cl    Cl    0.934513 0.768000 0.794287 -0.592469

loop_
_geom_bond_atom_site_label_1
_geom_bond_atom_site_label_2
_ccdc_geom_bond_type
C16   O9    S    
C15   C18   S    
C9    H4    S    
Cu1   O5    S    
C9    C10   D    
C14   C18   S    
C15   H7    S    
Cu1   Cu2   S    
C13   C17   S    
C3    C6    S    
N1    N2    D    
C14   H2    S    
C2    H1    S    
C13   O8    A    
Cu2   O8    S    
C7    C8    T    
O9    C19   S    
C14   H6    S    
Cu2   O4    S    
N2    Cl3   S    
C19   H14   S    
C15   H8    S    
C4    Cl1   S    
C12   O6    A    
C8    C11   S    
C10   C12   S    
C10   H5    S    
C11   O3    A    
N1    Cl2   S    
C1    O1    A    
C2    C3    S    
Cu1   O3    S    
C12   O5    A    
C2    C14   S    
C19   H13   S    
Cu1   O7    S    
C3    C4    S    
C6    C17   T    
C7    C18   S    
C1    C9    S    
C1    O2    A    
C5    H10   S    
Cu2   N1    S    
C4    Cl4   S    
C2    H3    S    
C11   O4    A    
Cu2   O6    S    
C19   H12   S    
C13   O7    A    
C5    C18   S    
C16   H9    S    
Cu2   O2    S    
C3    C16   S    
C15   C16   S    
Cu1   N2    S    
C4    C5    S    
C5    H11   S    
Cu1   O1    S    
