data_mof_unit_58137.cif
_audit_creation_date              2012-12-11T17:05:34-0500
_audit_creation_method            fapswitch 2.2
_symmetry_space_group_name_H-M    P1
_symmetry_Int_Tables_number       1
_space_group_crystal_system       triclinic
_cell_length_a                    6.99944
_cell_length_b                    14.545578
_cell_length_c                    16.029845
_cell_angle_alpha                 90.023998
_cell_angle_beta                  89.427227
_cell_angle_gamma                 89.535907
_cell_volume                      1631.87766817

loop_
_atom_site_label
_atom_site_type_symbol
_atom_type_description
_atom_site_fract_x
_atom_site_fract_y
_atom_site_fract_z
_atom_type_partial_charge
O1    O     O_R   0.494380 0.415640 0.412830 -0.534957
O2    O     O_R   0.823960 0.405540 0.586560 -0.541960
O3    O     O_R   0.994270 0.584360 0.587170 -0.542695
C1    C     C_R   0.655189 0.383728 0.615203 0.691019
O4    O     O_R   0.824090 0.404620 0.413450 -0.543094
O5    O     O_R   0.994400 0.583430 0.412820 -0.538431
C2    C     C_R   0.656096 0.382551 0.384491 0.692776
O6    O     O_R   0.494250 0.416570 0.587180 -0.537296
O7    O     O_3   0.660800 0.558670 0.500000 -0.371610
V1    V     V_3+5 0.935650 0.489120 0.500000 1.372005
O8    O     O_R   0.324110 0.594460 0.413440 -0.539680
C3    C     C_R   0.155215 0.616279 0.384650 0.689354
O9    O     O_R   0.323980 0.595380 0.586550 -0.535713
C4    C     C_R   0.154488 0.619433 0.613822 0.677678
V2    V     V_3+5 0.435660 0.510880 0.500000 1.376814
O10   O     O_3   0.160640 0.441330 0.500000 -0.369889
C5    C     C_3   0.002467 0.662487 0.751533 -0.422940
H1    H     H_    0.859018 0.653693 0.725519 0.174120
H2    H     H_    0.044229 0.594253 0.777363 0.133405
C6    C     C_3   0.991868 0.734329 0.822555 -0.397504
H3    H     H_    0.036921 0.700010 0.881354 0.138969
H4    H     H_    0.841939 0.754954 0.835197 0.168544
H5    H     H_    0.921823 0.779828 0.632395 0.150038
C7    C     C_3   0.072580 0.787908 0.649945 -0.375528
C8    C     C_3   0.342994 0.701654 0.727773 0.209105
C9    C     C_3   0.146045 0.692407 0.682520 0.039055
H6    H     H_    0.364296 0.634872 0.760959 0.061679
C10   C     C_3   0.126145 0.818000 0.805435 0.059559
C11   C     C_3   0.090104 0.867359 0.717114 0.581661
C12   C     C_3   0.330386 0.774084 0.799172 -0.363896
H7    H     H_    0.367826 0.740670 0.859454 0.104861
H8    H     H_    0.435757 0.828151 0.790644 0.195413
H9    H     H_    0.139465 0.806665 0.589754 0.088324
C13   C     C_R   0.271388 0.815682 0.239537 0.101595
C14   C     C_R   0.117977 0.816229 0.183945 -0.112545
C15   C     C_R   0.967075 0.755261 0.200725 -0.183678
H10   H     H_    0.844954 0.753423 0.160099 0.133987
C16   C     C_R   0.978368 0.691418 0.266653 -0.178183
C17   C     C_R   0.141248 0.686333 0.317665 -0.110847
C18   C     C_R   0.282925 0.752324 0.304568 0.093096
C19   C     C_3   0.492799 0.739815 0.292441 -0.412030
C20   C     C_3   0.480384 0.809174 0.221784 -0.396187
H11   H     H_    0.530287 0.669238 0.270918 0.167958
H12   H     H_    0.575117 0.765024 0.346692 0.171154
H13   H     H_    0.511314 0.779002 0.159318 0.169647
H14   H     H_    0.555083 0.874593 0.235299 0.166646
C21   C     C_R   0.503399 0.321629 0.746270 0.093979
C22   C     C_R   0.648147 0.317804 0.685398 -0.104530
C23   C     C_R   0.795354 0.252340 0.697074 -0.184275
H15   H     H_    0.914559 0.248422 0.653665 0.124467
C24   C     C_R   0.783773 0.187053 0.761894 -0.179579
H16   H     H_    0.894312 0.134953 0.766370 0.142645
C25   C     C_R   0.625267 0.185606 0.817016 -0.109991
C26   C     C_R   0.492605 0.257861 0.810417 0.099083
C27   C     C_3   0.279412 0.260328 0.811169 -0.407421
C28   C     C_3   0.291590 0.329700 0.740067 -0.397875
H17   H     H_    0.220361 0.290339 0.869855 0.169707
H18   H     H_    0.215648 0.194135 0.792516 0.173210
H19   H     H_    0.238365 0.399306 0.757767 0.157424
H20   H     H_    0.237640 0.302873 0.679884 0.176135
C29   C     C_R   0.492645 0.315410 0.258821 0.104109
C30   C     C_R   0.648530 0.316863 0.313223 -0.113615
C31   C     C_R   0.800067 0.255292 0.295686 -0.184215
H21   H     H_    0.923699 0.253640 0.335443 0.135423
C32   C     C_R   0.787757 0.190652 0.230187 -0.177879
H22   H     H_    0.903578 0.141862 0.221328 0.129351
C33   C     C_R   0.623044 0.185045 0.180207 -0.111947
C34   C     C_R   0.480058 0.251300 0.194265 0.103704
C35   C     C_3   0.271207 0.239066 0.208410 -0.416912
C36   C     C_3   0.284652 0.309254 0.278342 -0.397728
H23   H     H_    0.236900 0.168767 0.230876 0.166274
H24   H     H_    0.207389 0.374578 0.264886 0.168251
O11   O     O_R   0.771490 0.080820 0.910070 -0.535586
O12   O     O_R   0.441590 0.092730 0.083780 -0.538195
O13   O     O_R   0.271350 0.913900 0.084390 -0.535509
C37   C     C_R   0.609814 0.114693 0.112876 0.694291
O14   O     O_R   0.441780 0.091820 0.910670 -0.543757
O15   O     O_R   0.271540 0.912980 0.910040 -0.546987
C38   C     C_R   0.610961 0.114386 0.882628 0.701218
O16   O     O_R   0.771300 0.081740 0.084420 -0.538178
O17   O     O_3   0.604960 0.938700 0.997240 -0.375670
V3    V     V_3+5 0.330090 0.008230 0.997220 1.379661
O18   O     O_R   0.941820 0.901930 0.910640 -0.544281
C39   C     C_R   0.111717 0.883254 0.879522 0.701703
O19   O     O_R   0.941630 0.902840 0.083750 -0.543405
C40   C     C_R   0.110229 0.881158 0.112642 0.691965
V4    V     V_3+5 0.830090 0.986410 0.997190 1.379316
O20   O     O_3   0.105080 0.055990 0.997200 -0.369598
N1    N     N_2   0.254171 0.925660 0.694558 -0.547243
H25   H     H_    0.277439 0.930371 0.631164 0.239246
C41   C     C_3   0.260977 0.018634 0.728138 -0.574850
H26   H     H_    0.408510 0.045212 0.724734 0.191484
H27   H     H_    0.210819 0.022357 0.793413 0.222500
H28   H     H_    0.170604 0.065551 0.690315 0.177177
H29   H     H_    0.863879 0.642689 0.274910 0.129237
H30   H     H_    0.185511 0.263706 0.154737 0.176793
H31   H     H_    0.257215 0.279838 0.341297 0.170560
N2    N     N_2   0.922528 0.928184 0.713794 -0.536651
H32   H     H_    0.914942 0.964429 0.658462 0.254323
C42   C     C_3   0.737793 0.900318 0.742260 -0.621331
H33   H     H_    0.628570 0.937240 0.706013 0.209871
H34   H     H_    0.713358 0.919693 0.807939 0.237778
H35   H     H_    0.720245 0.826614 0.732547 0.239994
N3    N     N_2   0.513373 0.711370 0.674164 -0.528170
H36   H     H_    0.586964 0.650247 0.666711 0.257442
C43   C     C_3   0.519456 0.766254 0.598272 -0.476359
H37   H     H_    0.655821 0.752942 0.564560 0.166555
H38   H     H_    0.514990 0.839797 0.612163 0.190916
H39   H     H_    0.407921 0.747995 0.553336 0.186148

loop_
_geom_bond_atom_site_label_1
_geom_bond_atom_site_label_2
_ccdc_geom_bond_type
C29   C36   S    
O18   V4    S    
V4    O20   S    
C31   C32   A    
C10   C39   S    
C19   C20   S    
C14   C15   A    
C13   C20   S    
C1    O6    A    
C35   H30   S    
N3    C43   S    
O17   V3    S    
C25   C26   A    
O12   C37   A    
C11   N2    S    
C13   C18   A    
C5    C9    S    
C10   C11   S    
C25   C38   S    
C7    C9    S    
O16   V4    S    
O5    C3    A    
C12   H7    S    
C14   C40   S    
C43   H37   S    
V2    O10   S    
C5    C6    S    
C13   C14   A    
C20   H14   S    
C35   H23   S    
C7    C11   S    
O11   V4    S    
O8    V2    S    
O18   C39   A    
C34   C35   S    
C32   C33   A    
C16   H29   S    
H5    C7    S    
O1    V2    S    
N1    C41   S    
O7    V1    S    
C36   H31   S    
O19   V4    S    
O9    C4    A    
C19   H11   S    
C35   C36   S    
O12   V3    S    
C11   N1    S    
N3    H36   S    
O14   C38   A    
C24   H16   S    
C41   H26   S    
O4    C2    A    
C6    C10   S    
C23   C24   A    
C8    C9    S    
O19   C40   A    
C42   H35   S    
C33   C34   A    
C24   C25   A    
C20   H13   S    
O2    C1    A    
C2    C30   S    
C30   C31   A    
O15   C39   A    
C41   H27   S    
O15   V3    S    
O13   C40   A    
C21   C22   A    
C27   C28   S    
C42   H34   S    
C5    H1    S    
O11   C38   A    
O13   V3    S    
C4    C9    S    
O17   V4    S    
O3    C4    A    
C21   C26   A    
C22   C23   A    
C6    H4    S    
N2    H32   S    
O6    V2    S    
N2    C42   S    
O9    V2    S    
C19   H12   S    
C15   C16   A    
O2    V1    S    
C17   C18   A    
C1    C22   S    
C8    C12   S    
C26   C27   S    
C18   C19   S    
O1    C2    A    
C37   O16   A    
O5    V1    S    
O8    C3    A    
C8    N3    S    
C8    H6    S    
C7    H9    S    
C28   H19   S    
C3    C17   S    
C27   H17   S    
O7    V2    S    
O4    V1    S    
O3    V1    S    
V1    O10   S    
C41   H28   S    
C12   H8    S    
C29   C34   A    
C16   C17   A    
C43   H38   S    
O14   V3    S    
V3    O20   S    
C10   C12   S    
C42   H33   S    
C5    H2    S    
C32   H22   S    
C29   C30   A    
C31   H21   S    
C28   H20   S    
C6    H3    S    
C15   H10   S    
C23   H15   S    
C27   H18   S    
C36   H24   S    
C33   C37   S    
N1    H25   S    
C21   C28   S    
C43   H39   S    
