data_mof_unit_13662.cif
_audit_creation_date              2013-03-05T15:40:11-0500
_audit_creation_method            fapswitch 2.2
_symmetry_space_group_name_H-M    P1
_symmetry_Int_Tables_number       1
_space_group_crystal_system       triclinic
_cell_length_a                    7.807887
_cell_length_b                    8.707836
_cell_length_c                    10.503303
_cell_angle_alpha                 90.437678
_cell_angle_beta                  96.218062
_cell_angle_gamma                 93.107249
_cell_volume                      708.806858691

loop_
_atom_site_label
_atom_site_type_symbol
_atom_site_description
_atom_site_fract_x
_atom_site_fract_y
_atom_site_fract_z
_atom_type_partial_charge
O1    O     O_R   0.391630 0.738350 0.508060 -0.605444
O2    O     O_R   0.608370 0.261650 0.491940 -0.602720
O3    O     O_R   0.674540 0.711990 0.487010 -0.570879
O4    O     O_R   0.325460 0.288010 0.512990 -0.603045
C1    C     C_R   0.540762 0.793353 0.485719 0.828577
C2    C     C_R   0.453560 0.205049 0.495180 0.891779
O5    O     O_R   0.411370 0.508250 0.688780 -0.651354
O6    O     O_R   0.588630 0.491750 0.311220 -0.609806
O7    O     O_R   0.694270 0.481880 0.667740 -0.566754
O8    O     O_R   0.305730 0.518120 0.332260 -0.569514
C3    C     C_R   0.565750 0.484492 0.737398 0.844611
C4    C     C_R   0.431963 0.508210 0.262381 0.778591
Zn1   Zn    Zn3+2 0.311100 0.517600 0.514050 1.030483
Zn2   Zn    Zn3+2 0.688900 0.482400 0.485950 1.058721
C5    C     C_2   0.586054 0.451981 0.874555 0.334465
C6    C     C_2   0.400445 0.503850 0.122381 0.350362
C7    C     C_2   0.455638 0.373524 0.926325 0.057266
C8    C     C_2   0.442897 0.375883 0.063483 0.061580
C9    C     C_2   0.556805 0.953952 0.456002 0.239266
C10   C     C_2   0.423279 0.041460 0.475705 0.220812
N1    N     N_2   0.940600 0.458860 0.467170 0.192761
N2    N     N_2   0.059400 0.541140 0.532830 0.201549
I1    I     I_    0.446638 0.158807 0.153429 -0.448920
I2    I     I_    0.254042 0.235563 0.822297 -0.491885
O9    O     O_3   0.367004 0.634833 0.049954 -0.626438
C11   C     C_3   0.268214 0.736901 0.112331 -0.245473
H1    H     H_    0.345287 0.792597 0.196987 0.179395
H2    H     H_    0.148132 0.678156 0.140334 0.180956
H3    H     H_    0.229014 0.829042 0.044697 0.215392
O10   O     O_3   0.723662 0.521860 0.951724 -0.597038
C12   C     C_3   0.854818 0.416586 0.968327 -0.265022
H4    H     H_    0.903275 0.389072 0.875507 0.188233
H5    H     H_    0.809755 0.308964 0.014039 0.169084
H6    H     H_    0.964565 0.469561 0.032492 0.208886
O11   O     O_3   0.710284 0.016073 0.415942 -0.644620
C13   C     C_3   0.761474 0.928050 0.313051 -0.216375
H7    H     H_    0.654637 0.856053 0.259397 0.164056
H8    H     H_    0.867652 0.854606 0.348719 0.215803
H9    H     H_    0.812009 0.005257 0.241262 0.166676
O12   O     O_3   0.254076 0.980644 0.449200 -0.626249
C14   C     C_3   0.164033 0.989785 0.557992 -0.199209
H10   H     H_    0.106019 0.102149 0.564623 0.201359
H11   H     H_    0.246246 0.966096 0.648003 0.149684
H12   H     H_    0.054719 0.903002 0.547268 0.231827
O13   O     O_3   0.984526 0.432778 0.349082 -0.539386
C15   C     C_3   0.923834 0.284225 0.312432 -0.092422
H13   H     H_    0.781643 0.276575 0.296117 0.218038
H14   H     H_    0.972435 0.200175 0.384233 0.189431
H15   H     H_    0.974635 0.255183 0.221200 0.133830
O14   O     O_3   0.992113 0.631249 0.617752 -0.543460
C16   C     C_3   0.111342 0.657361 0.725935 -0.117562
H16   H     H_    0.231624 0.716910 0.701789 0.181674
H17   H     H_    0.134721 0.548863 0.777329 0.190265
H18   H     H_    0.054589 0.734435 0.792669 0.158162

loop_
_geom_bond_atom_site_label_1
_geom_bond_atom_site_label_2
_geom_bond_distance
_ccdc_geom_bond_type
O7    Zn2   1.905354 S    
C12   H5    1.113692 S    
C1    C9    1.437011 S    
C2    C10   1.440659 S    
C14   H10   1.105094 S    
C11   H2    1.112340 S    
C9    C10   1.356783 D    
O6    C4    1.290033 A    
N2    O14   1.350112 S    
C16   H18   1.109250 S    
C13   H8    1.109282 S    
C7    C8    1.454822 S    
C12   H6    1.108402 S    
C9    O11   1.395750 S    
N1    N2    1.277179 D    
O5    C3    1.285228 A    
C14   H11   1.110974 S    
C15   H15   1.108608 S    
C11   H1    1.110778 S    
O2    C2    1.284412 A    
O3    Zn2   2.008445 S    
O8    C4    1.297127 A    
C11   H3    1.109196 S    
O1    C1    1.280917 A    
Zn2   N1    2.017460 S    
C6    C8    1.344691 D    
C13   H7    1.114697 S    
Zn1   N2    2.017459 S    
O14   C16   1.397648 S    
N1    O13   1.343086 S    
O7    C3    1.305385 A    
O10   C12   1.408887 S    
C10   O12   1.394828 S    
C14   H12   1.104627 S    
C15   H14   1.106773 S    
C7    I2    2.125338 S    
O1    Zn1   1.993430 S    
C16   H16   1.102733 S    
C4    C6    1.464251 S    
O5    Zn1   1.919796 S    
C5    O10   1.383673 S    
O4    C2    1.293852 A    
O2    Zn2   1.993429 S    
C6    O9    1.396526 S    
C5    C7    1.359965 D    
C15   H13   1.103159 S    
O12   C14   1.408907 S    
O6    Zn2   1.919795 S    
O11   C13   1.424528 S    
C16   H17   1.105645 S    
O9    C11   1.410340 S    
O13   C15   1.390137 S    
C3    C5    1.463636 S    
C13   H9    1.104377 S    
C12   H4    1.112286 S    
C8    I1    2.119841 S    
O4    Zn1   2.008446 S    
O3    C1    1.292468 A    
O8    Zn1   1.905357 S    
