data_mof_unit_47936.cif
_audit_creation_date              2012-12-11T15:48:53-0500
_audit_creation_method            fapswitch 2.2
_symmetry_space_group_name_H-M    P1
_symmetry_Int_Tables_number       1
_space_group_crystal_system       triclinic
_cell_length_a                    10.948294
_cell_length_b                    10.984316
_cell_length_c                    18.766358
_cell_angle_alpha                 90.504523
_cell_angle_beta                  90.404999
_cell_angle_gamma                 60.322945
_cell_volume                      1960.71854241

loop_
_atom_site_label
_atom_site_type_symbol
_atom_type_description
_atom_site_fract_x
_atom_site_fract_y
_atom_site_fract_z
_atom_type_partial_charge
C1    C     C_R   0.241838 0.644553 0.610897 0.538835
C2    C     C_R   0.583136 0.135682 0.709113 -0.163263
C3    C     C_R   0.576965 0.144383 0.782430 -0.151735
C4    C     C_R   0.653251 0.621421 0.601077 0.541618
C5    C     C_3   0.928115 0.123750 0.789601 -0.264988
C6    C     C_3   0.926203 0.123675 0.708497 -0.272015
C7    C     C_R   0.676841 0.162887 0.672101 0.025109
C8    C     C_R   0.186571 0.665244 0.836562 0.023529
C9    C     C_R   0.165642 0.570078 0.795688 0.033440
C10   C     C_R   0.173140 0.568081 0.721819 0.006496
C11   C     C_R   0.215303 0.762956 0.726652 -0.157204
C12   C     C_3   0.674207 0.548414 0.799936 -0.267278
C13   C     C_R   0.213892 0.760800 0.800747 -0.160395
C14   C     C_3   0.242309 0.414594 0.799644 -0.294834
C15   C     C_3   0.249302 0.412589 0.718920 -0.276297
C16   C     C_R   0.630880 0.225143 0.601783 0.531329
C17   C     C_R   0.200054 0.662892 0.685782 0.021246
C18   C     C_R   0.671129 0.679926 0.173530 0.020196
C19   C     C_R   0.784278 0.577774 0.211893 0.035162
C20   C     C_R   0.784705 0.571820 0.284508 0.026618
C21   C     C_R   0.558902 0.782031 0.287120 -0.169126
C22   C     C_R   0.560530 0.788269 0.212176 -0.164919
C23   C     C_3   0.697260 0.674060 0.812373 0.046942
C24   C     C_3   0.862084 0.422870 0.202199 -0.279661
C25   C     C_3   0.865510 0.414664 0.282588 -0.270373
C26   C     C_R   0.666391 0.665876 0.323268 0.019829
C27   C     C_R   0.647687 0.179281 0.171393 0.017193
C28   C     C_R   0.218533 0.651127 0.402226 0.549570
C29   C     C_R   0.517969 0.233275 0.205198 0.020796
C30   C     C_R   0.511846 0.240687 0.278250 0.047342
C31   C     C_R   0.759458 0.160915 0.286013 -0.174387
C32   C     C_R   0.764738 0.158944 0.212088 -0.169218
C33   C     C_3   0.403786 0.196251 0.200539 -0.272646
C34   C     C_3   0.668515 0.646792 0.676408 0.047908
C35   C     C_3   0.400163 0.200595 0.281211 -0.268203
C36   C     C_R   0.633373 0.195046 0.319835 0.023899
C37   C     C_R   0.051028 0.728885 0.195288 0.018591
C38   C     C_R   0.059053 0.833640 0.234162 0.025460
C39   C     C_R   0.095605 0.815241 0.305011 0.023221
C40   C     C_R   0.643520 0.624157 0.393119 0.546669
C41   C     C_R   0.099570 0.593639 0.304165 -0.156407
C42   C     C_R   0.062776 0.612246 0.231738 -0.155060
C43   C     C_3   0.147848 0.899903 0.219599 -0.266593
C44   C     C_3   0.184164 0.883480 0.297361 -0.270034
C45   C     C_3   0.816457 0.624846 0.690384 -0.240949
C46   C     C_R   0.129250 0.689457 0.339208 0.017954
C47   C     C_R   0.700851 0.102431 0.895964 0.560495
C48   C     C_R   0.721896 0.687476 0.888730 0.547582
C49   C     C_R   0.120640 0.704884 0.906671 0.562667
C50   C     C_R   0.674444 0.109880 0.102990 0.544972
C51   C     C_R   0.697631 0.691696 0.098671 0.537880
C52   C     C_R   0.615084 0.231294 0.394273 0.546585
C53   C     C_R   0.028357 0.746464 0.118817 0.564746
C54   C     C_3   0.565584 0.806882 0.782934 -0.234000
C55   C     C_3   0.557425 0.795971 0.701603 -0.242011
C56   C     C_3   0.649477 0.537585 0.720044 -0.223288
C57   C     C_3   0.830382 0.650028 0.769862 -0.098434
C58   C     C_1   0.854787 0.769430 0.777495 0.199864
C59   C     C_R   0.680097 0.156021 0.823051 0.038380
C60   C     C_R   0.772815 0.185371 0.786147 0.002489
C61   C     C_R   0.769820 0.190001 0.712069 0.016330
Cr1   Cr    Cr6+3 0.392960 0.397920 0.502240 1.005620
Cr2   Cr    Cr6+3 0.398340 0.708480 0.501250 0.999991
Cr3   Cr    Cr6+3 0.708670 0.393570 0.496460 1.003159
Cr4   Cr    Cr6+3 0.937650 0.938540 0.007610 1.005402
Cr5   Cr    Cr6+3 0.625330 0.937370 0.994520 1.002245
Cr6   Cr    Cr6+3 0.937940 0.625230 0.001190 1.008318
H1    H     H_    0.570776 0.902275 0.796145 0.151118
H2    H     H_    0.975579 0.017204 0.684319 0.159666
H3    H     H_    0.234021 0.840509 0.701732 0.125851
H4    H     H_    0.468415 0.818408 0.807812 0.111812
H5    H     H_    0.225682 0.840025 0.829801 0.120375
H6    H     H_    0.175317 0.373296 0.820605 0.133034
H7    H     H_    0.345296 0.375106 0.826787 0.139366
H8    H     H_    0.356447 0.372459 0.697887 0.176852
H9    H     H_    0.186135 0.370647 0.692920 0.126690
H10   H     H_    0.469826 0.861951 0.316037 0.116126
H11   H     H_    0.474132 0.873670 0.184632 0.117189
H12   H     H_    0.727283 0.432002 0.701330 0.149256
H13   H     H_    0.967621 0.382670 0.178135 0.133511
H14   H     H_    0.795751 0.384500 0.176482 0.143372
H15   H     H_    0.803700 0.368405 0.303400 0.176370
H16   H     H_    0.449498 0.820182 0.686956 0.137334
H17   H     H_    0.972991 0.371452 0.305353 0.123000
H18   H     H_    0.853328 0.135861 0.316507 0.125099
H19   H     H_    0.863906 0.128350 0.187025 0.137298
H20   H     H_    0.438980 0.090369 0.178660 0.160239
H21   H     H_    0.306499 0.281167 0.175831 0.133575
H22   H     H_    0.299978 0.285258 0.302978 0.136412
H23   H     H_    0.924572 0.555615 0.790663 0.124474
H24   H     H_    0.438052 0.096336 0.305845 0.134484
H25   H     H_    0.117528 0.499068 0.330477 0.119097
H26   H     H_    0.055239 0.530591 0.203233 0.133171
H27   H     H_    0.088621 0.011070 0.203415 0.123410
H28   H     H_    0.577212 0.874847 0.675361 0.118119
H29   H     H_    0.240527 0.833483 0.185526 0.158792
H30   H     H_    0.297194 0.809327 0.306449 0.165784
H31   H     H_    0.140223 0.984747 0.326773 0.129755
H32   H     H_    0.835696 0.695085 0.655297 0.119772
H33   H     H_    0.767809 0.450288 0.818174 0.128537
H34   H     H_    0.897689 0.515580 0.676374 0.120565
H35   H     H_    0.581994 0.561408 0.830816 0.117788
H36   H     H_    0.542595 0.551437 0.711304 0.128350
H37   H     H_    0.504303 0.120756 0.681417 0.123649
H38   H     H_    0.495454 0.130654 0.806855 0.131307
H39   H     H_    0.982181 0.018194 0.813447 0.196607
H40   H     H_    0.958926 0.198193 0.812679 0.112564
H41   H     H_    0.959996 0.194973 0.685253 0.126342
N1    N     N_1   0.875467 0.862304 0.782444 -0.316656
O1    O     O_R   0.507380 0.255700 0.581440 -0.536181
O2    O     O_R   0.837170 0.593410 0.915250 -0.530534
O3    O     O_R   0.065200 0.635530 0.931570 -0.493995
O4    O     O_R   0.280320 0.527350 0.578930 -0.504671
O5    O     O_R   0.068260 0.828890 0.091840 -0.525264
O6    O     O_R   0.798870 0.057410 0.079340 -0.528157
O7    O     O_R   0.584930 0.080350 0.076780 -0.523274
O8    O     O_R   0.626960 0.809650 0.067060 -0.508537
O9    O     O_R   0.816040 0.596610 0.076510 -0.527307
O10   O     O_R   0.045610 0.638500 0.081060 -0.509930
O11   O     O_3   0.833640 0.833710 0.001100 -0.263029
O12   O     O_R   0.524480 0.695810 0.424040 -0.508637
O13   O     O_R   0.260510 0.739590 0.584590 -0.532873
O14   O     O_R   0.532300 0.695080 0.573820 -0.511156
O15   O     O_R   0.744840 0.503500 0.576370 -0.529894
O16   O     O_R   0.699120 0.276560 0.571960 -0.501257
O17   O     O_R   0.498940 0.256500 0.419860 -0.518392
O18   O     O_R   0.272500 0.528080 0.429150 -0.503631
O19   O     O_R   0.252060 0.740380 0.423010 -0.523102
O20   O     O_R   0.736390 0.504290 0.414790 -0.524146
O21   O     O_R   0.691300 0.277290 0.422170 -0.511636
O22   O     O_3   0.499990 0.499990 0.499980 -0.248072
O23   O     O_R   0.089400 0.825690 0.930570 -0.523480
O24   O     O_R   0.818460 0.054440 0.929850 -0.492872
O25   O     O_R   0.606060 0.077150 0.915510 -0.536269
O26   O     O_R   0.646550 0.806680 0.917570 -0.505524

loop_
_geom_bond_atom_site_label_1
_geom_bond_atom_site_label_2
_ccdc_geom_bond_type
C6    H2    S    
C15   H8    S    
C21   C26   A    
C34   C56   S    
C8    C13   A    
C31   H18   S    
C27   C29   A    
C42   H26   S    
C41   C42   A    
C48   O26   A    
C2    C7    A    
C9    C14   S    
C51   O9    A    
C11   H3    S    
C16   O1    A    
C3    H38   S    
Cr6   O11   S    
C40   O12   A    
C12   C23   S    
C45   C57   S    
C29   C30   A    
C56   H12   S    
Cr5   O7    S    
C30   C35   S    
C14   H7    S    
C6    C61   S    
C33   H21   S    
C18   C19   A    
C10   C15   S    
C31   C36   A    
C5    H40   S    
C5    C6    S    
C54   H1    S    
C20   C25   S    
C10   C17   A    
C58   N1    T    
C29   C33   S    
C43   H27   S    
C4    O15   A    
C50   O6    A    
Cr4   O5    S    
C37   C42   A    
C1    O13   A    
C7    C61   A    
C51   O8    A    
Cr5   O25   S    
C44   H31   S    
C24   H13   S    
C54   H4    S    
C19   C20   A    
C8    C9    A    
Cr5   O8    S    
C25   H17   S    
C41   C46   A    
Cr3   O22   S    
Cr2   O22   S    
C16   O16   A    
Cr2   O19   S    
C36   C52   S    
C28   O18   A    
C37   C53   S    
C15   H9    S    
C34   C55   S    
Cr5   O11   S    
C21   C22   A    
C47   O24   A    
Cr4   O6    S    
C1    O4    A    
Cr2   O12   S    
C18   C51   S    
C5    H39   S    
C49   O23   A    
C4    C34   S    
C57   H23   S    
C14   H6    S    
C24   C25   S    
C22   H11   S    
Cr1   O4    S    
C55   H28   S    
C45   H32   S    
Cr1   O17   S    
C52   O17   A    
Cr3   O15   S    
C4    O14   A    
C60   C61   A    
C43   C44   S    
C12   H35   S    
C37   C38   A    
C44   H30   S    
Cr6   O3    S    
C31   C32   A    
Cr1   O1    S    
C24   H14   S    
C2    H37   S    
C32   H19   S    
C48   O2    A    
C53   O10   A    
C43   H29   S    
C34   C45   S    
C12   C56   S    
C45   H34   S    
C39   C46   A    
C35   H22   S    
Cr6   O2    S    
C7    C16   S    
Cr3   O21   S    
C49   O3    A    
C47   O25   A    
C25   H15   S    
C55   H16   S    
Cr4   O23   S    
C53   O5    A    
C23   C54   S    
C9    C10   A    
C23   C57   S    
C54   C55   S    
C11   C17   A    
C23   C48   S    
C5    C60   S    
C27   C32   A    
C18   C22   A    
Cr1   O22   S    
C56   H36   S    
Cr2   O14   S    
C27   C50   S    
C39   C44   S    
C13   H5    S    
C40   O20   A    
C1    C17   S    
C30   C36   A    
C28   C46   S    
C52   O21   A    
C2    C3    A    
C33   H20   S    
C38   C43   S    
Cr2   O13   S    
C11   C13   A    
C26   C40   S    
C57   C58   S    
C38   C39   A    
C20   C26   A    
C33   C35   S    
Cr4   O11   S    
C19   C24   S    
C50   O7    A    
Cr6   O9    S    
C12   H33   S    
C47   C59   S    
Cr5   O26   S    
Cr1   O18   S    
C59   C60   A    
C41   H25   S    
Cr3   O20   S    
Cr3   O16   S    
C21   H10   S    
C6    H41   S    
C14   C15   S    
Cr6   O10   S    
C8    C49   S    
Cr4   O24   S    
C28   O19   A    
C3    C59   A    
C35   H24   S    
