data_mof_unit_34025.cif
_audit_creation_date              2012-10-26T20:17:37-0400
_audit_creation_method            fapswitch 2.2
_symmetry_space_group_name_H-M    P1
_symmetry_Int_Tables_number       1
_space_group_crystal_system       triclinic
_cell_length_a                    27.744027
_cell_length_b                    8.669431
_cell_length_c                    7.43635
_cell_angle_alpha                 103.266151
_cell_angle_beta                  93.881886
_cell_angle_gamma                 92.385102
_cell_volume                      1733.89257322

loop_
_atom_site_label
_atom_site_type_symbol
_atom_type_description
_atom_site_fract_x
_atom_site_fract_y
_atom_site_fract_z
_atom_type_partial_charge
C1    C     C_R   0.498520 0.199541 0.452966 0.555005
C2    C     C_R   0.870042 0.352456 0.512706 0.048099
C3    C     C_R   0.354778 0.499766 0.511310 -0.018115
C4    C     C_R   0.645682 0.501429 0.491888 -0.028790
C5    C     C_R   0.972858 0.344283 0.532987 -0.015555
C6    C     C_R   0.030971 0.632284 0.659021 -0.018452
C7    C     C_R   0.979766 0.635963 0.640521 0.031868
C8    C     C_R   0.024213 0.342413 0.534882 0.031837
C9    C     C_R   0.950898 0.491523 0.580147 0.032550
C10   C     C_R   0.052993 0.487103 0.597438 0.032979
C11   C     C_R   0.942463 0.203902 0.478564 -0.120533
C12   C     C_R   0.501450 0.800455 0.547032 0.557114
C13   C     C_R   0.061032 0.769964 0.737287 -0.114829
C14   C     C_R   0.892261 0.206756 0.465667 0.249106
C15   C     C_R   0.111176 0.770285 0.738761 0.257224
C16   C     C_R   0.407592 0.502050 0.503289 0.584737
C17   C     C_R   0.592538 0.498242 0.496613 0.581424
C18   C     C_R   0.048019 0.200882 0.472671 -0.128386
C19   C     C_R   0.956327 0.780471 0.674691 -0.132113
C20   C     C_2   0.497777 0.031413 0.426614 -0.116612
C21   C     C_2   0.502145 0.968574 0.573379 -0.122694
C22   C     C_R   0.176177 0.346389 0.508632 0.457885
C23   C     C_R   0.104262 0.486956 0.595381 -0.056148
C24   C     C_R   0.827283 0.644415 0.571304 0.452913
C25   C     C_R   0.183975 0.624459 0.644667 0.496621
C26   C     C_R   0.819300 0.362216 0.509192 0.484865
C27   C     C_R   0.273919 0.560142 0.403838 0.301788
C28   C     C_R   0.719990 0.437169 0.336804 0.313580
C29   C     C_R   0.324733 0.571162 0.396172 0.216467
C30   C     C_R   0.668848 0.425967 0.333661 0.218871
C31   C     C_R   0.334299 0.423678 0.637152 -0.157254
C32   C     C_R   0.673748 0.582071 0.652092 -0.143886
C33   C     C_R   0.284698 0.417709 0.649931 -0.061713
C34   C     C_R   0.899558 0.494938 0.564284 -0.061949
C35   C     C_R   0.723760 0.584970 0.659110 -0.081362
C36   C     C_R   0.254358 0.486597 0.536639 0.169146
C37   C     C_R   0.747342 0.511249 0.504921 0.156510
C38   C     C_R   0.126200 0.344117 0.524488 0.048248
C39   C     C_R   0.877667 0.641637 0.598276 0.043945
C40   C     C_R   0.097845 0.202308 0.466661 -0.056934
C41   C     C_R   0.906388 0.782767 0.654582 -0.061613
C42   C     C_R   0.133552 0.629372 0.661273 0.051725
Cl1   Cl    Cl    0.634409 0.304677 0.139355 -0.475813
Cl2   Cl    Cl    0.351199 0.686496 0.256456 -0.513458
Cl3   Cl    Cl    0.859978 0.023331 0.368055 -0.456656
Cl4   Cl    Cl    0.142865 0.954164 0.840513 -0.461516
Cu1   Cu    Cu3+1 0.505380 0.517380 0.684380 1.030235
Cu2   Cu    Cu3+1 0.494620 0.482620 0.315620 1.065291
H1    H     H_    0.356836 0.368347 0.726219 0.161022
H2    H     H_    0.046580 0.880562 0.802402 0.143740
H3    H     H_    0.029395 0.086194 0.422182 0.113777
H4    H     H_    0.975513 0.895258 0.711018 0.108737
H5    H     H_    0.493647 0.959096 0.285497 0.149612
H6    H     H_    0.506271 0.040891 0.714499 0.148260
H7    H     H_    0.729834 0.314479 0.837387 0.385685
H8    H     H_    0.261632 0.714520 0.013462 0.409228
H9    H     H_    0.656936 0.641149 0.774675 0.187646
H10   H     H_    0.462075 0.378237 0.948507 0.240580
H11   H     H_    0.537931 0.621737 0.051491 0.248737
H12   H     H_    0.269601 0.359950 0.749786 0.213427
H13   H     H_    0.744500 0.642441 0.787438 0.210444
H14   H     H_    0.114042 0.090904 0.413861 0.203772
H15   H     H_    0.890368 0.896775 0.683275 0.204623
H16   H     H_    0.956401 0.087878 0.442494 0.135110
N1    N     N_R   0.203604 0.485789 0.563580 -0.387382
N2    N     N_R   0.799177 0.505789 0.525587 -0.391761
N3    N     N_2   0.486510 0.456430 0.038510 -0.236093
N4    N     N_2   0.513490 0.543570 0.961490 -0.237309
O1    O     O_R   0.503500 0.286120 0.619780 -0.509611
O2    O     O_2   0.806452 0.784641 0.590596 -0.397922
O3    O     O_2   0.790071 0.230908 0.493451 -0.364610
O4    O     O_2   0.213405 0.756494 0.704856 -0.375793
O5    O     O_2   0.798403 0.442424 0.138461 -0.266494
O6    O     O_2   0.754875 0.185473 0.113905 -0.169030
O7    O     O_3   0.716205 0.384837 0.944008 -0.489037
O8    O     O_2   0.184966 0.563123 0.226073 -0.255387
O9    O     O_2   0.233209 0.814634 0.327953 -0.179241
O10   O     O_3   0.257112 0.608105 0.039564 -0.487938
O11   O     O_R   0.496500 0.713880 0.380220 -0.503527
O12   O     O_R   0.494410 0.256780 0.308360 -0.488924
O13   O     O_R   0.505590 0.743220 0.691640 -0.497417
O14   O     O_R   0.434810 0.514700 0.655690 -0.511121
O15   O     O_R   0.565190 0.485300 0.344310 -0.461323
O16   O     O_R   0.425720 0.485350 0.344280 -0.452585
O17   O     O_R   0.574280 0.514650 0.655720 -0.491750
O18   O     O_2   0.197188 0.210912 0.435230 -0.400699
S1    S     S_3+6 0.749345 0.359960 0.131775 0.109958
S2    S     S_3+6 0.235369 0.639176 0.249829 0.114946

loop_
_geom_bond_atom_site_label_1
_geom_bond_atom_site_label_2
_ccdc_geom_bond_type
H8    O10   S    
C27   C29   A    
C24   C39   A    
C24   O2    S    
C39   C41   A    
C23   C42   A    
C17   O17   A    
Cu1   O17   S    
Cu2   O11   S    
C35   C37   A    
C5    C11   A    
C21   H6    S    
C11   C14   A    
C22   C38   A    
C12   O11   A    
C16   O16   A    
C33   C36   A    
C40   H14   S    
Cu1   O14   S    
C3    C29   A    
C18   C40   A    
Cu1   O1    S    
C19   H4    S    
O5    S1    D    
O9    S2    D    
C31   C33   A    
O6    S1    D    
O8    S2    D    
C24   N2    A    
H7    O7    S    
C2    C34   A    
C22   O18   S    
C26   O3    S    
C32   H9    S    
C31   H1    S    
C18   H3    S    
C14   Cl3   S    
C34   C39   A    
C26   N2    A    
C32   C35   A    
C25   N1    A    
C35   H13   S    
C11   H16   S    
C36   N1    S    
C12   C21   S    
C1    O1    A    
Cu2   O16   S    
C17   O15   A    
N3    N4    D    
C22   N1    A    
C5    C9    A    
H11   N4    S    
Cu1   Cu2   S    
C37   N2    S    
C28   S1    S    
C16   O14   A    
C2    C26   A    
C25   O4    S    
C3    C31   A    
C4    C32   A    
C4    C17   S    
O7    S1    S    
C33   H12   S    
C7    C19   A    
C13   C15   A    
C29   Cl2   S    
C9    C34   A    
C10   C23   A    
C30   Cl1   S    
C41   H15   S    
Cu1   N4    S    
O10   S2    S    
C7    C9    A    
C1    C20   S    
C15   C42   A    
C20   H5    S    
C25   C42   A    
C6    C10   A    
C5    C8    A    
C6    C7    A    
C27   C36   A    
C23   C38   A    
Cu2   O15   S    
Cu2   O12   S    
C28   C30   A    
C6    C13   A    
C38   C40   A    
C28   C37   A    
C12   O13   A    
Cu1   O13   S    
Cu2   N3    S    
C27   S2    S    
C2    C14   A    
C8    C18   A    
C13   H2    S    
H10   N3    S    
C20   C21   D    
C8    C10   A    
C1    O12   A    
C15   Cl4   S    
C4    C30   A    
C3    C16   S    
C19   C41   A    
