data_mof_unit_33086.cif
_audit_creation_date              2012-12-10T20:43:22-0500
_audit_creation_method            fapswitch 2.2
_symmetry_space_group_name_H-M    P1
_symmetry_Int_Tables_number       1
_space_group_crystal_system       triclinic
_cell_length_a                    15.845105
_cell_length_b                    10.677275
_cell_length_c                    9.875658
_cell_angle_alpha                 89.916819
_cell_angle_beta                  90.594872
_cell_angle_gamma                 90.140887
_cell_volume                      1670.69213757

loop_
_atom_site_label
_atom_site_type_symbol
_atom_type_description
_atom_site_fract_x
_atom_site_fract_y
_atom_site_fract_z
_atom_type_partial_charge
C1    C     C_R   0.502547 0.259956 0.500135 0.872956
C2    C     C_R   0.533077 0.935495 0.379867 -0.209964
C3    C     C_R   0.516485 0.871380 0.500785 -0.106325
C4    C     C_R   0.339451 0.500011 0.499288 0.898058
C5    C     C_R   0.515950 0.935860 0.623175 0.118186
C6    C     C_3   0.455513 0.927889 0.738147 -0.447026
C7    C     C_3   0.454906 0.069810 0.737851 -0.495834
C8    C     C_R   0.458856 0.407962 0.070041 0.189643
C9    C     C_R   0.546004 0.585120 0.072626 -0.071116
C10   C     C_R   0.545718 0.585477 0.928701 -0.093413
C11   C     C_R   0.460525 0.406289 0.927765 0.205505
C12   C     C_R   0.046289 0.425971 0.576861 -0.315437
C13   C     C_3   0.369805 0.370732 0.915902 -0.518678
C14   C     C_3   0.366401 0.375863 0.069824 -0.329827
C15   C     C_R   0.502776 0.740001 0.499966 0.882259
C16   C     C_R   0.660560 0.500270 0.500695 0.894131
C17   C     C_R   0.959135 0.426284 0.586276 0.019118
C18   C     C_R   0.913037 0.510679 0.503971 0.048210
C19   C     C_R   0.953736 0.595073 0.415029 -0.114096
C20   C     C_R   0.042707 0.595887 0.410210 -0.025581
C21   C     C_R   0.087327 0.508977 0.491120 0.107257
C22   C     C_2   0.308911 0.477920 0.119525 0.574998
C23   C     C_1   0.823665 0.506365 0.503908 0.015842
C24   C     C_2   0.920408 0.335893 0.682866 0.421884
C25   C     C_2   0.901966 0.678679 0.325863 0.357870
C26   C     C_2   0.088022 0.691260 0.327401 0.467261
C27   C     C_1   0.176408 0.505802 0.494135 0.020252
C28   C     C_1   0.251184 0.502693 0.497203 -0.167753
C29   C     C_1   0.748843 0.503172 0.502416 -0.124995
C30   C     C_R   0.515632 0.063629 0.623226 0.156929
C31   C     C_R   0.516070 0.128576 0.500939 -0.100608
C32   C     C_R   0.532865 0.065035 0.379944 -0.214944
H1    H     H_    0.581897 0.655315 0.127365 0.135544
H2    H     H_    0.960137 0.267805 0.734489 0.060572
H3    H     H_    0.841915 0.714309 0.360724 0.074908
H4    H     H_    0.060221 0.782711 0.310240 0.097239
H5    H     H_    0.540213 0.886674 0.284586 0.172276
H6    H     H_    0.393819 0.885742 0.708269 0.214114
H7    H     H_    0.485221 0.887242 0.830693 0.208334
H8    H     H_    0.392923 0.110037 0.707088 0.198046
H9    H     H_    0.581236 0.656131 0.874990 0.142385
H10   H     H_    0.361416 0.274492 0.875583 0.181051
H11   H     H_    0.539897 0.114232 0.284685 0.173786
H12   H     H_    0.083062 0.361574 0.638791 0.142037
H13   H     H_    0.483980 0.111276 0.830456 0.208936
H14   H     H_    0.331372 0.442924 0.862548 0.240389
H15   H     H_    0.254785 0.453092 0.180424 0.076092
H16   H     H_    0.353794 0.283122 0.116925 0.134046
N1    N     N_R   0.499440 0.499140 0.142800 -0.097953
N2    N     N_R   0.499440 0.499180 0.857150 -0.100476
O1    O     O_R   0.500010 0.316790 0.614690 -0.613488
O2    O     O_2   0.845179 0.336469 0.708114 -0.556599
O3    O     O_2   0.923895 0.704079 0.210870 -0.557642
O4    O     O_2   0.156079 0.668679 0.276146 -0.554231
O5    O     O_R   0.500000 0.316760 0.385350 -0.634137
O6    O     O_R   0.378030 0.499990 0.614640 -0.619274
O7    O     O_R   0.378020 0.499950 0.385300 -0.602680
O8    O     O_R   0.500000 0.683240 0.614650 -0.623149
O9    O     O_R   0.499990 0.683210 0.385310 -0.613201
O10   O     O_R   0.621980 0.500050 0.614700 -0.595924
O11   O     O_R   0.621970 0.500010 0.385360 -0.624956
O12   O     O_2   0.321015 0.587621 0.089938 -0.525501
Zn1   Zn    Zn3+2 0.500010 0.500020 0.653130 0.968930
Zn2   Zn    Zn3+2 0.499990 0.499980 0.346870 0.975769

loop_
_geom_bond_atom_site_label_1
_geom_bond_atom_site_label_2
_ccdc_geom_bond_type
C4    O7    A    
C12   C17   A    
O11   Zn2   S    
C14   H16   S    
C7    H8    S    
C6    H6    S    
C24   O2    D    
C6    C7    S    
C22   O12   D    
C11   C13   S    
C9    C10   A    
C31   C32   A    
O1    Zn1   S    
O5    Zn2   S    
C14   C22   S    
C19   C20   A    
C22   H15   S    
C21   C27   S    
O6    Zn1   S    
C9    N1    A    
C12   H12   S    
C7    C30   S    
C13   C14   S    
C4    O6    A    
C10   H9    S    
C9    H1    S    
N2    Zn1   S    
C1    O1    A    
C2    H5    S    
O9    Zn2   S    
C5    C6    S    
C20   C26   S    
C23   C29   T    
C25   H3    S    
C8    C11   A    
C16   O10   A    
C7    H13   S    
C26   H4    S    
C13   H10   S    
C4    C28   S    
C32   H11   S    
C25   O3    D    
C17   C18   A    
C2    C3    A    
O10   Zn1   S    
C1    O5    A    
C30   C31   A    
C19   C25   S    
C15   O8    A    
C8    N1    A    
C17   C24   S    
C16   O11   A    
C18   C23   S    
C10   N2    A    
C26   O4    D    
C1    C31   S    
C3    C15   S    
C20   C21   A    
O7    Zn2   S    
C2    C32   A    
C18   C19   A    
C5    C30   A    
C27   C28   T    
N1    Zn2   S    
C11   N2    A    
C13   H14   S    
C8    C14   S    
C16   C29   S    
C6    H7    S    
C15   O9    A    
C12   C21   A    
C24   H2    S    
O8    Zn1   S    
C3    C5    A    
