data_mof_unit_59849.cif
_audit_creation_date              2013-03-05T16:11:40-0500
_audit_creation_method            fapswitch 2.2
_symmetry_space_group_name_H-M    P1
_symmetry_Int_Tables_number       1
_space_group_crystal_system       triclinic
_cell_length_a                    10.769023
_cell_length_b                    9.485837
_cell_length_c                    19.393192
_cell_angle_alpha                 90.158224
_cell_angle_beta                  92.119402
_cell_angle_gamma                 90.203524
_cell_volume                      1979.70057491

loop_
_atom_site_label
_atom_site_type_symbol
_atom_site_description
_atom_site_fract_x
_atom_site_fract_y
_atom_site_fract_z
_atom_type_partial_charge
O1    O     O_R   0.317570 0.620260 0.500040 -0.608849
O2    O     O_R   0.317570 0.379740 0.500040 -0.609825
C1    C     C_R   0.260177 0.499902 0.499906 0.755498
O3    O     O_R   0.499870 0.620300 0.400170 -0.592809
O4    O     O_R   0.499870 0.379700 0.400170 -0.593068
C2    C     C_R   0.500029 0.499802 0.367703 0.900300
Cu1   Cu    Cu3+1 0.499860 0.642410 0.500030 0.986386
Cu2   Cu    Cu3+1 0.499860 0.357590 0.500030 0.984502
O5    O     O_R   0.682190 0.620260 0.500020 -0.563448
O6    O     O_R   0.682190 0.379740 0.500020 -0.559798
O7    O     O_R   0.499890 0.620220 0.599880 -0.512861
O8    O     O_R   0.499890 0.379780 0.599880 -0.521778
C3    C     C_R   0.740103 0.500123 0.498916 0.872830
C4    C     C_R   0.491022 0.500294 0.632449 0.863582
C5    C     C_R   0.530979 0.623588 0.256727 -0.198762
C6    C     C_R   0.483815 0.374256 0.254847 -0.242416
H1    H     H_    0.547451 0.721285 0.284665 0.173705
H2    H     H_    0.459839 0.278452 0.281600 0.162186
C7    C     C_R   0.538314 0.623816 0.184948 0.443993
C8    C     C_R   0.489804 0.371997 0.182735 0.451192
C9    C     C_R   0.513543 0.498642 0.147002 -0.147250
C10   C     C_R   0.504479 0.499306 0.292048 -0.125857
N1    N     N_R   0.537906 0.382853 0.034216 -0.186170
N2    N     N_R   0.481496 0.620141 0.035593 -0.164265
N3    N     N_R   0.532771 0.383924 0.965602 -0.225756
N4    N     N_R   0.476876 0.621520 0.966985 -0.232138
C11   C     C_R   0.501818 0.503207 0.930645 0.451271
C12   C     C_R   0.511766 0.500720 0.070655 0.475113
C13   C     C_R   0.481962 0.629778 0.818214 -0.228950
C14   C     C_R   0.482773 0.375758 0.818402 -0.225880
H3    H     H_    0.479972 0.729633 0.845383 0.195770
H4    H     H_    0.480210 0.276446 0.845780 0.194140
C15   C     C_R   0.469560 0.629667 0.746134 0.487212
C16   C     C_R   0.468489 0.374556 0.746414 0.481949
C17   C     C_R   0.477688 0.501502 0.708876 -0.284096
C18   C     C_R   0.492134 0.503104 0.854710 -0.098662
C19   C     C_3   0.072877 0.650701 0.511286 -0.377737
C20   C     C_3   0.075713 0.402488 0.556113 -0.418639
H5    H     H_    0.096860 0.720817 0.467777 0.217328
H6    H     H_    0.114283 0.294301 0.551367 0.190583
H7    H     H_    0.116405 0.696593 0.559313 0.167217
H8    H     H_    0.106909 0.444388 0.607585 0.159962
C21   C     C_3   0.931710 0.647006 0.518020 -0.349988
C22   C     C_3   0.933028 0.394618 0.551256 -0.353301
H9    H     H_    0.910719 0.666463 0.572878 0.231501
H10   H     H_    0.896612 0.419655 0.602838 0.205332
H11   H     H_    0.889568 0.733175 0.486326 0.238635
H12   H     H_    0.904758 0.285073 0.538815 0.260751
H13   H     H_    0.119813 0.494473 0.385318 0.181501
H14   H     H_    0.095006 0.330636 0.423671 0.192062
C23   C     C_3   0.070373 0.444014 0.428016 -0.423727
C24   C     C_3   0.122690 0.499680 0.498734 0.068684
C25   C     C_3   0.878810 0.500027 0.496419 -0.095998
C26   C     C_3   0.925277 0.464166 0.421623 0.578821
C27   C     C_3   0.620542 0.086142 0.529435 0.263878
C28   C     C_3   0.626462 0.920395 0.520673 0.272338
H15   H     H_    0.696205 0.128747 0.497984 0.126176
H16   H     H_    0.687326 0.900578 0.476265 0.072046
H17   H     H_    0.394269 0.133332 0.592718 0.223679
H18   H     H_    0.431196 0.890775 0.601989 0.251483
C29   C     C_3   0.397475 0.083207 0.541576 -0.219140
C30   C     C_3   0.407220 0.917741 0.548074 -0.216323
C31   C     C_3   0.480136 0.082993 0.430753 -0.307642
C32   C     C_3   0.468043 0.916207 0.431837 -0.285835
N5    N     N_3   0.500250 0.143650 0.501520 -0.199081
N6    N     N_3   0.500250 0.856350 0.501520 -0.184883
H19   H     H_    0.394822 0.128474 0.405655 0.183269
H20   H     H_    0.372022 0.884148 0.415094 0.181925
H21   H     H_    0.558442 0.113408 0.397892 0.181006
H22   H     H_    0.530589 0.872896 0.392814 0.174849
H23   H     H_    0.306163 0.109525 0.516100 0.149114
H24   H     H_    0.314091 0.870945 0.536584 0.147397
N7    N     N_R   0.892513 0.582573 0.374275 0.110848
O9    O     O_R   0.976772 0.658268 0.345066 -0.381626
O10   O     O_R   0.776589 0.615589 0.362238 -0.383795
N8    N     N_R   0.867119 0.333043 0.393798 0.096183
O11   O     O_R   0.797951 0.335156 0.337297 -0.329965
O12   O     O_R   0.891757 0.211283 0.421765 -0.419231
N9    N     N_R   0.646363 0.132075 0.601405 0.188541
O13   O     O_R   0.741597 0.212145 0.616329 -0.370966
O14   O     O_R   0.586263 0.079303 0.652199 -0.258922
N10   N     N_R   0.694687 0.857298 0.580023 0.142202
O15   O     O_R   0.811741 0.890121 0.588019 -0.399403
O16   O     O_R   0.638893 0.815544 0.634406 -0.258386
O17   O     O_3   0.564715 0.748708 0.151850 -0.577424
C33   C     C_3   0.694207 0.771549 0.156713 -0.260361
H25   H     H_    0.745724 0.682248 0.133872 0.176010
H26   H     H_    0.726878 0.789883 0.211120 0.194948
H27   H     H_    0.716218 0.867625 0.127001 0.184006
O18   O     O_3   0.458835 0.249953 0.146559 -0.559971
C34   C     C_3   0.550675 0.146795 0.159969 -0.194587
H28   H     H_    0.646002 0.188553 0.152259 0.158720
H29   H     H_    0.534938 0.058600 0.122971 0.222214
H30   H     H_    0.543821 0.102768 0.212739 0.155111
O19   O     O_3   0.440852 0.754826 0.713392 -0.510417
C35   C     C_3   0.310165 0.769055 0.711147 -0.308199
H31   H     H_    0.272092 0.768246 0.763787 0.169664
H32   H     H_    0.265070 0.685235 0.678479 0.130632
H33   H     H_    0.285266 0.872027 0.687781 0.173390
O20   O     O_3   0.436916 0.249630 0.713825 -0.507298
C36   C     C_3   0.307159 0.230744 0.717501 -0.299627
H34   H     H_    0.255933 0.315296 0.688883 0.128411
H35   H     H_    0.277529 0.226062 0.771843 0.169344
H36   H     H_    0.280740 0.128756 0.693087 0.175722

loop_
_geom_bond_atom_site_label_1
_geom_bond_atom_site_label_2
_geom_bond_distance
_ccdc_geom_bond_type
C20   H6    1.113324 S    
C27   C28   1.582699 S    
C31   N5    1.494727 S    
C36   H34   1.112915 S    
N7    O9    1.302087 A    
O19   C35   1.413380 S    
Cu1   Cu2   2.701755 S    
O17   C33   1.410145 S    
Cu1   O7    1.948383 S    
C13   C18   1.398823 A    
N4    C11   1.356516 A    
C32   H20   1.113356 S    
C7    C9    1.414557 A    
N2    N4    1.329736 A    
C20   H8    1.113245 S    
O4    C2    1.303229 A    
O7    C4    1.307613 A    
C33   H26   1.112855 S    
C20   C24   1.545361 S    
C2    C10   1.469734 S    
C35   H33   1.107538 S    
C13   C15   1.399285 A    
H18   C30   1.098784 S    
C16   C17   1.413928 A    
O5    C3    1.301544 A    
C22   C25   1.560687 S    
C21   C25   1.554779 S    
C5    C10   1.398944 A    
C31   H21   1.113345 S    
H13   C23   1.109608 S    
C35   H32   1.114052 S    
C16   O20   1.377115 S    
C32   H22   1.110466 S    
C6    C8    1.402463 A    
C29   H23   1.113493 S    
Cu2   N5    2.029703 S    
C36   H35   1.113315 S    
C13   H3    1.083290 S    
N7    O10   1.301027 A    
O3    Cu1   1.947356 S    
C15   O19   1.378608 S    
C27   N5    1.491166 S    
C22   H10   1.113215 S    
C3    C25   1.496314 S    
C31   H19   1.112674 S    
H17   C29   1.100443 S    
C14   C16   1.398870 A    
C23   C24   1.553649 S    
N8    O11   1.302190 A    
O3    C2    1.303478 A    
C34   H28   1.114419 S    
N9    O14   1.299002 A    
C19   C24   1.553209 S    
C30   N6    1.492003 S    
C33   H25   1.114008 S    
C25   C26   1.588193 S    
C8    O18   1.385327 S    
O6    C3    1.299804 A    
C31   C32   1.587250 S    
O1    C1    1.296278 A    
C32   N6    1.496623 S    
C19   C21   1.530919 S    
C5    C7    1.397180 A    
C20   C22   1.537520 S    
C29   N5    1.489527 S    
C34   H29   1.109111 S    
C26   N7    1.487865 S    
C27   N9    1.477252 S    
Cu2   O8    1.947227 S    
C35   H31   1.114140 S    
H14   C23   1.112355 S    
C30   H24   1.110091 S    
N1    C12   1.356935 A    
C21   H9    1.110854 S    
C26   N8    1.481978 S    
Cu2   O6    1.973989 S    
C9    C12   1.480207 S    
O8    C4    1.310019 A    
C36   H36   1.107514 S    
N10   O16   1.295253 A    
C27   H15   1.111333 S    
C4    C17   1.494393 S    
C5    H1    1.082972 S    
C6    C10   1.399503 A    
O1    Cu1   1.973563 S    
O2    Cu2   1.975047 S    
N2    C12   1.357331 A    
N8    O12   1.301385 A    
C7    O17   1.382625 S    
C33   H27   1.109158 S    
O4    Cu2   1.948508 S    
C1    C24   1.479925 S    
C28   N10   1.472140 S    
C11   C18   1.472454 S    
N3    C11   1.356909 A    
C14   C18   1.397991 A    
C23   C26   1.575239 S    
O2    C1    1.298516 A    
C19   H5    1.113107 S    
Cu1   N6    2.029513 S    
C14   H4    1.083411 S    
O18   C34   1.411596 S    
C28   N6    1.519855 S    
O20   C36   1.412602 S    
C15   C17   1.417176 A    
C28   H16   1.117309 S    
N1    N3    1.329817 A    
C19   H7    1.113898 S    
C29   C30   1.578535 S    
N9    O13   1.297595 A    
Cu1   O5    1.975474 S    
C8    C9    1.415737 A    
C6    H2    1.082858 S    
N10   O15   1.300963 A    
C21   H11   1.112045 S    
C22   H12   1.105263 S    
C34   H30   1.111259 S    
