data_mof_unit_21239.cif
_audit_creation_date              2012-10-26T19:00:12-0400
_audit_creation_method            fapswitch 2.2
_symmetry_space_group_name_H-M    P1
_symmetry_Int_Tables_number       1
_space_group_crystal_system       triclinic
_cell_length_a                    10.7797
_cell_length_b                    10.797034
_cell_length_c                    9.579475
_cell_angle_alpha                 90.127923
_cell_angle_beta                  90.752764
_cell_angle_gamma                 90.623809
_cell_volume                      1114.7780319

loop_
_atom_site_label
_atom_site_type_symbol
_atom_type_description
_atom_site_fract_x
_atom_site_fract_y
_atom_site_fract_z
_atom_type_partial_charge
C1    C     C_R   0.495670 0.262560 0.499670 0.539678
C2    C     C_R   0.864559 0.193957 0.883053 -0.094817
C3    C     C_R   0.797568 0.101566 0.811793 -0.115519
C4    C     C_R   0.262643 0.502581 0.499206 0.541112
C5    C     C_R   0.771945 0.114185 0.669180 -0.120043
C6    C     C_R   0.812327 0.219629 0.597743 -0.074476
C7    C     C_R   0.881059 0.312354 0.668222 0.066680
C8    C     C_R   0.433565 0.062922 0.608000 0.005563
C9    C     C_R   0.482612 0.129455 0.496104 0.005255
C10   C     C_R   0.513841 0.064699 0.374338 -0.168490
C11   C     C_R   0.515467 0.935975 0.374904 -0.164702
C12   C     C_R   0.246168 0.833531 0.134579 -0.098786
C13   C     C_R   0.487046 0.870677 0.497233 0.005502
C14   C     C_R   0.437529 0.935741 0.609052 0.010326
C15   C     C_3   0.460670 0.930511 0.762818 -0.271799
C16   C     C_R   0.498057 0.737561 0.499941 0.556387
C17   C     C_3   0.452992 0.071375 0.762461 -0.268523
C18   C     C_R   0.553711 0.595811 0.075041 0.109171
C19   C     C_R   0.436399 0.411471 0.070552 0.320601
C20   C     C_R   0.437637 0.412162 0.922918 0.056330
C21   C     C_R   0.555526 0.594472 0.927786 0.130566
C22   C     C_3   0.688863 0.634448 0.924697 0.105853
C23   C     C_R   0.932753 0.576260 0.410355 -0.158244
C24   C     C_3   0.686657 0.636972 0.083689 0.118781
C25   C     C_R   0.737471 0.496814 0.500617 0.549759
C26   C     C_R   0.220190 0.868628 0.271607 -0.099460
C27   C     C_R   0.159731 0.785977 0.360692 -0.085269
C28   C     C_R   0.123160 0.668298 0.312114 0.051674
C29   C     C_R   0.147808 0.634007 0.173837 -0.061637
C30   C     C_R   0.210039 0.716272 0.085699 -0.109308
C31   C     C_R   0.871509 0.494936 0.500710 0.001432
C32   C     C_R   0.939173 0.414652 0.588480 -0.024192
C33   C     C_R   0.067951 0.422427 0.588550 -0.156095
C34   C     C_R   0.128809 0.503194 0.498071 0.005171
C35   C     C_R   0.061448 0.580077 0.406944 -0.037799
C36   C     C_R   0.907670 0.298169 0.811356 -0.048578
Cu1   Cu    Cu3+1 0.499990 0.499980 0.640670 0.973968
Cu2   Cu    Cu3+1 0.500010 0.500020 0.359330 0.972978
H1    H     H_    0.765785 0.020013 0.866931 0.105979
H2    H     H_    0.388126 0.340497 0.865275 0.129754
H3    H     H_    0.748535 0.568379 0.134572 0.184436
H4    H     H_    0.120546 0.543192 0.135282 0.104753
H5    H     H_    0.880129 0.637980 0.343521 0.160006
H6    H     H_    0.121516 0.360335 0.654127 0.116629
H7    H     H_    0.963122 0.367019 0.866892 0.108595
H8    H     H_    0.294173 0.897266 0.066391 0.105815
H9    H     H_    0.793817 0.226865 0.486661 0.100869
H10   H     H_    0.337186 0.346483 0.218735 0.369988
H11   H     H_    0.850662 0.577209 0.875056 0.310679
H12   H     H_    0.721430 0.041743 0.613839 0.122225
H13   H     H_    0.703235 0.725411 0.872356 0.100418
H14   H     H_    0.648331 0.814335 0.086604 0.297985
H15   H     H_    0.141626 0.813421 0.467268 0.103490
H16   H     H_    0.230381 0.689099 0.979653 0.101152
H17   H     H_    0.884985 0.183803 0.993336 0.114301
H18   H     H_    0.544118 0.112839 0.281497 0.164535
H19   H     H_    0.544573 0.888460 0.281946 0.171003
H20   H     H_    0.382981 0.884857 0.818695 0.131328
H21   H     H_    0.554707 0.895973 0.789916 0.122477
H22   H     H_    0.369306 0.106082 0.815960 0.140084
H23   H     H_    0.540763 0.118951 0.793338 0.165041
H24   H     H_    0.247589 0.959636 0.309115 0.126733
N1    N     N_R   0.500790 0.500930 0.147930 -0.248775
N2    N     N_R   0.500790 0.500890 0.852020 -0.241594
O1    O     O_R   0.500000 0.319640 0.618810 -0.507359
O2    O     O_3   0.765830 0.540668 0.876159 -0.685818
O3    O     O_3   0.701772 0.756572 0.140354 -0.735200
O4    O     O_R   0.500010 0.319680 0.381230 -0.501373
O5    O     O_R   0.319640 0.499990 0.618790 -0.519818
O6    O     O_R   0.319650 0.500030 0.381210 -0.524282
O7    O     O_R   0.499990 0.680320 0.618770 -0.511272
O8    O     O_R   0.500000 0.680360 0.381190 -0.477247
O9    O     O_R   0.680350 0.499970 0.618790 -0.425996
O10   O     O_R   0.680360 0.500010 0.381210 -0.514801
O11   O     O_3   0.371737 0.315899 0.131178 -0.733792

loop_
_geom_bond_atom_site_label_1
_geom_bond_atom_site_label_2
_ccdc_geom_bond_type
C25   C31   S    
Cu2   O6    S    
Cu1   O5    S    
C29   H4    S    
C18   C21   A    
C7    C36   A    
C19   C20   A    
C16   O8    A    
C4    O6    A    
C30   H16   S    
C26   C27   A    
C29   C30   A    
C18   C24   S    
C21   C22   S    
C28   C29   A    
C34   C35   A    
C2    H17   S    
C5    C6    A    
C20   H2    S    
C18   N1    A    
C1    O4    A    
C23   H5    S    
C25   O10   A    
C22   O2    S    
C21   N2    A    
C24   O3    S    
C17   H23   S    
C28   C35   S    
C19   N1    A    
C8    C9    A    
Cu1   O1    S    
C1    O1    A    
C10   H18   S    
C9    C10   A    
C3    H1    S    
C13   C14   A    
C24   H3    S    
H10   O11   S    
C16   O7    A    
C4    O5    A    
Cu2   O8    S    
C4    C34   S    
H11   O2    S    
C1    C9    S    
C12   H8    S    
C6    H9    S    
C12   C26   A    
C23   C31   A    
C20   N2    A    
Cu1   Cu2   S    
C31   C32   A    
C33   C34   A    
C36   H7    S    
H14   O3    S    
Cu2   O4    S    
C23   C35   A    
Cu1   O7    S    
C15   H20   S    
C22   C24   S    
C5    H12   S    
Cu1   N2    S    
Cu2   N1    S    
Cu2   O10   S    
C2    C36   A    
C15   C17   S    
Cu1   O9    S    
C8    C14   A    
C7    C32   S    
C12   C30   A    
C33   H6    S    
C15   H21   S    
C3    C5    A    
C27   H15   S    
C6    C7    A    
C8    C17   S    
C32   C33   A    
C19   O11   S    
C2    C3    A    
C26   H24   S    
C11   C13   A    
C25   O9    A    
C10   C11   A    
C17   H22   S    
C13   C16   S    
C27   C28   A    
C14   C15   S    
C11   H19   S    
C22   H13   S    
