data_mof_unit_26458.cif
_audit_creation_date              2012-12-10T18:57:43-0500
_audit_creation_method            fapswitch 2.2
_symmetry_space_group_name_H-M    P1
_symmetry_Int_Tables_number       1
_space_group_crystal_system       triclinic
_cell_length_a                    10.872244
_cell_length_b                    10.857207
_cell_length_c                    9.599893
_cell_angle_alpha                 89.808032
_cell_angle_beta                  88.812323
_cell_angle_gamma                 91.152373
_cell_volume                      1132.7118868

loop_
_atom_site_label
_atom_site_type_symbol
_atom_type_description
_atom_site_fract_x
_atom_site_fract_y
_atom_site_fract_z
_atom_type_partial_charge
C1    C     C_R   0.496375 0.262889 0.500108 0.814170
C2    C     C_R   0.496472 0.130152 0.498141 -0.096650
C3    C     C_R   0.460793 0.066239 0.378867 -0.194627
C4    C     C_R   0.460235 0.937961 0.376767 0.145661
C5    C     C_R   0.504268 0.871725 0.493905 -0.174671
C6    C     C_R   0.555825 0.939029 0.603563 0.041128
C7    C     C_3   0.540043 0.927016 0.758430 0.184282
C8    C     C_3   0.507548 0.064384 0.759785 0.209978
C9    C     C_R   0.607241 0.492367 0.071069 0.174384
C10   C     C_R   0.392705 0.486757 0.073999 0.501054
C11   C     C_R   0.393583 0.493844 0.926444 -0.182323
C12   C     C_R   0.265512 0.507127 0.502636 0.832446
C13   C     C_R   0.607241 0.491256 0.924360 0.237071
C14   C     C_3   0.716602 0.576170 0.915635 -0.466038
C15   C     C_3   0.715868 0.577554 0.074020 -0.512707
C16   C     C_R   0.500027 0.737697 0.499073 0.788474
C17   C     C_R   0.734175 0.500857 0.497971 0.830646
C18   C     C_2   0.933592 0.594405 0.438992 0.152559
C19   C     C_2   0.865947 0.498128 0.489223 -0.320933
C20   C     C_2   0.067818 0.582597 0.420487 0.170457
C21   C     C_2   0.133017 0.523559 0.517412 -0.064696
C22   C     C_R   0.543210 0.064815 0.608814 0.015352
Cu1   Cu    Cu3+1 0.499990 0.499980 0.640670 0.949960
Cu2   Cu    Cu3+1 0.500010 0.500020 0.359330 0.956709
H1    H     H_    0.566720 0.127685 0.821380 0.102670
H2    H     H_    0.307282 0.491410 0.872861 0.160498
H3    H     H_    0.798618 0.530545 0.869937 0.207633
H4    H     H_    0.695181 0.665921 0.867286 0.242920
H5    H     H_    0.797592 0.533141 0.118505 0.203551
H6    H     H_    0.692488 0.667733 0.120111 0.203755
H7    H     H_    0.907046 0.410232 0.511936 0.138162
H8    H     H_    0.426354 0.115296 0.289706 0.154294
H9    H     H_    0.466584 0.859551 0.791121 0.117177
N1    N     N_R   0.500780 0.500930 0.147930 -0.228473
N2    N     N_R   0.500780 0.500890 0.852020 -0.208366
O1    O     O_R   0.500000 0.319640 0.618810 -0.558704
O2    O     O_R   0.500010 0.319680 0.381230 -0.602234
O3    O     O_R   0.321940 0.499980 0.618760 -0.605090
O4    O     O_R   0.321950 0.500020 0.381180 -0.498737
O5    O     O_R   0.499990 0.680320 0.618770 -0.575798
O6    O     O_R   0.500000 0.680360 0.381190 -0.590778
O7    O     O_R   0.678050 0.499980 0.618820 -0.570164
O8    O     O_R   0.678060 0.500020 0.381240 -0.583569
N3    N     N_3   0.878717 0.708764 0.401203 -0.608352
H10   H     H_    0.816778 0.691958 0.321679 0.224755
H11   H     H_    0.829999 0.742327 0.487666 0.230190
O9    O     O_3   0.280284 0.468018 0.140344 -0.577773
C23   C     C_3   0.241338 0.344147 0.121617 0.048228
H12   H     H_    0.311614 0.279983 0.160961 0.134902
H13   H     H_    0.224630 0.325156 0.009632 0.118998
C24   C     C_3   0.120450 0.320194 0.202319 -0.303314
H14   H     H_    0.134207 0.337767 0.314670 0.221362
H15   H     H_    0.049233 0.383368 0.164186 0.210206
C25   C     C_3   0.074918 0.187382 0.185698 -0.955937
H16   H     H_    0.061336 0.165637 0.073997 0.260868
H17   H     H_    0.985692 0.174024 0.242680 0.263334
H18   H     H_    0.142459 0.123407 0.229897 0.258870
N4    N     N_3   0.128300 0.641466 0.302927 -0.551123
H19   H     H_    0.084975 0.610809 0.212877 0.235995
H20   H     H_    0.114396 0.736207 0.310447 0.224461
N5    N     N_3   0.076209 0.491321 0.650071 -0.616722
H21   H     H_    0.095493 0.399404 0.672221 0.215835
H22   H     H_    0.114750 0.546709 0.727349 0.234383
N6    N     N_3   0.405592 0.879371 0.259027 -0.619407
H23   H     H_    0.472482 0.830601 0.204243 0.231640
H24   H     H_    0.334873 0.819558 0.293726 0.248062
O10   O     O_3   0.656302 0.906032 0.816932 -0.610931
C26   C     C_3   0.648337 0.912381 0.963797 0.023073
H25   H     H_    0.596668 0.830523 0.005150 0.135185
H26   H     H_    0.601931 0.996997 0.000134 0.132475
C27   C     C_3   0.778215 0.916162 0.022163 -0.318882
H27   H     H_    0.824108 0.827480 0.001123 0.221840
H28   H     H_    0.833355 0.990718 0.969392 0.229852
C28   C     C_3   0.775586 0.940796 0.178740 -0.920208
H29   H     H_    0.740474 0.034397 0.200118 0.259101
H30   H     H_    0.870163 0.935169 0.219487 0.271166
H31   H     H_    0.715292 0.872088 0.234069 0.255836
O11   O     O_3   0.379688 0.086444 0.774421 -0.602406
C29   C     C_3   0.329838 0.042800 0.903366 0.033699
H32   H     H_    0.296882 0.122538 0.964200 0.145616
H33   H     H_    0.396516 0.995133 0.970015 0.126243
C30   C     C_3   0.220056 0.956339 0.874779 -0.320601
H34   H     H_    0.141030 0.011731 0.841029 0.214328
H35   H     H_    0.244262 0.892279 0.788829 0.222565
C31   C     C_3   0.181539 0.879919 0.002739 -0.916307
H36   H     H_    0.255657 0.815655 0.029803 0.268875
H37   H     H_    0.097217 0.824794 0.980020 0.253787
H38   H     H_    0.161805 0.940366 0.092950 0.265801

loop_
_geom_bond_atom_site_label_1
_geom_bond_atom_site_label_2
_ccdc_geom_bond_type
C8    H1    S    
C19   H7    S    
C7    C8    S    
C31   H36   S    
Cu1   O7    S    
C28   H30   S    
C13   N2    A    
C5    C6    A    
N4    H20   S    
Cu1   O5    S    
C6    C22   A    
Cu2   O4    S    
C1    C2    S    
N5    H22   S    
C9    C13   A    
C17   O7    A    
C5    C16   S    
C23   C24   S    
C26   H25   S    
C28   H31   S    
C2    C22   A    
C8    C22   S    
Cu1   Cu2   S    
C14   H3    S    
C21   N5    S    
C1    O2    A    
C23   H13   S    
C13   C14   S    
C8    O11   S    
Cu2   O6    S    
C7    H9    S    
C3    H8    S    
N3    H11   S    
C15   H5    S    
C31   H37   S    
C25   H17   S    
C28   H29   S    
C24   H14   S    
C29   H33   S    
O11   C29   S    
C18   C19   D    
C11   H2    S    
N4    H19   S    
C12   C21   S    
Cu2   N1    S    
O10   C26   S    
C24   H15   S    
N6    H24   S    
C17   O8    A    
C18   N3    S    
C29   C30   S    
O9    C23   S    
Cu2   O2    S    
C10   N1    A    
C16   O5    A    
C23   H12   S    
C30   H34   S    
C30   H35   S    
C9    N1    A    
C20   N4    S    
C3    C4    A    
Cu1   O3    S    
N3    H10   S    
C15   H6    S    
C27   H28   S    
C31   H38   S    
C25   H16   S    
C4    C5    A    
C27   C28   S    
C6    C7    S    
C30   C31   S    
C4    N6    S    
Cu1   N2    S    
C24   C25   S    
N6    H23   S    
C12   O4    A    
C11   N2    A    
C2    C3    A    
C9    C15   S    
C27   H27   S    
C26   C27   S    
C17   C19   S    
C18   C20   S    
C12   O3    A    
N5    H21   S    
C10   C11   A    
C7    O10   S    
C29   H32   S    
C20   C21   D    
C26   H26   S    
Cu1   O1    S    
C10   O9    S    
Cu2   O8    S    
C14   C15   S    
C14   H4    S    
C16   O6    A    
C1    O1    A    
C25   H18   S    
