data_mof_unit_14871.cif
_audit_creation_date              2012-12-10T18:58:48-0500
_audit_creation_method            fapswitch 2.2
_symmetry_space_group_name_H-M    P1
_symmetry_Int_Tables_number       1
_space_group_crystal_system       triclinic
_cell_length_a                    12.998923
_cell_length_b                    10.910049
_cell_length_c                    9.569288
_cell_angle_alpha                 91.399812
_cell_angle_beta                  96.284011
_cell_angle_gamma                 90.859645
_cell_volume                      1348.33569433

loop_
_atom_site_label
_atom_site_type_symbol
_atom_type_description
_atom_site_fract_x
_atom_site_fract_y
_atom_site_fract_z
_atom_type_partial_charge
C1    C     C_R   0.498167 0.263011 0.498171 0.822888
C2    C     C_R   0.028237 0.502587 0.567927 0.165499
C3    C     C_R   0.971687 0.491737 0.433408 0.165019
C4    C     C_R   0.864262 0.487964 0.421601 -0.196190
C5    C     C_R   0.868742 0.509026 0.675560 -0.188968
C6    C     C_R   0.976386 0.510561 0.688495 -0.189719
C7    C     C_R   0.500209 0.067458 0.618342 0.126388
C8    C     C_R   0.493120 0.130897 0.494651 -0.105784
C9    C     C_R   0.480662 0.061424 0.367745 -0.173830
C10   C     C_R   0.479882 0.932533 0.370360 -0.182125
C11   C     C_R   0.493655 0.870882 0.499646 -0.099458
C12   C     C_R   0.300526 0.499994 0.473680 0.826101
C13   C     C_R   0.501803 0.943980 0.621713 0.127004
C14   C     C_3   0.524405 0.946992 0.778179 -0.491440
C15   C     C_3   0.521764 0.087059 0.772565 -0.427437
C16   C     C_R   0.579015 0.555671 0.087065 0.193794
C17   C     C_R   0.430806 0.429693 0.060292 0.312614
C18   C     C_R   0.430141 0.431772 0.912060 -0.105314
C19   C     C_R   0.579671 0.553866 0.939665 0.189521
C20   C     C_3   0.610497 0.684693 0.939943 -0.526919
C21   C     C_3   0.608750 0.688310 0.097897 0.072392
C22   C     C_R   0.498825 0.737659 0.500960 0.816455
C23   C     C_R   0.699428 0.499337 0.526432 0.824195
C24   C     C_R   0.812306 0.498367 0.541994 -0.054743
C25   C     C_R   0.187569 0.498880 0.458728 -0.057408
C26   C     C_R   0.023362 0.485775 0.312672 -0.179112
C27   C     C_R   0.130907 0.490124 0.325243 -0.157089
C28   C     C_R   0.135752 0.505475 0.579682 -0.252613
Cu1   Cu    Cu3+1 0.499990 0.499980 0.640670 0.952494
Cu2   Cu    Cu3+1 0.500010 0.500020 0.359330 1.003310
H1    H     H_    0.821324 0.477630 0.318206 0.181229
H2    H     H_    0.603525 0.914640 0.812798 0.214227
H3    H     H_    0.455270 0.127956 0.819639 0.212883
H4    H     H_    0.598321 0.132383 0.803499 0.206900
H5    H     H_    0.372947 0.377953 0.845262 0.169413
H6    H     H_    0.688051 0.698665 0.903575 0.225238
H7    H     H_    0.546820 0.735971 0.885228 0.194752
H8    H     H_    0.546886 0.747011 0.132095 0.140335
H9    H     H_    0.829853 0.516850 0.769799 0.165853
H10   H     H_    0.980699 0.478329 0.208867 0.152286
H11   H     H_    0.018953 0.518942 0.792289 0.146375
H12   H     H_    0.169459 0.486145 0.230634 0.192721
H13   H     H_    0.178816 0.513092 0.683282 0.160164
H14   H     H_    0.472435 0.105757 0.267240 0.197955
H15   H     H_    0.469325 0.882139 0.271164 0.160373
H16   H     H_    0.459711 0.907929 0.830897 0.201650
N1    N     N_R   0.500660 0.500930 0.148010 -0.228366
N2    N     N_R   0.500660 0.500890 0.852110 -0.204839
O1    O     O_R   0.500000 0.319640 0.618810 -0.589866
O2    O     O_R   0.500010 0.319680 0.381230 -0.550311
O3    O     O_R   0.348990 0.499960 0.599490 -0.597089
O4    O     O_R   0.349000 0.500000 0.361910 -0.548515
O5    O     O_R   0.499990 0.680320 0.618770 -0.582649
O6    O     O_R   0.500000 0.680360 0.381190 -0.583096
O7    O     O_R   0.651000 0.500000 0.638090 -0.588346
O8    O     O_R   0.651010 0.500040 0.400510 -0.560070
Br1   Br    Br    0.333196 0.319763 0.129112 -0.563802
Br2   Br    Br    0.744458 0.718697 0.199517 -0.534931

loop_
_geom_bond_atom_site_label_1
_geom_bond_atom_site_label_2
_ccdc_geom_bond_type
C23   C24   S    
C16   C21   S    
C23   O7    A    
Cu1   Cu2   S    
C25   C27   A    
C1    C8    S    
C11   C13   A    
C9    C10   A    
C15   H4    S    
C19   C20   S    
C12   C25   S    
C21   Br2   S    
Cu2   O8    S    
C10   H15   S    
C7    C15   S    
C17   C18   A    
Cu2   O2    S    
C23   O8    A    
C22   O6    A    
Cu1   O1    S    
C13   C14   S    
C25   C28   A    
C20   H7    S    
Cu2   O6    S    
C27   H12   S    
C26   H10   S    
C26   C27   A    
C2    C6    A    
C5    C24   A    
Cu1   O5    S    
C28   H13   S    
C16   N1    A    
C12   O4    A    
C2    C3    A    
C22   O5    A    
C16   C19   A    
Cu1   O3    S    
C5    C6    A    
C4    C24   A    
C4    H1    S    
C7    C8    A    
C10   C11   A    
Cu1   N2    S    
C3    C4    A    
C20   H6    S    
Cu2   N1    S    
C7    C13   A    
C12   O3    A    
C20   C21   S    
C18   H5    S    
C11   C22   S    
C14   H16   S    
C1    O2    A    
C14   H2    S    
C5    H9    S    
Cu2   O4    S    
C14   C15   S    
C9    H14   S    
C2    C28   A    
Cu1   O7    S    
C19   N2    A    
C1    O1    A    
C15   H3    S    
C3    C26   A    
C21   H8    S    
C17   N1    A    
C17   Br1   S    
C8    C9    A    
C6    H11   S    
C18   N2    A    
