data_mof_unit_23098.cif
_audit_creation_date              2012-12-10T20:40:00-0500
_audit_creation_method            fapswitch 2.2
_symmetry_space_group_name_H-M    P1
_symmetry_Int_Tables_number       1
_space_group_crystal_system       triclinic
_cell_length_a                    22.645477
_cell_length_b                    10.742375
_cell_length_c                    9.922206
_cell_angle_alpha                 88.874637
_cell_angle_beta                  91.070974
_cell_angle_gamma                 91.201178
_cell_volume                      2412.33807639

loop_
_atom_site_label
_atom_site_type_symbol
_atom_type_description
_atom_site_fract_x
_atom_site_fract_y
_atom_site_fract_z
_atom_type_partial_charge
C1    C     C_R   0.501850 0.260535 0.500899 0.908448
C2    C     C_R   0.974377 0.631514 0.783725 -0.060742
C3    C     C_R   0.035986 0.631374 0.779583 -0.156799
C4    C     C_R   0.065553 0.661492 0.660315 -0.043121
C5    C     C_R   0.033804 0.705763 0.546380 -0.003916
C6    C     C_R   0.064065 0.744607 0.428972 -0.093496
C7    C     C_R   0.032033 0.803028 0.321442 -0.098237
C8    C     C_R   0.969643 0.807471 0.325746 -0.119893
C9    C     C_R   0.126275 0.644621 0.651250 0.523491
C10   C     C_R   0.125126 0.719681 0.423232 0.534874
C11   C     C_R   0.259601 0.708898 0.503018 -0.070782
C12   C     C_R   0.388784 0.502390 0.498921 0.950650
C13   C     C_R   0.316610 0.665704 0.492706 -0.211136
C14   C     C_R   0.327239 0.537484 0.496881 -0.072421
C15   C     C_R   0.279920 0.450146 0.508614 -0.053556
C16   C     C_R   0.222610 0.495673 0.518094 -0.154839
C17   C     C_R   0.212626 0.624033 0.517195 0.279730
C18   C     C_R   0.776394 0.493586 0.475870 -0.243184
C19   C     C_R   0.717277 0.453386 0.471782 0.444369
C20   C     C_R   0.673363 0.537438 0.504498 -0.183048
C21   C     C_R   0.688445 0.659249 0.541872 -0.346198
C22   C     C_R   0.747583 0.697685 0.550974 0.527345
C23   C     C_R   0.504506 0.739167 0.498660 0.880055
C24   C     C_R   0.791361 0.614882 0.516054 0.162201
C25   C     C_R   0.507589 0.058679 0.617433 0.078788
C26   C     C_R   0.509306 0.129757 0.500278 -0.113450
C27   C     C_R   0.520658 0.070012 0.378509 -0.296605
C28   C     C_R   0.525863 0.940649 0.376236 -0.049330
C29   C     C_R   0.513569 0.870632 0.495985 -0.167455
C30   C     C_R   0.507571 0.934293 0.614419 0.090130
C31   C     C_3   0.496331 0.917517 0.761476 -0.269493
C32   C     C_3   0.497518 0.060849 0.765782 -0.317868
C33   C     C_R   0.450884 0.462449 0.070138 0.184062
C34   C     C_R   0.611244 0.502615 0.501099 0.933277
C35   C     C_R   0.547146 0.543960 0.074093 -0.132959
C36   C     C_R   0.547404 0.545034 0.931068 -0.000514
C37   C     C_R   0.449916 0.467709 0.927566 0.189761
C38   C     C_3   0.417361 0.346887 0.918134 0.208162
C39   C     C_3   0.424799 0.333583 0.070961 0.184137
C40   C     C_R   0.878712 0.713161 0.424344 0.605834
C41   C     C_R   0.881387 0.624335 0.646989 0.539011
C42   C     C_R   0.941752 0.655538 0.662389 -0.092620
C43   C     C_R   0.971642 0.703874 0.547662 -0.015773
C44   C     C_R   0.939525 0.743993 0.431957 -0.105908
H1    H     H_    0.654205 0.724718 0.562890 0.204871
H2    H     H_    0.527397 0.123760 0.286224 0.208929
H3    H     H_    0.533493 0.872201 0.816123 0.194662
H4    H     H_    0.454229 0.099098 0.790799 0.145552
H5    H     H_    0.585278 0.578664 0.130174 0.211127
H6    H     H_    0.060998 0.606875 0.870134 0.241365
H7    H     H_    0.441641 0.281384 0.857044 0.082220
H8    H     H_    0.458903 0.265228 0.104165 0.091273
H9    H     H_    0.251985 0.808107 0.502178 0.151295
H10   H     H_    0.352934 0.732676 0.484575 0.158891
H11   H     H_    0.185137 0.432036 0.528053 0.191919
H12   H     H_    0.810774 0.430246 0.449749 0.185756
N1    N     N_R   0.852032 0.652240 0.529388 -0.328682
N2    N     N_R   0.153839 0.667229 0.531951 -0.354017
N3    N     N_R   0.499610 0.499140 0.142800 -0.146137
N4    N     N_R   0.499610 0.499180 0.857150 -0.164513
O1    O     O_R   0.500010 0.316790 0.614690 -0.630425
O2    O     O_2   0.852678 0.559635 0.744452 -0.543871
O3    O     O_2   0.157400 0.601579 0.759185 -0.532561
O4    O     O_2   0.155181 0.741392 0.308786 -0.519807
O5    O     O_R   0.500000 0.316760 0.385350 -0.631190
O6    O     O_R   0.416160 0.499980 0.614700 -0.582088
O7    O     O_R   0.416150 0.499940 0.385360 -0.582206
O8    O     O_R   0.500000 0.683240 0.614650 -0.587594
O9    O     O_R   0.499990 0.683210 0.385310 -0.603535
O10   O     O_R   0.583850 0.500060 0.614640 -0.618221
O11   O     O_R   0.583840 0.500020 0.385300 -0.582144
O12   O     O_2   0.846959 0.736465 0.310574 -0.492631
Zn1   Zn    Zn3+2 0.500000 0.500020 0.653130 1.018063
Zn2   Zn    Zn3+2 0.500000 0.499980 0.346870 1.019709
C45   C     C_2   0.946931 0.611981 0.917669 1.067148
O13   O     O_2   0.903278 0.670105 0.946998 -0.543748
O14   O     O_R   0.973103 0.532238 0.013443 -0.781628
H13   H     H_    0.951411 0.529513 0.101979 0.357443
O15   O     O_3   0.702728 0.335036 0.428184 -0.595108
C46   C     C_3   0.697444 0.254566 0.541774 0.067303
H14   H     H_    0.661379 0.284184 0.608125 0.154959
H15   H     H_    0.739696 0.251721 0.601096 0.162515
C47   C     C_3   0.682416 0.123549 0.494583 -0.689797
H16   H     H_    0.719595 0.087093 0.436652 0.281323
H17   H     H_    0.674137 0.060806 0.582756 0.234270
H18   H     H_    0.642158 0.124666 0.429184 0.249564
O16   O     O_3   0.763467 0.817907 0.586518 -0.597716
C48   C     C_3   0.750782 0.835066 0.723693 0.066222
H19   H     H_    0.764918 0.754452 0.788312 0.181830
H20   H     H_    0.702682 0.849466 0.735841 0.182759
C49   C     C_3   0.784302 0.949971 0.773307 -0.687121
H21   H     H_    0.771550 0.033119 0.712207 0.245750
H22   H     H_    0.773883 0.965754 0.880472 0.232711
H23   H     H_    0.832606 0.936606 0.765006 0.259304
C50   C     C_2   0.547709 0.885691 0.251338 0.967580
O17   O     O_2   0.585592 0.806183 0.257854 -0.623197
O18   O     O_R   0.527317 0.929694 0.125882 -0.798997
H24   H     H_    0.546583 0.886509 0.048811 0.342769
C51   C     C_2   0.436582 0.859427 0.790180 0.975006
O19   O     O_2   0.432297 0.776984 0.876294 -0.603878
O20   O     O_R   0.386404 0.899353 0.718614 -0.830242
H25   H     H_    0.349165 0.852586 0.746890 0.346247
C52   C     C_2   0.550100 0.114282 0.842800 0.984002
O21   O     O_2   0.600245 0.083606 0.816124 -0.637976
O22   O     O_R   0.541289 0.198596 0.945328 -0.848770
H26   H     H_    0.579635 0.228377 0.989456 0.356565
C53   C     C_2   0.600533 0.596682 0.866631 0.949013
O23   O     O_2   0.596912 0.686041 0.789360 -0.659716
O24   O     O_R   0.655592 0.547080 0.899873 -0.791743
H27   H     H_    0.688991 0.590368 0.849640 0.338722
O25   O     O_3   0.358368 0.367027 0.875892 -0.535852
C54   C     C_3   0.329791 0.251882 0.849118 0.130908
H28   H     H_    0.340949 0.178034 0.924649 0.130121
H29   H     H_    0.343043 0.218398 0.749594 0.181544
C55   C     C_3   0.263273 0.269249 0.850000 -0.670175
H30   H     H_    0.250328 0.343626 0.776926 0.270606
H31   H     H_    0.240072 0.180870 0.823045 0.208122
H32   H     H_    0.249483 0.297029 0.951666 0.266710
O26   O     O_3   0.370368 0.325261 0.138475 -0.543156
C56   C     C_3   0.363348 0.205000 0.197921 0.117257
H33   H     H_    0.386398 0.203115 0.297581 0.204207
H34   H     H_    0.381939 0.129697 0.136498 0.114921
C57   C     C_3   0.297937 0.174218 0.215349 -0.688569
H35   H     H_    0.277843 0.143059 0.118699 0.222881
H36   H     H_    0.292493 0.097482 0.290983 0.222595
H37   H     H_    0.274153 0.257144 0.248497 0.277765
C58   C     C_2   0.063276 0.866073 0.208559 1.054178
O27   O     O_2   0.089107 0.965564 0.226780 -0.598873
O28   O     O_R   0.063944 0.810130 0.082602 -0.740896
H38   H     H_    0.086867 0.861542 0.013745 0.352080
C59   C     C_2   0.936970 0.889022 0.227955 1.016461
O29   O     O_2   0.901610 0.963119 0.269494 -0.568349
O30   O     O_R   0.946955 0.882763 0.089763 -0.760205
H39   H     H_    0.922008 0.943109 0.034683 0.355982
C60   C     C_2   0.288309 0.312992 0.513129 0.848101
O31   O     O_2   0.337624 0.269734 0.507237 -0.683033
O32   O     O_R   0.239291 0.232158 0.524214 -0.805271
H40   H     H_    0.250601 0.141313 0.528305 0.349577

loop_
_geom_bond_atom_site_label_1
_geom_bond_atom_site_label_2
_ccdc_geom_bond_type
O16   C48   S    
O20   H25   S    
C32   H4    S    
C41   C42   A    
C23   O9    A    
C50   O17   D    
C43   C44   A    
C54   H29   S    
O18   H24   S    
C60   O31   D    
O14   H13   S    
C26   C27   A    
C33   C39   S    
C28   C50   S    
C18   C24   A    
C23   C29   S    
C28   C29   A    
C10   N2    A    
C37   C38   S    
C18   C19   A    
C30   C31   S    
C57   H36   S    
C15   C60   S    
C15   C16   A    
N4    Zn1   S    
C35   N3    A    
C9    N2    A    
C38   O25   S    
C19   C20   A    
C16   C17   A    
C55   H31   S    
C35   H5    S    
C1    O5    A    
C53   O23   D    
C31   C51   S    
C34   O10   A    
C11   H9    S    
C56   C57   S    
C18   H12   S    
C17   N2    S    
C20   C34   S    
C25   C32   S    
C39   H8    S    
C5    C43   A    
C33   N3    A    
C31   H3    S    
C21   C22   A    
C36   C53   S    
C53   O24   S    
C41   O2    S    
C8    C59   S    
C46   C47   S    
C54   H28   S    
C3    H6    S    
C56   H34   S    
C21   H1    S    
C38   C39   S    
C12   O7    A    
C1    C26   S    
C57   H35   S    
C46   H15   S    
C49   H21   S    
C24   N1    S    
C57   H37   S    
C38   H7    S    
O1    Zn1   S    
O8    Zn1   S    
O6    Zn1   S    
C12   O6    A    
C33   C37   A    
O5    Zn2   S    
C35   C36   A    
C23   O8    A    
C45   O13   D    
C58   O28   S    
C29   C30   A    
C49   H22   S    
C31   C32   S    
C48   C49   S    
C40   C44   A    
C55   H32   S    
O10   Zn1   S    
C32   C52   S    
O9    Zn2   S    
C52   O22   S    
O7    Zn2   S    
C22   O16   S    
C48   H19   S    
C19   O15   S    
C45   O14   S    
N3    Zn2   S    
C27   H2    S    
C47   H17   S    
C12   C14   S    
O30   H39   S    
C22   C24   A    
C47   H16   S    
C42   C43   A    
C3    C4    A    
C52   O21   D    
C56   H33   S    
O28   H38   S    
O32   H40   S    
C25   C30   A    
C60   O32   S    
C11   C17   A    
C40   N1    A    
C40   O12   S    
O25   C54   S    
C51   O20   S    
C9    O3    S    
C10   O4    S    
C8    C44   A    
C48   H20   S    
C46   H14   S    
C59   O30   S    
C1    O1    A    
C6    C10   A    
O11   Zn2   S    
O26   C56   S    
C50   O18   S    
C6    C7    A    
O22   H26   S    
C13   H10   S    
C51   O19   D    
C2    C3    A    
C25   C26   A    
C16   H11   S    
C41   N1    A    
O24   H27   S    
C49   H23   S    
C11   C13   A    
C55   H30   S    
C5    C6    A    
C2    C42   A    
C39   O26   S    
C59   O29   D    
C37   N4    A    
C7    C8    A    
O15   C46   S    
C4    C5    A    
C47   H18   S    
C20   C21   A    
C27   C28   A    
C36   N4    A    
C14   C15   A    
C7    C58   S    
C4    C9    A    
C13   C14   A    
C34   O11   A    
C54   C55   S    
C2    C45   S    
C58   O27   D    
