data_mof_unit_66920.cif
_audit_creation_date              2013-03-05T15:57:27-0500
_audit_creation_method            fapswitch 2.2
_symmetry_space_group_name_H-M    P1
_symmetry_Int_Tables_number       1
_space_group_crystal_system       triclinic
_cell_length_a                    17.14343
_cell_length_b                    18.739114
_cell_length_c                    8.528018
_cell_angle_alpha                 89.916326
_cell_angle_beta                  102.476895
_cell_angle_gamma                 89.826881
_cell_volume                      2674.92852845

loop_
_atom_site_label
_atom_site_type_symbol
_atom_site_description
_atom_site_fract_x
_atom_site_fract_y
_atom_site_fract_z
_atom_type_partial_charge
P1    P     P_3+3 0.834140 0.419320 0.003900 0.434075
P2    P     P_3+3 0.834140 0.580680 0.503900 0.433754
P3    P     P_3+3 0.334140 0.919320 0.003900 0.431692
P4    P     P_3+3 0.334140 0.080680 0.503900 0.431896
O1    O     O_2   0.841960 0.394640 0.833410 -0.368051
O2    O     O_2   0.841960 0.605360 0.333410 -0.378495
O3    O     O_2   0.341960 0.894640 0.833410 -0.377294
O4    O     O_2   0.341960 0.105360 0.333410 -0.379860
O5    O     O_3   0.907950 0.463080 0.102990 -0.417757
O6    O     O_3   0.907950 0.536920 0.602990 -0.387015
O7    O     O_3   0.407950 0.963080 0.102990 -0.412933
O8    O     O_3   0.407950 0.036920 0.602990 -0.410252
O9    O     O_3   0.972780 0.329600 0.629720 -0.416131
O10   O     O_3   0.972780 0.670400 0.129720 -0.427469
O11   O     O_3   0.472780 0.829600 0.629720 -0.380933
O12   O     O_3   0.472780 0.170400 0.129720 -0.379920
O13   O     O_2   0.844081 0.272054 0.708658 -0.377970
O14   O     O_2   0.843779 0.727542 0.209462 -0.376336
O15   O     O_2   0.340507 0.778108 0.702498 -0.373991
O16   O     O_2   0.342704 0.225028 0.210822 -0.384475
O17   O     O_3   0.751044 0.476494 0.939551 -0.601772
O18   O     O_3   0.757827 0.518824 0.440830 -0.589563
O19   O     O_3   0.251069 0.976127 0.939220 -0.596439
O20   O     O_3   0.251820 0.023532 0.439669 -0.596337
O21   O     O_3   0.940317 0.182206 0.618659 -0.558529
O22   O     O_3   0.937623 0.817257 0.113054 -0.561119
O23   O     O_3   0.440264 0.684690 0.645841 -0.505545
O24   O     O_3   0.440906 0.314338 0.129960 -0.511818
H1    H     H_    0.048877 0.219210 0.747007 0.166049
H2    H     H_    0.045123 0.780393 0.248386 0.169149
H3    H     H_    0.518556 0.702217 0.494325 0.061286
H4    H     H_    0.507651 0.285312 0.961133 0.057556
C1    C     C_3   0.061000 0.116700 0.644787 -0.652653
C2    C     C_3   0.057877 0.883300 0.149002 -0.653656
C3    C     C_3   0.530056 0.595992 0.591548 -0.598182
C4    C     C_3   0.541438 0.387381 0.061558 -0.596365
H5    H     H_    0.584653 0.613984 0.677825 0.220359
H6    H     H_    0.593203 0.361917 0.144028 0.228019
H7    H     H_    0.126931 0.122541 0.683034 0.186928
H8    H     H_    0.123690 0.877355 0.190317 0.187173
H9    H     H_    0.039532 0.084139 0.735703 0.236651
H10   H     H_    0.034734 0.915049 0.239023 0.237648
H11   H     H_    0.496862 0.559763 0.656787 0.218624
H12   H     H_    0.517482 0.430062 0.128705 0.218193
P5    P     P_3+3 0.165830 0.418670 0.685610 0.439736
P6    P     P_3+3 0.165830 0.581330 0.185610 0.439406
P7    P     P_3+3 0.665830 0.918670 0.685610 0.445842
P8    P     P_3+3 0.665830 0.081330 0.185610 0.446623
P9    P     P_3+3 0.101312 0.263886 0.110417 0.433250
P10   P     P_3+3 0.101035 0.736106 0.609637 0.433284
P11   P     P_3+3 0.602578 0.764723 0.109192 0.467251
P12   P     P_3+3 0.602685 0.234766 0.607935 0.458591
O25   O     O_2   0.157990 0.394030 0.856030 -0.371982
O26   O     O_2   0.157990 0.605970 0.356030 -0.368193
O27   O     O_2   0.657990 0.894030 0.856030 -0.364114
O28   O     O_2   0.657990 0.105970 0.356030 -0.361327
O29   O     O_3   0.027110 0.329490 0.059550 -0.370200
O30   O     O_3   0.027110 0.670510 0.559550 -0.367690
O31   O     O_3   0.527110 0.829490 0.059550 -0.370228
O32   O     O_3   0.527110 0.170510 0.559550 -0.375071
O33   O     O_2   0.161413 0.274701 0.001286 -0.385575
O34   O     O_2   0.160808 0.725519 0.499544 -0.385059
O35   O     O_2   0.664260 0.778580 0.005231 -0.364945
O36   O     O_2   0.664319 0.220358 0.504067 -0.363150
O37   O     O_3   0.254637 0.468628 0.722713 -0.593035
O38   O     O_3   0.254762 0.531210 0.223994 -0.592632
O39   O     O_3   0.755062 0.968186 0.723754 -0.593111
O40   O     O_3   0.754933 0.031080 0.224266 -0.592823
O41   O     O_3   0.056121 0.182445 0.049077 -0.542261
O42   O     O_3   0.054930 0.817464 0.548008 -0.543195
O43   O     O_3   0.560364 0.683142 0.039475 -0.516205
O44   O     O_3   0.559476 0.315521 0.534124 -0.523716
C5    C     C_3   0.985378 0.177978 0.106286 0.469393
C6    C     C_3   0.985466 0.822721 0.609454 0.465994
C7    C     C_3   0.487196 0.677205 0.086850 0.565048
C8    C     C_3   0.482233 0.318463 0.564018 0.571361
H13   H     H_    0.938364 0.212459 0.032718 0.127509
H14   H     H_    0.937616 0.788621 0.538406 0.125914
H15   H     H_    0.441155 0.711371 0.009588 0.130098
H16   H     H_    0.440583 0.285767 0.474619 0.150275
H17   H     H_    0.994443 0.193884 0.234668 0.010686
H18   H     H_    0.996120 0.806919 0.738225 0.014353
H19   H     H_    0.492638 0.692577 0.214321 -0.049866
H20   H     H_    0.480485 0.299145 0.686214 -0.046029
C9    C     C_3   0.956730 0.101332 0.091756 -1.089246
C10   C     C_3   0.957249 0.899684 0.595564 -1.087641
C11   C     C_3   0.459986 0.600310 0.068943 -1.134578
C12   C     C_3   0.454194 0.395211 0.549891 -1.150415
H21   H     H_    0.441617 0.586701 0.940020 0.281206
H22   H     H_    0.406814 0.402597 0.618734 0.241030
H23   H     H_    0.940619 0.086123 0.963270 0.274966
H24   H     H_    0.940786 0.915258 0.467164 0.273857
H25   H     H_    0.004468 0.064659 0.153648 0.276168
H26   H     H_    0.005415 0.935745 0.656854 0.275376
H27   H     H_    0.509172 0.563929 0.124376 0.268509
H28   H     H_    0.432220 0.408815 0.422091 0.281564
C13   C     C_3   0.243159 0.456949 0.222751 0.468783
C14   C     C_3   0.242798 0.542892 0.725798 0.465617
C15   C     C_3   0.743525 0.956784 0.226162 0.444221
C16   C     C_3   0.743869 0.042559 0.725824 0.447059
H29   H     H_    0.182887 0.439886 0.158587 0.146638
H30   H     H_    0.182051 0.560440 0.664679 0.143459
H31   H     H_    0.683179 0.939529 0.162804 0.144299
H32   H     H_    0.683495 0.060310 0.662714 0.144351
C17   C     C_3   0.303740 0.422604 0.138134 -0.950669
C18   C     C_3   0.301898 0.578614 0.640282 -0.938048
C19   C     C_3   0.804000 0.921238 0.143129 -0.898913
C20   C     C_3   0.804391 0.077731 0.642575 -0.903190
H33   H     H_    0.364360 0.444439 0.183974 0.250914
H34   H     H_    0.363485 0.560286 0.692484 0.247201
H35   H     H_    0.865627 0.938948 0.197669 0.253840
H36   H     H_    0.865993 0.059500 0.696959 0.254095
H37   H     H_    0.304006 0.363946 0.153710 0.268349
H38   H     H_    0.297976 0.637386 0.650643 0.266115
H39   H     H_    0.800050 0.862522 0.153338 0.267780
H40   H     H_    0.800665 0.136495 0.652528 0.267598
H41   H     H_    0.287867 0.433404 0.009048 0.273231
H42   H     H_    0.288424 0.565450 0.512270 0.272240
H43   H     H_    0.791195 0.934225 0.014734 0.268572
H44   H     H_    0.791499 0.064779 0.514307 0.268756
Ba1   Ba    Ba6+2 0.000000 0.447380 0.844850 1.500193
Ba2   Ba    Ba6+2 1.000000 0.552620 0.344850 1.501992
Ba3   Ba    Ba6+2 0.500000 0.947380 0.844850 1.514647
Ba4   Ba    Ba6+2 0.500000 0.052620 0.344850 1.512892
C21   C     C_3   0.747384 0.531129 0.049648 0.334344
C22   C     C_3   0.728942 0.496873 0.573308 0.251266
C23   C     C_3   0.246969 0.030514 0.049431 0.321021
C24   C     C_3   0.247280 0.970215 0.552488 0.335786
H45   H     H_    0.758540 0.583115 0.997553 0.072374
H46   H     H_    0.778485 0.480056 0.668318 0.178717
H47   H     H_    0.259930 0.082340 0.999054 0.080438
H48   H     H_    0.263945 0.918280 0.508586 0.083722
H49   H     H_    0.789100 0.522080 0.162160 0.171918
H50   H     H_    0.696008 0.540773 0.617842 0.091055
H51   H     H_    0.287047 0.020712 0.164209 0.169039
H52   H     H_    0.284185 0.982191 0.669246 0.164213
C25   C     C_3   0.665128 0.536223 0.085626 -0.880905
C26   C     C_3   0.676105 0.432165 0.528822 -0.793399
C27   C     C_3   0.163624 0.036644 0.079303 -0.886219
C28   C     C_3   0.162722 0.961825 0.574064 -0.901447
H53   H     H_    0.619804 0.544536 0.972755 0.268300
H54   H     H_    0.629468 0.442347 0.418861 0.251445
H55   H     H_    0.118780 0.035145 0.964566 0.262287
H56   H     H_    0.119822 0.964988 0.456967 0.264736
H57   H     H_    0.661999 0.582178 0.164626 0.239597
H58   H     H_    0.712490 0.385532 0.506912 0.243708
H59   H     H_    0.157363 0.087437 0.140648 0.256197
H60   H     H_    0.156520 0.909598 0.629655 0.258940
H61   H     H_    0.653483 0.487918 0.151430 0.257297
H62   H     H_    0.647466 0.419916 0.630301 0.238016
H63   H     H_    0.153958 0.993565 0.160844 0.259650
H64   H     H_    0.150140 0.002562 0.658254 0.260668
O45   O     O_3   0.092100 0.536880 0.086720 -0.429370
O46   O     O_3   0.092100 0.463120 0.586720 -0.425575
O47   O     O_3   0.592100 0.036880 0.086720 -0.432016
O48   O     O_3   0.592100 0.963120 0.586720 -0.430859
P13   P     P_3+3 0.894833 0.732893 0.081155 0.417483
P14   P     P_3+3 0.895973 0.266044 0.581886 0.423862
P15   P     P_3+3 0.394285 0.232423 0.084176 0.442448
P16   P     P_3+3 0.395618 0.766544 0.583847 0.445203
C29   C     C_3   0.022975 0.190051 0.634662 0.430460
C30   C     C_3   0.020666 0.809804 0.135258 0.433993
C31   C     C_3   0.478664 0.660500 0.527088 0.341306
C32   C     C_3   0.477487 0.331992 0.003669 0.337482
H65   H     H_    0.037313 0.218724 0.530117 0.022872
H66   H     H_    0.037266 0.781582 0.032441 0.023922
H67   H     H_    0.433021 0.644199 0.419830 0.047317
H68   H     H_    0.431760 0.354729 0.903389 0.053415
H69   H     H_    0.409757 0.592876 0.130287 0.238851
H70   H     H_    0.504079 0.431736 0.597954 0.276193
H71   H     H_    0.904379 0.096020 0.147960 0.243397
H72   H     H_    0.905239 0.905520 0.652679 0.244444
C33   C     C_R   0.135178 0.679051 0.921621 -0.339844
C34   C     C_R   0.134554 0.321212 0.421736 -0.337575
C35   C     C_R   0.634718 0.179497 0.921586 -0.323483
C36   C     C_R   0.633976 0.820687 0.422037 -0.327037
C37   C     C_R   0.840136 0.336071 0.285799 -0.312909
C38   C     C_R   0.840944 0.662602 0.784281 -0.317779
C39   C     C_R   0.343379 0.835174 0.282220 -0.297007
C40   C     C_R   0.342237 0.163496 0.784058 -0.305043
C41   C     C_R   0.786548 0.217041 0.302033 -0.211082
C42   C     C_R   0.784665 0.780877 0.803583 -0.201501
C43   C     C_R   0.286496 0.717562 0.302943 -0.225943
C44   C     C_R   0.284452 0.280985 0.804346 -0.222073
C45   C     C_R   0.834957 0.273601 0.373361 0.213176
C46   C     C_R   0.833700 0.724116 0.874053 0.217380
C47   C     C_R   0.336919 0.773374 0.372546 0.152631
C48   C     C_R   0.334283 0.224690 0.874583 0.159266
C49   C     C_R   0.807934 0.338372 0.118074 0.235030
C50   C     C_R   0.807061 0.660916 0.617981 0.199003
C51   C     C_R   0.309203 0.837425 0.116167 0.243971
C52   C     C_R   0.308521 0.161785 0.617511 0.240945
C53   C     C_R   0.752272 0.283110 0.049283 -0.057765
C54   C     C_R   0.751006 0.716192 0.550391 -0.058851
C55   C     C_R   0.252717 0.782673 0.049010 -0.073841
C56   C     C_R   0.251974 0.216798 0.550147 -0.074352
C57   C     C_R   0.239434 0.722431 0.145347 -0.063469
C58   C     C_R   0.238292 0.276880 0.646194 -0.068919
C59   C     C_R   0.739128 0.222512 0.145009 -0.070736
C60   C     C_R   0.737736 0.776460 0.646246 -0.066528
C61   C     C_R   0.179714 0.669245 0.080606 0.257580
C62   C     C_R   0.179116 0.330718 0.580731 0.258472
C63   C     C_R   0.679495 0.169379 0.080274 0.281662
C64   C     C_R   0.678677 0.830378 0.580944 0.281020
C65   C     C_R   0.152502 0.734550 0.825244 0.201558
C66   C     C_R   0.152104 0.265544 0.325961 0.202788
C67   C     C_R   0.652197 0.234943 0.824947 0.176997
C68   C     C_R   0.651623 0.765147 0.325942 0.184913
C69   C     C_R   0.208840 0.786495 0.889225 -0.226560
C70   C     C_R   0.208547 0.213439 0.390221 -0.228529
C71   C     C_R   0.709018 0.286642 0.888691 -0.221851
C72   C     C_R   0.708267 0.713262 0.390039 -0.241538
H73   H     H_    0.283246 0.671269 0.375081 0.184256
H74   H     H_    0.281401 0.327248 0.876372 0.185391
H75   H     H_    0.784927 0.169829 0.372451 0.188391
H76   H     H_    0.782810 0.827782 0.874614 0.188411
H77   H     H_    0.717631 0.329965 0.811307 0.191009
H78   H     H_    0.718368 0.670911 0.312482 0.183613
H79   H     H_    0.217406 0.829897 0.812475 0.189847
H80   H     H_    0.217517 0.170283 0.313374 0.189465
N1    N     N_3   0.552783 0.556781 0.460945 -0.219662
H81   H     H_    0.501355 0.535547 0.387400 0.152016
H82   H     H_    0.579730 0.591819 0.393217 0.141077
N2    N     N_3   0.567919 0.418834 0.925804 -0.200432
H83   H     H_    0.521606 0.450739 0.862325 0.144474
H84   H     H_    0.580747 0.378713 0.850475 0.147775
N3    N     N_3   0.041156 0.080555 0.489872 -0.196918
H85   H     H_    0.979345 0.081705 0.445275 0.188988
H86   H     H_    0.069233 0.107439 0.409977 0.152093
N4    N     N_3   0.039533 0.920485 0.994881 -0.198249
H87   H     H_    0.977892 0.919990 0.948200 0.190037
H88   H     H_    0.068342 0.893903 0.915669 0.151838
N5    N     N_3   0.074213 0.630241 0.849434 -0.159130
H89   H     H_    0.029628 0.628676 0.914351 0.182412
H90   H     H_    0.098257 0.580175 0.835042 0.162276
N6    N     N_3   0.073773 0.370565 0.348714 -0.158853
H91   H     H_    0.028579 0.372649 0.412335 0.183080
H92   H     H_    0.098052 0.420384 0.333810 0.164197
N7    N     N_3   0.574117 0.130417 0.849224 -0.161008
H93   H     H_    0.529667 0.128450 0.914385 0.180310
H94   H     H_    0.598592 0.080532 0.834700 0.159929
N8    N     N_3   0.573561 0.870221 0.348928 -0.161179
H95   H     H_    0.529075 0.872652 0.413971 0.180970
H96   H     H_    0.598211 0.919896 0.334299 0.160205
N9    N     N_3   0.876460 0.398126 0.370361 -0.151255
H97   H     H_    0.844845 0.442468 0.320425 0.159280
H98   H     H_    0.861698 0.400112 0.482753 0.179657
N10   N     N_3   0.882556 0.600681 0.861267 -0.155699
H99   H     H_    0.846900 0.556768 0.824443 0.125977
H100  H     H_    0.881424 0.598756 0.982015 0.168316
N11   N     N_3   0.382293 0.898007 0.358674 -0.158657
H101  H     H_    0.343888 0.940516 0.322873 0.127828
H102  H     H_    0.382265 0.899629 0.479641 0.166350
N12   N     N_3   0.383288 0.101365 0.861078 -0.157782
H103  H     H_    0.346903 0.057969 0.824873 0.129574
H104  H     H_    0.382029 0.099279 0.981675 0.164615
N13   N     N_3   0.257759 0.431711 0.387980 -0.213421
H105  H     H_    0.309227 0.456297 0.451116 0.162035
H106  H     H_    0.271308 0.377286 0.391884 0.082540
N14   N     N_3   0.259589 0.566316 0.892301 -0.210247
H107  H     H_    0.312973 0.542625 0.950322 0.158595
H108  H     H_    0.271616 0.620946 0.897089 0.081941
N15   N     N_3   0.758765 0.932680 0.392313 -0.210668
H109  H     H_    0.812096 0.955408 0.452420 0.157941
H110  H     H_    0.770216 0.877887 0.396561 0.077405
N16   N     N_3   0.759341 0.066296 0.892035 -0.210930
H111  H     H_    0.812750 0.043166 0.951782 0.157624
H112  H     H_    0.770780 0.121021 0.896197 0.077376

loop_
_geom_bond_atom_site_label_1
_geom_bond_atom_site_label_2
_geom_bond_distance
_ccdc_geom_bond_type
C43   H73   1.071278 S    
C15   H31   1.108053 S    
C12   H28   1.102697 S    
N9    H98   1.043542 S    
P1    O17   1.769082 S    
O10   Ba2   2.840234 S    
O43   C7    1.403106 S    
P12   C67   1.861934 S    
C20   H44   1.095879 S    
P3    O19   1.765011 S    
O7    Ba4   2.859994 S    
C2    H10   1.110070 S    
C35   C67   1.398081 A    
O44   C8    1.402504 S    
O6    Ba1   2.850850 S    
C25   H61   1.105513 S    
N2    H83   1.044676 S    
C28   H60   1.102247 S    
C9    H23   1.108488 S    
C37   C45   1.400925 A    
N11   H101  1.034653 S    
N16   H112  1.043875 S    
Ba3   O47   2.859943 S    
C26   H62   1.107420 S    
P8    C63   1.916541 S    
C27   H59   1.102843 S    
C1    H7    1.112405 S    
O11   Ba3   2.846582 S    
C18   H38   1.108002 S    
C29   H65   1.112702 S    
C10   H72   1.109690 S    
O15   P16   1.541412 D    
C52   C56   1.443643 A    
O38   C13   1.406054 S    
C25   H57   1.102443 S    
C3    H5    1.111827 S    
C23   H51   1.082602 S    
O37   C14   1.406861 S    
C55   C69   1.408635 A    
P3    O3    1.559366 D    
C24   H52   1.082318 S    
C2    C30   1.513609 S    
P4    O20   1.765032 S    
C35   N7    1.427033 S    
O18   C22   1.390109 S    
C39   C47   1.407757 A    
P7    O48   1.591755 S    
C22   H46   1.085113 S    
C14   N14   1.455240 S    
C11   H69   1.108932 S    
O1    Ba1   2.868636 S    
C34   C62   1.416971 A    
P9    O29   1.751648 S    
N6    H91   1.038127 S    
P4    Ba4   3.443944 S    
O22   P13   1.741675 S    
C33   C61   1.416365 A    
N13   H105  1.038545 S    
C42   C46   1.404847 A    
P7    O39   1.761059 S    
O32   Ba4   2.845896 S    
C49   C53   1.446710 A    
P4    C52   1.904122 S    
C3    H11   1.110093 S    
N12   H104  1.034018 S    
C40   C48   1.405946 A    
O23   C31   1.397158 S    
C30   H66   1.112546 S    
C9    H25   1.108846 S    
P6    C61   1.913838 S    
C37   N9    1.439738 S    
P1    O5    1.591832 S    
N7    H93   1.036291 S    
O21   C29   1.402138 S    
P5    C62   1.912662 S    
O16   P15   1.542920 D    
C11   H27   1.105726 S    
O42   C6    1.404095 S    
N8    H96   1.041869 S    
O41   C5    1.404293 S    
P16   C47   1.868471 S    
P4    O8    1.586613 S    
C10   H26   1.108864 S    
N5    H89   1.036584 S    
C28   H64   1.101032 S    
P8    O28   1.558672 D    
C40   C52   1.413484 A    
P4    O4    1.558347 D    
N11   H102  1.032211 S    
C56   C70   1.407170 A    
C28   H56   1.106275 S    
O26   Ba2   2.872199 S    
C15   N15   1.455143 S    
C36   C64   1.417578 A    
P9    O41   1.742787 S    
N9    H97   1.030570 S    
C18   H42   1.094607 S    
O12   P15   1.753832 S    
C42   H76   1.072493 S    
C67   C71   1.400494 A    
Ba2   O46   2.850801 S    
C17   H41   1.093827 S    
P2    O2    1.558347 D    
C54   C60   1.441156 A    
P11   O43   1.742900 S    
C6    H18   1.113129 S    
C24   H48   1.102079 S    
C19   H43   1.096079 S    
N10   H100  1.034686 S    
O5    Ba2   2.859994 S    
C50   C54   1.442764 A    
C51   C55   1.444480 A    
Ba3   O48   2.988073 S    
P2    Ba2   3.443944 S    
O31   Ba3   2.839557 S    
H4    C32   1.115084 S    
C71   H77   1.075942 S    
H3    C31   1.114479 S    
C8    H20   1.109210 S    
O30   Ba2   2.845896 S    
C16   C20   1.528400 S    
Ba1   O46   2.988073 S    
O10   P13   1.754588 S    
C13   N13   1.454910 S    
P10   O30   1.754020 S    
C42   C60   1.410236 A    
P2    C50   1.902076 S    
Ba3   Ba4   4.695359 S    
P3    O7    1.591832 S    
P13   C46   1.856568 S    
N14   H108  1.043994 S    
P12   O36   1.541866 D    
C70   H80   1.073078 S    
P14   C45   1.863113 S    
C41   C45   1.403978 A    
P11   C68   1.858037 S    
O4    Ba4   2.862892 S    
C34   C66   1.397359 A    
C12   H70   1.104879 S    
P5    Ba1   3.446261 S    
O23   P16   1.741786 S    
C53   C59   1.443952 A    
C54   C72   1.406195 A    
O22   C30   1.401560 S    
O24   P15   1.738348 S    
C3    C31   1.523804 S    
C8    C12   1.511360 S    
C20   H36   1.110322 S    
C34   N6    1.428635 S    
N13   H106  1.044192 S    
C69   H79   1.073372 S    
P15   C48   1.865786 S    
C1    C29   1.513829 S    
C4    C32   1.515759 S    
P2    O18   1.746811 S    
N12   H103  1.032612 S    
P12   O44   1.738944 S    
P3    C51   1.905532 S    
C60   C64   1.450743 A    
C27   H63   1.100756 S    
N1    H81   1.045444 S    
O9    Ba1   2.846582 S    
C66   C70   1.397692 A    
C44   H74   1.070867 S    
N3    H85   1.045799 S    
C65   C69   1.399143 A    
C31   H67   1.111420 S    
C68   C72   1.396595 A    
C5    C9    1.515892 S    
P6    O26   1.558672 D    
N8    H95   1.036344 S    
C16   H32   1.108278 S    
C17   H37   1.106881 S    
P11   O35   1.541985 D    
C27   H55   1.106533 S    
N7    H94   1.041966 S    
C36   C68   1.397873 A    
C43   C57   1.412878 A    
C6    C10   1.516097 S    
N4    H88   1.045004 S    
O13   P14   1.545375 D    
N5    H90   1.041645 S    
C19   H39   1.107019 S    
Ba1   Ba2   4.695359 S    
Ba1   O45   2.859943 S    
O39   C16   1.406911 S    
C5    H17   1.113282 S    
C38   N10   1.441093 S    
C58   C62   1.451241 A    
C32   H68   1.111153 S    
C7    C11   1.513663 S    
N3    H86   1.044916 S    
P8    O47   1.597032 S    
C12   H22   1.108699 S    
C36   N8    1.427060 S    
C44   C58   1.410923 A    
C25   H53   1.109143 S    
Ba4   O48   2.850801 S    
C21   H45   1.104329 S    
C26   H54   1.108885 S    
P10   O34   1.544645 D    
Ba2   O45   2.987766 S    
P1    O1    1.559366 D    
C4    H12   1.112310 S    
P11   O31   1.754554 S    
O2    Ba2   2.862892 S    
O17   C21   1.400546 S    
C4    H6    1.112052 S    
P2    O6    1.586613 S    
O27   Ba3   2.866400 S    
O28   Ba4   2.872199 S    
O9    P14   1.759958 S    
C59   C63   1.450913 A    
N10   H99   1.034524 S    
O24   C32   1.398104 S    
P7    O27   1.557655 D    
C18   H34   1.106875 S    
C21   H49   1.078489 S    
N15   H110  1.043899 S    
P6    O45   1.597032 S    
C4    N2    1.456204 S    
C22   C26   1.514674 S    
C40   N12   1.440610 S    
P1    Ba1   3.445962 S    
C19   H35   1.110361 S    
C13   C17   1.527980 S    
P6    Ba2   3.448324 S    
C8    H16   1.111431 S    
O3    Ba3   2.868636 S    
N14   H107  1.039582 S    
C1    N3    1.459340 S    
N2    H84   1.042954 S    
P8    Ba4   3.448324 S    
C33   C65   1.396487 A    
C41   H75   1.072354 S    
P6    O38   1.757407 S    
P7    Ba3   3.446261 S    
C33   N5    1.427358 S    
H2    C30   1.110201 S    
C15   C19   1.527869 S    
C16   N16   1.455155 S    
O19   C23   1.399255 S    
C14   C18   1.525909 S    
C57   C61   1.452537 A    
P8    O40   1.761120 S    
C37   C49   1.418111 A    
C21   C25   1.509317 S    
C20   H40   1.107292 S    
C3    N1    1.456163 S    
N15   H109  1.039489 S    
O12   Ba4   2.840234 S    
C1    H9    1.110027 S    
C35   C63   1.416374 A    
O11   P16   1.756776 S    
N1    H82   1.046003 S    
O14   P13   1.545117 D    
O25   Ba1   2.866400 S    
P5    O37   1.759475 S    
P9    O33   1.543977 D    
C7    H19   1.109357 S    
P10   O42   1.742445 S    
O8    Ba3   2.850850 S    
C17   H33   1.108028 S    
C26   H58   1.111374 S    
C38   C50   1.412092 A    
P5    O25   1.557655 D    
C2    N4    1.459222 S    
P3    Ba3   3.445962 S    
N6    H92   1.042018 S    
P7    C64   1.915646 S    
C24   C28   1.508796 S    
N4    H87   1.045732 S    
C23   H47   1.103834 S    
O40   C15   1.407053 S    
C56   C58   1.441409 A    
C53   C71   1.410851 A    
N16   H111  1.039799 S    
C14   H30   1.107811 S    
O29   Ba1   2.839557 S    
C38   C46   1.404668 A    
P10   C65   1.859800 S    
C44   C48   1.404637 A    
C9    H71   1.109669 S    
C39   C51   1.411229 A    
P9    C66   1.856542 S    
C22   H50   1.109291 S    
P12   O32   1.754602 S    
C6    H14   1.112607 S    
Ba4   O47   2.987766 S    
O21   P14   1.741493 S    
O20   C24   1.399983 S    
C11   H21   1.106670 S    
C5    H13   1.112616 S    
C2    H8    1.112163 S    
C10   H24   1.108544 S    
P5    O46   1.591755 S    
H1    C29   1.110330 S    
C55   C57   1.442519 A    
C39   N11   1.440682 S    
C7    H15   1.112659 S    
C23   C27   1.508631 S    
C13   H29   1.107922 S    
C43   C47   1.406758 A    
P1    C49   1.907796 S    
C72   H78   1.071196 S    
C41   C59   1.411842 A    
