data_mof_unit_24912.cif
_audit_creation_date              2012-12-11T15:55:47-0500
_audit_creation_method            fapswitch 2.2
_symmetry_space_group_name_H-M    P1
_symmetry_Int_Tables_number       1
_space_group_crystal_system       triclinic
_cell_length_a                    11.037285
_cell_length_b                    11.104172
_cell_length_c                    18.739554
_cell_angle_alpha                 90.584915
_cell_angle_beta                  90.6678
_cell_angle_gamma                 58.86344
_cell_volume                      1965.68970786

loop_
_atom_site_label
_atom_site_type_symbol
_atom_type_description
_atom_site_fract_x
_atom_site_fract_y
_atom_site_fract_z
_atom_type_partial_charge
C1    C     C_R   0.362239 0.761477 0.394288 0.540950
C2    C     C_R   0.640633 0.118580 0.169685 0.029198
C3    C     C_R   0.370813 0.330295 0.159597 0.003690
C4    C     C_R   0.482296 0.239025 0.273197 -0.151100
C5    C     C_R   0.493986 0.229751 0.198894 -0.021369
C6    C     C_R   0.055126 0.635770 0.354340 -0.087262
C7    C     C_R   0.919262 0.705485 0.382494 -0.121668
C8    C     C_R   0.670326 0.006199 0.121443 -0.083543
C9    C     C_R   0.808084 0.902217 0.103661 -0.139992
C10   C     C_R   0.257815 0.444362 0.195232 -0.164307
C11   C     C_R   0.242579 0.447215 0.269371 -0.041799
C12   C     C_R   0.384046 0.354619 0.387150 0.541559
C13   C     C_R   0.813323 0.695169 0.348229 -0.081167
C14   C     C_R   0.840760 0.625850 0.282994 -0.097738
C15   C     C_R   0.979665 0.544620 0.258769 -0.105215
C16   C     C_R   0.092953 0.540674 0.296739 0.004721
C17   C     C_R   0.361439 0.343754 0.309767 0.000722
C18   C     C_R   0.864853 0.332164 0.183464 0.023097
C19   C     C_R   0.960298 0.237800 0.233412 0.013536
C20   C     C_R   0.929446 0.250225 0.304279 -0.010759
C21   C     C_R   0.694209 0.440495 0.277833 -0.157199
C22   C     C_R   0.725903 0.427768 0.204765 -0.185080
C23   C     C_R   0.772193 0.381192 0.402159 0.550178
C24   C     C_3   0.113052 0.180016 0.247251 -0.275751
C25   C     C_3   0.077766 0.197900 0.326565 -0.292806
C26   C     C_R   0.802384 0.360060 0.327973 0.039653
C27   C     C_R   0.372827 0.814358 0.170029 0.001954
C28   C     C_R   0.458092 0.838987 0.217084 -0.010413
C29   C     C_R   0.449177 0.827949 0.290363 0.006667
C30   C     C_R   0.303947 0.729493 0.270725 -0.165800
C31   C     C_R   0.312215 0.740593 0.197214 -0.161592
C32   C     C_3   0.473804 0.962719 0.228028 -0.276660
C33   C     C_3   0.453207 0.956911 0.306864 -0.284061
C34   C     C_R   0.342385 0.771313 0.603553 0.545743
C35   C     C_R   0.361636 0.785803 0.318327 0.007554
C36   C     C_R   0.274995 0.273284 0.802743 0.015598
C37   C     C_R   0.393999 0.172098 0.765486 0.021910
C38   C     C_R   0.414193 0.190447 0.695318 0.026114
C39   C     C_R   0.186984 0.405382 0.691471 -0.170806
C40   C     C_R   0.165562 0.385538 0.763607 -0.135254
C41   C     C_3   0.548429 0.106843 0.783192 -0.271357
C42   C     C_3   0.570591 0.125224 0.705947 -0.272637
C43   C     C_R   0.318131 0.313105 0.658888 0.000425
C44   C     C_R   0.844743 0.318465 0.829702 0.007850
C45   C     C_R   0.368723 0.349111 0.595305 0.541568
C46   C     C_R   0.834643 0.431970 0.793803 0.030273
C47   C     C_R   0.828369 0.440403 0.721634 0.024369
C48   C     C_R   0.851755 0.212299 0.714231 -0.170326
C49   C     C_R   0.863266 0.202469 0.789115 -0.170535
C50   C     C_3   0.736744 0.585302 0.805502 -0.285346
C51   C     C_3   0.726838 0.596410 0.725206 -0.266447
C52   C     C_R   0.825077 0.336808 0.680562 0.019127
C53   C     C_R   0.291672 0.865856 0.821543 0.024501
C54   C     C_R   0.187893 0.856163 0.784177 0.022185
C55   C     C_R   0.195051 0.840844 0.711047 -0.027262
C56   C     C_R   0.765186 0.375868 0.609569 0.542529
C57   C     C_R   0.394511 0.873621 0.708450 -0.173303
C58   C     C_R   0.391020 0.882097 0.782673 -0.176975
C59   C     C_3   0.137763 0.755113 0.793018 0.145104
C60   C     C_3   0.146581 0.736812 0.712214 -0.239333
C61   C     C_R   0.304737 0.839139 0.672729 0.011917
C62   C     C_R   0.910242 0.316359 0.111070 0.544809
C63   C     C_R   0.332628 0.295373 0.090568 0.546093
C64   C     C_R   0.311181 0.895192 0.104322 0.536616
C65   C     C_R   0.885586 0.307865 0.904004 0.532130
C66   C     C_R   0.269167 0.254421 0.879684 0.560450
C67   C     C_R   0.922103 0.898465 0.137332 -0.072316
C68   C     C_R   0.273541 0.898484 0.896804 0.556601
C69   C     C_R   0.898431 0.998538 0.188996 -0.077431
C70   C     C_R   0.760350 0.107857 0.203967 -0.105304
Cr1   Cr    Cr6+3 0.601740 0.606840 0.505840 0.996675
Cr2   Cr    Cr6+3 0.291500 0.601560 0.495070 0.985734
Cr3   Cr    Cr6+3 0.606780 0.291630 0.499130 1.003894
Cr4   Cr    Cr6+3 0.062440 0.063060 0.008240 1.021747
Cr5   Cr    Cr6+3 0.062950 0.375000 0.998920 1.010347
Cr6   Cr    Cr6+3 0.374550 0.061770 0.992470 0.980451
H1    H     H_    0.572325 0.160023 0.303339 0.144842
H2    H     H_    0.754553 0.633837 0.251804 0.134076
H3    H     H_    0.997712 0.486126 0.209774 0.137678
H4    H     H_    0.588873 0.516907 0.295507 0.137156
H5    H     H_    0.645543 0.494910 0.166367 0.126131
H6    H     H_    0.151940 0.247632 0.227489 0.138904
H7    H     H_    0.174879 0.068497 0.230418 0.152811
H8    H     H_    0.123543 0.096641 0.355660 0.138567
H9    H     H_    0.091276 0.280285 0.353124 0.154467
H10   H     H_    0.249604 0.679878 0.289917 0.139975
H11   H     H_    0.826123 0.818169 0.067290 0.103433
H12   H     H_    0.257367 0.705888 0.162427 0.125057
H13   H     H_    0.390976 0.058836 0.200843 0.157967
H14   H     H_    0.585069 0.930086 0.219588 0.146101
H15   H     H_    0.544554 0.941653 0.338893 0.130116
H16   H     H_    0.352395 0.045086 0.326846 0.143673
H17   H     H_    0.107288 0.498689 0.663913 0.126470
H18   H     H_    0.069625 0.463514 0.789912 0.152519
H19   H     H_    0.601258 0.994631 0.798769 0.125366
H20   H     H_    0.570767 0.173151 0.819369 0.151786
H21   H     H_    0.606050 0.201369 0.698623 0.156441
H22   H     H_    0.895511 0.770443 0.429820 0.096990
H23   H     H_    0.632531 0.023913 0.676595 0.131412
H24   H     H_    0.855701 0.127184 0.683562 0.125868
H25   H     H_    0.884306 0.106571 0.814834 0.131118
H26   H     H_    0.790960 0.636747 0.829926 0.144291
H27   H     H_    0.636242 0.609786 0.831284 0.132045
H28   H     H_    0.477167 0.878260 0.680298 0.131630
H29   H     H_    0.469181 0.896644 0.809824 0.143430
H30   H     H_    0.026589 0.810459 0.812032 0.122951
H31   H     H_    0.028005 0.813804 0.125655 0.117727
H32   H     H_    0.228074 0.631687 0.692214 0.153794
H33   H     H_    0.041025 0.779743 0.686403 0.096716
H34   H     H_    0.987582 0.988937 0.218580 0.128822
H35   H     H_    0.746073 0.179977 0.246249 0.128502
H36   H     H_    0.124801 0.664291 0.376533 0.184478
H37   H     H_    0.593943 0.979771 0.104411 0.170359
H38   H     H_    0.169686 0.523691 0.163976 0.124542
O1    O     O_R   0.748670 0.497520 0.427970 -0.517700
O2    O     O_R   0.300170 0.471020 0.567120 -0.510196
O3    O     O_R   0.491630 0.259030 0.574940 -0.518026
O4    O     O_R   0.718640 0.304340 0.577850 -0.510758
O5    O     O_3   0.500010 0.500010 0.500020 -0.250174
O6    O     O_R   0.186620 0.923750 0.087000 -0.521919
O7    O     O_R   0.957350 0.194160 0.084660 -0.483945
O8    O     O_R   0.935120 0.407280 0.085350 -0.533289
O9    O     O_R   0.203800 0.365060 0.067090 -0.502232
O10   O     O_R   0.417470 0.174910 0.067830 -0.538540
O11   O     O_R   0.375160 0.946380 0.070880 -0.515687
O12   O     O_R   0.476470 0.723930 0.429450 -0.502931
O13   O     O_R   0.160500 0.919670 0.926690 -0.494999
O14   O     O_R   0.933140 0.190380 0.936050 -0.508235
O15   O     O_R   0.909010 0.403210 0.925030 -0.526031
O16   O     O_R   0.179590 0.361290 0.918480 -0.483321
O17   O     O_R   0.391360 0.170840 0.907510 -0.532043
O18   O     O_R   0.350950 0.942600 0.922260 -0.534866
O19   O     O_3   0.166650 0.166610 0.999880 -0.268754
O20   O     O_R   0.264730 0.744140 0.416740 -0.554718
O21   O     O_R   0.309440 0.472410 0.418220 -0.521161
O22   O     O_R   0.501630 0.260530 0.414310 -0.526966
O23   O     O_R   0.727920 0.305730 0.428950 -0.505150
O24   O     O_R   0.738670 0.496020 0.588600 -0.520730
O25   O     O_R   0.467190 0.722540 0.578350 -0.511064
O26   O     O_R   0.254720 0.742640 0.577370 -0.520278
H39   H     H_    0.710350 0.742300 0.371887 0.140012
H40   H     H_    0.621020 0.624610 0.704518 0.165183
H41   H     H_    0.771952 0.657304 0.703033 0.130446
O27   O     O_3   0.225973 0.635268 0.836341 -0.536958
C71   C     C_3   0.366315 0.545847 0.811796 -0.000180
H42   H     H_    0.410341 0.600930 0.782611 0.121423
H43   H     H_    0.370333 0.464057 0.775929 0.143958
C72   C     C_3   0.461987 0.472802 0.875633 -0.359068
H44   H     H_    0.420876 0.416953 0.906632 0.194127
H45   H     H_    0.569993 0.395054 0.857075 0.089273
H46   H     H_    0.467009 0.551371 0.910700 0.148961

loop_
_geom_bond_atom_site_label_1
_geom_bond_atom_site_label_2
_ccdc_geom_bond_type
C44   C49   A    
C7    C13   A    
C21   C26   A    
Cr3   O5    S    
C7    H22   S    
C63   O9    A    
Cr5   O8    S    
C41   C42   S    
C19   C20   A    
C72   H46   S    
C9    C67   A    
C63   O10   A    
C1    O12   A    
C53   C54   A    
C20   C26   A    
C30   C35   A    
Cr5   O9    S    
C21   C22   A    
C28   C29   A    
C24   H7    S    
C72   H45   S    
C38   C42   S    
C33   H15   S    
C49   H25   S    
C30   C31   A    
Cr6   O17   S    
C36   C66   S    
C41   H20   S    
C20   C25   S    
C15   C16   A    
Cr4   O19   S    
C29   C33   S    
C34   O25   A    
Cr2   O5    S    
C18   C19   A    
C11   C16   S    
C23   C26   S    
C68   O18   A    
C53   C68   S    
C24   H6    S    
C39   H17   S    
C60   H33   S    
C54   C55   A    
C15   H3    S    
C32   H13   S    
C8    C9    A    
C12   O21   A    
C12   C17   S    
C25   H8    S    
C50   H27   S    
Cr1   O12   S    
Cr3   O4    S    
C13   H39   S    
C30   H10   S    
C60   H32   S    
Cr5   O16   S    
C59   C60   S    
C55   C60   S    
Cr6   O11   S    
C44   C65   S    
C56   O4    A    
C32   H14   S    
C71   H43   S    
C44   C46   A    
C46   C50   S    
C71   H42   S    
Cr1   O24   S    
C54   C59   S    
C48   H24   S    
Cr4   O14   S    
C59   H30   S    
Cr3   O3    S    
C27   C31   A    
Cr6   O10   S    
C65   O14   A    
C36   C40   A    
C72   H44   S    
C10   H38   S    
C27   C64   S    
C42   H21   S    
C39   C40   A    
C18   C62   S    
Cr2   O21   S    
Cr1   O25   S    
C6    C16   A    
C34   C61   S    
C67   C69   A    
C22   H5    S    
C37   C38   A    
C47   C51   S    
C65   O15   A    
C56   O24   A    
C69   H34   S    
Cr2   O20   S    
Cr4   O13   S    
Cr3   O22   S    
C28   C32   S    
Cr6   O19   S    
C25   H9    S    
C50   C51   S    
Cr1   O1    S    
C24   C25   S    
C43   C45   S    
C68   O13   A    
C47   C52   A    
C8    H37   S    
C4    C17   A    
C48   C49   A    
C59   O27   S    
C50   H26   S    
C3    C63   S    
C10   C11   A    
C33   H16   S    
C2    C5    S    
Cr2   O26   S    
C1    O20   A    
C62   O8    A    
C71   C72   S    
C1    C35   S    
C66   O17   A    
C51   H40   S    
C45   O3    A    
C57   H28   S    
C29   C35   A    
C46   C47   A    
C36   C37   A    
C31   H12   S    
C18   C22   A    
C6    H36   S    
C23   O23   A    
C2    C8    A    
C40   H18   S    
O27   C71   S    
C3    C5    A    
C11   C17   A    
C39   C43   A    
C53   C58   A    
Cr5   O19   S    
C57   C61   A    
C6    C7    A    
C51   H41   S    
Cr4   O6    S    
Cr2   O2    S    
C64   O6    A    
Cr1   O5    S    
C58   H29   S    
C32   C33   S    
C19   C24   S    
C38   C43   A    
C3    C10   A    
C2    C70   A    
C42   H23   S    
C9    H11   S    
Cr6   O18   S    
C45   O2    A    
C67   H31   S    
C57   C58   A    
C41   H19   S    
Cr3   O23   S    
C4    C5    A    
C55   C61   A    
C21   H4    S    
C34   O26   A    
C14   H2    S    
C37   C41   S    
C69   C70   A    
C70   H35   S    
C23   O1    A    
Cr5   O15   S    
C4    H1    S    
C48   C52   A    
Cr4   O7    S    
C64   O11   A    
C12   O22   A    
C27   C28   A    
C14   C15   A    
C13   C14   A    
C62   O7    A    
C52   C56   S    
C66   O16   A    
