data_mof_unit_51771.cif
_audit_creation_date              2012-12-11T17:41:34-0500
_audit_creation_method            fapswitch 2.2
_symmetry_space_group_name_H-M    P1
_symmetry_Int_Tables_number       1
_space_group_crystal_system       triclinic
_cell_length_a                    15.532668
_cell_length_b                    14.991992
_cell_length_c                    15.185279
_cell_angle_alpha                 109.767476
_cell_angle_beta                  121.125632
_cell_angle_gamma                 58.844458
_cell_volume                      2578.33345041

loop_
_atom_site_label
_atom_site_type_symbol
_atom_type_description
_atom_site_fract_x
_atom_site_fract_y
_atom_site_fract_z
_atom_type_partial_charge
C1    C     C_R   0.796993 0.945035 0.776716 -0.184066
C2    C     C_R   0.227483 0.023107 0.211720 -0.177648
C3    C     C_R   0.214819 0.300622 0.567340 0.124099
C4    C     C_R   0.862564 0.725503 0.517437 0.142317
C5    C     C_R   0.498774 0.293718 0.423019 0.046867
C6    C     C_R   0.498854 0.673610 0.475003 0.031116
C7    C     C_R   0.495992 0.955787 0.805102 0.040264
C8    C     C_R   0.503485 0.036655 0.190963 0.046984
C9    C     C_R   0.658807 0.625628 0.818210 -0.108497
C10   C     C_R   0.340689 0.383005 0.123555 -0.093034
C11   C     C_R   0.591193 0.726050 0.847079 -0.130884
C12   C     C_R   0.405695 0.278695 0.099957 -0.154372
C13   C     C_R   0.637455 0.783040 0.938796 0.100948
C14   C     C_R   0.359518 0.205959 0.050923 0.118155
C15   C     C_R   0.752204 0.736852 0.001665 -0.148626
C16   C     C_R   0.245800 0.240192 0.020236 -0.151913
C17   C     C_R   0.819415 0.636232 0.972670 -0.096843
C18   C     C_R   0.181083 0.344432 0.044562 -0.104400
C19   C     C_R   0.772812 0.580793 0.880913 -0.101156
C20   C     C_R   0.228739 0.415625 0.096941 -0.106923
C21   C     C_R   0.573536 0.919189 0.067050 -0.222315
C22   C     C_R   0.420725 0.068553 0.925342 -0.207165
C23   C     C_R   0.245268 0.290307 0.491741 -0.116825
C24   C     C_R   0.800601 0.725244 0.557999 -0.130590
C25   C     C_R   0.505204 0.020416 0.094466 0.060371
C26   C     C_R   0.490486 0.968282 0.898622 0.064863
C27   C     C_R   0.428089 0.096258 0.023770 0.003973
C28   C     C_R   0.566486 0.891405 0.968078 0.016494
C29   C     C_2   0.153890 0.399068 0.615021 -0.190622
C30   C     C_2   0.977812 0.652671 0.536053 -0.188295
C31   C     C_2   0.135483 0.490742 0.598372 -0.114974
C32   C     C_2   0.039461 0.584231 0.606775 -0.112049
C33   C     C_2   0.975357 0.963820 0.852068 -0.122284
C34   C     C_2   0.109945 0.922927 0.107227 -0.153550
C35   C     C_R   0.247912 0.758158 0.585267 -0.132405
C36   C     C_R   0.783540 0.113758 0.342303 -0.143141
C37   C     C_R   0.332618 0.687457 0.553453 -0.138604
C38   C     C_R   0.686562 0.204457 0.336723 -0.186816
C39   C     C_R   0.306636 0.646177 0.449431 0.056113
C40   C     C_R   0.691325 0.291285 0.410282 0.067407
C41   C     C_R   0.194333 0.675143 0.378564 -0.201768
C42   C     C_R   0.795397 0.285220 0.489627 -0.232762
C43   C     C_R   0.109805 0.744822 0.410962 0.416719
C44   C     C_R   0.892028 0.193626 0.496007 0.428793
C45   C     C_R   0.590913 0.216248 0.484940 -0.095939
C46   C     C_R   0.407713 0.768310 0.453939 -0.109709
C47   C     C_R   0.136640 0.786678 0.514217 -0.132733
C48   C     C_R   0.885985 0.107991 0.422413 -0.046852
C49   C     C_R   0.393316 0.470004 0.377287 -0.244362
C50   C     C_R   0.584794 0.484731 0.428877 -0.246936
C51   C     C_R   0.492470 0.379483 0.391784 0.062671
C52   C     C_R   0.493453 0.573555 0.440766 0.065010
C53   C     C_R   0.587738 0.385458 0.408482 0.052767
C54   C     C_R   0.396616 0.565573 0.416680 0.041062
C55   C     C_2   0.030136 0.896992 0.922696 -0.131784
C56   C     C_2   0.116466 0.913244 0.019883 -0.147539
C57   C     C_R   0.405287 0.996928 0.717384 -0.158093
C58   C     C_R   0.595009 0.995359 0.279120 -0.138808
C59   C     C_R   0.407990 0.283573 0.405058 -0.133948
C60   C     C_R   0.592666 0.692829 0.535138 -0.129558
C61   C     C_R   0.590740 0.926802 0.795559 -0.099791
C62   C     C_R   0.409346 0.070472 0.203498 -0.114689
C63   C     C_R   0.245009 0.200722 0.584000 -0.072316
C64   C     C_R   0.800799 0.814989 0.466790 -0.095724
C65   C     C_R   0.803336 0.030443 0.686402 0.305463
C66   C     C_R   0.214602 0.943341 0.302402 0.281125
C67   C     C_R   0.861305 0.982883 0.776816 0.062332
C68   C     C_R   0.180260 0.962280 0.203580 0.081892
H1    H     H_    0.820366 0.893638 0.828344 0.110840
H2    H     H_    0.210066 0.060301 0.151173 0.111980
H3    H     H_    0.051640 0.903245 0.107146 0.173655
H4    H     H_    0.008754 0.015090 0.858199 0.165413
H5    H     H_    0.825051 0.503075 0.858423 0.116962
H6    H     H_    0.178611 0.496319 0.115625 0.108739
H7    H     H_    0.622840 0.582542 0.747189 0.112491
H8    H     H_    0.376927 0.438701 0.161825 0.126348
H9    H     H_    0.502905 0.759461 0.797839 0.108749
H10   H     H_    0.491013 0.255183 0.117257 0.113503
H11   H     H_    0.789919 0.779412 0.072133 0.166162
H12   H     H_    0.207886 0.185836 0.978819 0.125546
H13   H     H_    0.907788 0.601447 0.021102 0.121535
H14   H     H_    0.093918 0.370129 0.022405 0.114127
H15   H     H_    0.628796 0.860244 0.121503 0.150838
H16   H     H_    0.365249 0.127972 0.871273 0.144241
H17   H     H_    0.009508 0.586914 0.658658 0.130112
H18   H     H_    0.176414 0.494171 0.560183 0.133892
H19   H     H_    0.008837 0.648763 0.484365 0.158812
H20   H     H_    0.111599 0.396702 0.652568 0.157605
H21   H     H_    0.071414 0.841101 0.539381 0.173356
H22   H     H_    0.960167 0.036236 0.428753 0.202289
H23   H     H_    0.233250 0.351467 0.458644 0.097705
H24   H     H_    0.828337 0.674217 0.612174 0.089113
H25   H     H_    0.268600 0.790187 0.665286 0.137135
H26   H     H_    0.779021 0.047082 0.285768 0.166894
H27   H     H_    0.418379 0.664402 0.609858 0.114692
H28   H     H_    0.607663 0.205515 0.277422 0.129090
H29   H     H_    0.172627 0.643496 0.298313 0.144259
H30   H     H_    0.801183 0.349739 0.548993 0.147276
H31   H     H_    0.317758 0.466589 0.358181 0.128535
H32   H     H_    0.655966 0.492267 0.440972 0.135365
H33   H     H_    0.676332 0.196645 0.509284 0.171579
H34   H     H_    0.323419 0.780945 0.405860 0.163661
H35   H     H_    0.319229 0.019596 0.696882 0.149921
H36   H     H_    0.681690 0.965441 0.296831 0.133365
H37   H     H_    0.323713 0.319101 0.347841 0.099220
H38   H     H_    0.678421 0.636651 0.567340 0.099936
H39   H     H_    0.676384 0.887422 0.848679 0.104681
H40   H     H_    0.323948 0.109678 0.151011 0.096355
H41   H     H_    0.233773 0.181525 0.638494 0.142735
H42   H     H_    0.830609 0.846210 0.439154 0.160369
H43   H     H_    0.174106 0.933038 0.018930 0.142321
H44   H     H_    0.997931 0.846092 0.919183 0.133906
N1    N     N_R   0.705410 0.966550 0.689210 -0.061113
N2    N     N_R   0.294590 0.033450 0.310790 -0.059587
N3    N     N_R   0.294590 0.188320 0.465660 -0.049775
N4    N     N_R   0.705410 0.811680 0.534340 -0.048151
N5    N     N_R   0.556610 0.157790 0.497330 -0.042159
N6    N     N_R   0.443390 0.842210 0.502670 -0.040545
N7    N     N_R   0.443390 0.997080 0.657540 -0.041759
N8    N     N_R   0.556610 0.002920 0.342460 -0.037461
N9    N     N_R   0.443390 0.203250 0.451380 -0.046218
N10   N     N_R   0.556610 0.796750 0.548620 -0.042327
N11   N     N_R   0.556610 0.951620 0.703500 -0.043959
N12   N     N_R   0.443390 0.048380 0.296500 -0.042254
N13   N     N_R   0.294590 0.131500 0.522480 -0.041270
N14   N     N_R   0.705410 0.868500 0.477520 -0.048919
N15   N     N_R   0.705410 0.023370 0.632390 -0.073445
N16   N     N_R   0.294590 0.976630 0.367610 -0.069611
Ni1   Ni    Ni4+2 0.629830 0.882720 0.617850 0.206769
Ni2   Ni    Ni4+2 0.370170 0.117280 0.382150 0.212445
Ni3   Ni    Ni4+2 0.629830 0.013030 0.487540 0.245036
Ni4   Ni    Ni4+2 0.370170 0.986970 0.512460 0.267760
Br1   Br    Br    0.957824 0.784143 0.313463 -0.675472
Br2   Br    Br    0.031146 0.183251 0.609059 -0.604007
Br3   Br    Br    0.873395 0.051956 0.627792 -0.631103
Br4   Br    Br    0.122482 0.932074 0.342091 -0.614683

loop_
_geom_bond_atom_site_label_1
_geom_bond_atom_site_label_2
_ccdc_geom_bond_type
N2    Ni2   S    
C33   C55   D    
C66   C68   A    
C55   C56   S    
C34   C56   D    
C23   H23   S    
C55   H44   S    
N8    Ni3   S    
C47   H21   S    
C3    C23   A    
N9    Ni2   S    
C35   C47   A    
N7    N11   A    
C62   N12   A    
C39   C41   A    
C46   H34   S    
C46   N6    A    
C59   H37   S    
C7    C26   S    
C1    N1    A    
C65   N15   A    
C35   C37   A    
C2    C68   A    
C42   H30   S    
C4    C24   A    
C39   C54   S    
C62   H40   S    
C49   C54   A    
N16   Ni4   S    
C11   C13   A    
C37   H27   S    
C43   Br1   S    
N6    N10   A    
C3    C29   S    
N5    N9    A    
C7    C61   A    
C29   H20   S    
C11   H9    S    
C33   H4    S    
C8    C58   A    
C10   H8    S    
C9    C19   A    
C15   H11   S    
N4    Ni1   S    
C21   H15   S    
C10   C20   A    
C49   C51   A    
C12   H10   S    
C50   C52   A    
C13   C28   S    
C14   C27   S    
C17   H13   S    
C56   H43   S    
C18   C20   A    
C57   N7    A    
C40   C42   A    
C31   H18   S    
C48   H22   S    
N11   Ni1   S    
C8    C25   S    
C41   C43   A    
C42   C44   A    
N5    Ni3   S    
C24   H24   S    
C52   C54   A    
C10   C12   A    
C35   H25   S    
N10   Ni1   S    
C44   Br2   S    
C57   H35   S    
C50   C53   A    
C5    C59   A    
N12   Ni2   S    
C6    C60   A    
C19   H5    S    
C34   C68   S    
C65   C67   A    
C5    C45   A    
C1    H1    S    
C1    C67   A    
C51   C53   A    
C22   H16   S    
C63   H41   S    
C49   H31   S    
N2    N16   A    
C64   H42   S    
C31   C32   S    
C58   N8    A    
N7    Ni4   S    
C20   H6    S    
C63   N13   A    
C60   N10   A    
C9    C11   A    
C65   Br3   S    
C45   H33   S    
C66   Br4   S    
C16   C18   A    
C21   C28   A    
C12   C14   A    
C24   N4    A    
C18   H14   S    
C64   N14   A    
C22   C27   A    
C13   C15   A    
C14   C16   A    
C58   H36   S    
C60   H38   S    
C33   C67   S    
C45   N5    A    
C15   C17   A    
C21   C25   A    
C6    C46   A    
C26   C28   A    
N1    N15   A    
C3    C63   A    
C25   C27   A    
C4    C64   A    
C50   H32   S    
N3    N13   A    
C61   N11   A    
C6    C52   S    
C36   C38   A    
C29   C31   D    
C44   C48   A    
C2    H2    S    
C30   C32   D    
C2    N2    A    
N13   Ni4   S    
C38   C40   A    
N14   Ni3   S    
C32   H17   S    
C17   C19   A    
C66   N16   A    
C36   C48   A    
C41   H29   S    
C61   H39   S    
N15   Ni3   S    
N6    Ni4   S    
C23   N3    A    
C59   N9    A    
C36   H26   S    
C37   C39   A    
C40   C53   S    
C22   C26   A    
C38   H28   S    
C5    C51   S    
N4    N14   A    
C9    H7    S    
C16   H12   S    
C30   H19   S    
N1    Ni1   S    
C43   C47   A    
C34   H3    S    
C7    C57   A    
C4    C30   S    
N8    N12   A    
C8    C62   A    
N3    Ni2   S    
