data_mof_unit_39148.cif
_audit_creation_date              2012-12-10T18:30:31-0500
_audit_creation_method            fapswitch 2.2
_symmetry_space_group_name_H-M    P1
_symmetry_Int_Tables_number       1
_space_group_crystal_system       triclinic
_cell_length_a                    15.135395
_cell_length_b                    14.061345
_cell_length_c                    15.771752
_cell_angle_alpha                 91.068213
_cell_angle_beta                  81.941865
_cell_angle_gamma                 102.561998
_cell_volume                      3243.66219725

loop_
_atom_site_label
_atom_site_type_symbol
_atom_type_description
_atom_site_fract_x
_atom_site_fract_y
_atom_site_fract_z
_atom_type_partial_charge
C1    C     C_R   0.557622 0.516175 0.338902 0.868331
C2    C     C_R   0.449027 0.602981 0.040834 -0.229653
C3    C     C_R   0.619707 0.402125 0.009394 -0.188972
C4    C     C_R   0.380333 0.597867 0.990595 -0.188968
C5    C     C_R   0.151946 0.316723 0.414849 -0.328859
C6    C     C_R   0.848067 0.683246 0.585190 -0.328319
C7    C     C_R   0.243571 0.361083 0.411493 -0.003670
C8    C     C_R   0.756436 0.638893 0.588553 -0.003942
C9    C     C_R   0.206477 0.505293 0.474772 0.063621
C10   C     C_R   0.793516 0.494705 0.525204 0.063650
C11   C     C_R   0.113266 0.468665 0.466021 -0.048800
C12   C     C_R   0.442377 0.483821 0.661097 0.868364
C13   C     C_R   0.886731 0.531328 0.533954 -0.048923
C14   C     C_R   0.085593 0.367952 0.448842 0.107072
C15   C     C_R   0.914394 0.632036 0.551104 0.107141
C16   C     C_R   0.499084 0.329818 0.500164 0.887602
C17   C     C_R   0.500919 0.670182 0.499833 0.887615
C18   C     C_R   0.045448 0.524207 0.486971 0.054586
C19   C     C_R   0.954558 0.475800 0.512998 0.054709
C20   C     C_R   0.934244 0.373550 0.518007 -0.256878
C21   C     C_R   0.065748 0.626468 0.481914 -0.256920
C22   C     C_R   0.994506 0.319695 0.476654 0.011417
C23   C     C_R   0.554521 0.517640 0.100508 0.012533
C24   C     C_R   0.005433 0.680314 0.523172 0.011259
C25   C     C_1   0.496973 0.227675 0.500544 -0.200820
C26   C     C_1   0.503041 0.772328 0.499442 -0.200839
C27   C     C_1   0.496823 0.142104 0.500625 -0.036652
C28   C     C_1   0.503207 0.857903 0.499353 -0.036726
C29   C     C_1   0.498839 0.042481 0.500231 -0.013996
C30   C     C_1   0.501202 0.957528 0.499742 -0.014026
C31   C     C_R   0.591580 0.524435 0.246747 -0.136402
C32   C     C_R   0.408423 0.475546 0.753252 -0.136410
C33   C     C_R   0.690390 0.466354 0.133236 0.146461
C34   C     C_R   0.445508 0.482345 0.899481 0.012535
C35   C     C_R   0.309621 0.533612 0.866777 0.146442
C36   C     C_R   0.673771 0.496809 0.217102 -0.238084
C37   C     C_R   0.326230 0.503162 0.782908 -0.238041
C38   C     C_R   0.535534 0.544545 0.187474 -0.078387
C39   C     C_R   0.464477 0.455431 0.812515 -0.078356
C40   C     C_R   0.549064 0.420623 0.780225 0.144685
C41   C     C_R   0.635709 0.481936 0.782044 -0.077749
C42   C     C_R   0.714858 0.447082 0.756159 -0.115781
C43   C     C_R   0.708115 0.351143 0.728506 -0.136354
C44   C     C_R   0.622241 0.290597 0.724567 -0.153744
C45   C     C_R   0.624214 0.464612 0.079075 0.106393
C46   C     C_R   0.542890 0.325612 0.748821 -0.167214
C47   C     C_R   0.450925 0.579319 0.219750 0.144738
C48   C     C_R   0.457057 0.674332 0.251142 -0.167259
C49   C     C_R   0.377681 0.709307 0.275379 -0.153711
C50   C     C_R   0.291825 0.648720 0.271445 -0.136300
C51   C     C_R   0.285125 0.552781 0.243803 -0.115813
C52   C     C_R   0.364299 0.517968 0.217927 -0.077729
C53   C     C_R   0.961840 0.212814 0.470834 0.133603
C54   C     C_R   0.932831 0.155221 0.545570 -0.180435
C55   C     C_R   0.898692 0.054899 0.539978 -0.123707
C56   C     C_R   0.375813 0.535368 0.920923 0.106378
C57   C     C_R   0.892878 0.011553 0.459918 -0.090143
C58   C     C_R   0.921129 0.068486 0.385306 -0.161418
C59   C     C_R   0.955215 0.168851 0.390618 -0.162973
C60   C     C_R   0.037839 0.787247 0.528510 0.133137
C61   C     C_R   0.045640 0.831558 0.608443 -0.162474
C62   C     C_R   0.079254 0.932060 0.613251 -0.160712
C63   C     C_R   0.105768 0.988792 0.538398 -0.089791
C64   C     C_R   0.098750 0.945080 0.458606 -0.123764
C65   C     C_R   0.065122 0.844613 0.453521 -0.180680
C66   C     C_R   0.769900 0.413303 0.464838 0.176305
C67   C     C_R   0.500610 0.530567 0.036208 0.073952
C68   C     C_R   0.810225 0.425577 0.378765 -0.160675
C69   C     C_R   0.807323 0.345396 0.324706 -0.145248
C70   C     C_R   0.762785 0.252392 0.355100 -0.095538
C71   C     C_R   0.722461 0.239093 0.440260 -0.140646
C72   C     C_R   0.726002 0.318898 0.494817 -0.141561
C73   C     C_R   0.230091 0.586712 0.535116 0.176240
C74   C     C_R   0.273985 0.681108 0.505117 -0.141316
C75   C     C_R   0.277607 0.760911 0.559679 -0.140571
C76   C     C_R   0.237370 0.747618 0.644865 -0.096487
C77   C     C_R   0.192818 0.654625 0.675274 -0.145449
C78   C     C_R   0.499432 0.469425 0.963774 0.073943
C79   C     C_R   0.189827 0.574446 0.621204 -0.160396
C80   C     C_R   0.551022 0.397016 0.959146 -0.229682
H1    H     H_    0.663499 0.350474 0.997986 0.184962
H2    H     H_    0.294862 0.319873 0.389908 0.145010
H3    H     H_    0.134389 0.241106 0.396792 0.155385
H4    H     H_    0.865680 0.758835 0.603337 0.155723
H5    H     H_    0.641571 0.555948 0.804648 0.121564
H6    H     H_    0.781387 0.494227 0.758034 0.141046
H7    H     H_    0.769472 0.324036 0.709048 0.123634
H8    H     H_    0.617237 0.216625 0.702197 0.133000
H9    H     H_    0.476747 0.277989 0.745917 0.122503
H10   H     H_    0.523185 0.721986 0.254043 0.122497
H11   H     H_    0.382652 0.783281 0.297736 0.133054
H12   H     H_    0.336543 0.649518 0.002004 0.184953
H13   H     H_    0.230449 0.675793 0.290898 0.123742
H14   H     H_    0.218611 0.505604 0.241931 0.141010
H15   H     H_    0.358471 0.443955 0.195332 0.121539
H16   H     H_    0.936759 0.188024 0.607993 0.128595
H17   H     H_    0.876917 0.010699 0.597693 0.131295
H18   H     H_    0.866703 0.933835 0.455721 0.131386
H19   H     H_    0.916316 0.034893 0.323346 0.135492
H20   H     H_    0.975806 0.212454 0.332420 0.137425
H21   H     H_    0.026298 0.788126 0.666803 0.137490
H22   H     H_    0.085016 0.965916 0.674999 0.135432
H23   H     H_    0.870829 0.334977 0.553031 0.145761
H24   H     H_    0.131533 0.066618 0.542200 0.131398
H25   H     H_    0.119146 0.989122 0.400701 0.131607
H26   H     H_    0.060192 0.811532 0.391309 0.128991
H27   H     H_    0.848189 0.496598 0.354815 0.135351
H28   H     H_    0.842333 0.354836 0.260035 0.176523
H29   H     H_    0.761648 0.190340 0.313308 0.138115
H30   H     H_    0.690965 0.166500 0.464729 0.146918
H31   H     H_    0.698644 0.306324 0.561324 0.140236
H32   H     H_    0.301309 0.693669 0.438601 0.140152
H33   H     H_    0.309112 0.833498 0.535202 0.146890
H34   H     H_    0.129133 0.665060 0.446842 0.145929
H35   H     H_    0.238583 0.809670 0.686669 0.137963
H36   H     H_    0.157873 0.645193 0.739968 0.176547
H37   H     H_    0.151864 0.503431 0.645170 0.135352
H38   H     H_    0.279289 0.510492 0.739163 0.186863
H39   H     H_    0.720703 0.489474 0.260855 0.186876
H40   H     H_    0.540209 0.336499 0.916199 0.170002
H41   H     H_    0.459851 0.663500 0.083776 0.169984
H42   H     H_    0.705148 0.680091 0.610185 0.144965
I1    I     I_    0.814164 0.420376 0.092348 -0.437077
I2    I     I_    0.185836 0.579560 0.907693 -0.437045
N1    N     N_R   0.268300 0.449640 0.447270 -0.106935
N2    N     N_R   0.731700 0.550360 0.552730 -0.106922
O1    O     O_R   0.616880 0.525390 0.394380 -0.607555
O2    O     O_R   0.383120 0.474610 0.605620 -0.607532
O3    O     O_R   0.468100 0.493070 0.360490 -0.598930
O4    O     O_R   0.531900 0.506930 0.639510 -0.598926
O5    O     O_R   0.574410 0.389880 0.516950 -0.589225
O6    O     O_R   0.425590 0.610120 0.483050 -0.589193
O7    O     O_R   0.425630 0.357560 0.483060 -0.611364
O8    O     O_R   0.574370 0.642440 0.516940 -0.611361
Zn1   Zn    Zn3+2 0.599340 0.521580 0.522630 0.947061
Zn2   Zn    Zn3+2 0.400660 0.478420 0.477370 0.947094

loop_
_geom_bond_atom_site_label_1
_geom_bond_atom_site_label_2
_ccdc_geom_bond_type
C66   C68   A    
C80   H40   S    
C11   C18   A    
C34   C56   A    
C23   C45   A    
C27   C29   S    
C18   C21   A    
C33   C45   A    
C41   C42   A    
C2    C4    A    
O4    Zn1   S    
C75   C76   A    
C33   C36   A    
C53   C59   A    
C64   H25   S    
C46   H9    S    
C53   C54   A    
C40   C46   A    
C29   C30   T    
C12   O4    A    
C17   C26   S    
C35   I2    S    
C35   C37   A    
O1    Zn1   S    
C1    O3    A    
O2    Zn2   S    
C74   H32   S    
C5    H3    S    
C11   C14   A    
C78   C80   A    
C3    C80   A    
C71   H30   S    
C1    C31   S    
C76   H35   S    
C52   H15   S    
C18   C19   A    
C73   C74   A    
C32   C39   A    
C23   C67   A    
C36   H39   S    
C16   O5    A    
C6    C15   A    
C66   C72   A    
C37   H38   S    
C19   C20   A    
C68   C69   A    
C3    H1    S    
O7    Zn2   S    
C70   C71   A    
C42   H6    S    
C68   H27   S    
C77   H36   S    
C5    C14   A    
C54   H16   S    
O6    Zn2   S    
C77   C79   A    
C72   H31   S    
C48   H10   S    
C12   C32   S    
C17   O6    A    
C59   H20   S    
C61   C62   A    
C67   C78   A    
C9    C73   S    
C49   H11   S    
C16   O7    A    
C69   H28   S    
C44   C46   A    
C22   C53   S    
C10   C66   S    
C6    H4    S    
C74   C75   A    
C13   C19   A    
C51   C52   A    
C76   C77   A    
C2    C67   A    
C39   C40   S    
C20   H23   S    
C21   H34   S    
C6    C8    A    
C58   C59   A    
C3    C45   A    
C9    N1    A    
C34   C39   A    
C60   C61   A    
C61   H21   S    
C43   C44   A    
C62   C63   A    
C70   H29   S    
O3    Zn2   S    
C47   C48   A    
C24   C60   S    
C55   H17   S    
C50   C51   A    
C73   C79   A    
C32   C37   A    
C7    N1    A    
C9    C11   A    
C38   C47   S    
C47   C52   A    
C75   H33   S    
N1    Zn2   S    
C8    N2    A    
C15   C24   A    
C20   C22   A    
N2    Zn1   S    
C55   C57   A    
C42   C43   A    
C65   H26   S    
C5    C7    A    
C2    H41   S    
C16   C25   S    
C54   C55   A    
C48   C49   A    
C35   C56   A    
C26   C28   T    
C58   H19   S    
C1    O1    A    
C63   H24   S    
C10   C13   A    
C60   C65   A    
C50   H13   S    
O8    Zn1   S    
C12   O2    A    
C25   C27   T    
C23   C38   A    
C41   H5    S    
O5    Zn1   S    
C31   C38   A    
C43   H7    S    
C64   C65   A    
C14   C22   A    
C13   C15   A    
C71   C72   A    
C44   H8    S    
C34   C78   A    
C8    H42   S    
C57   C58   A    
C57   H18   S    
C79   H37   S    
C28   C30   S    
C69   C70   A    
C51   H14   S    
C63   C64   A    
C7    H2    S    
C49   C50   A    
C21   C24   A    
C17   O8    A    
C33   I1    S    
C31   C36   A    
C40   C41   A    
C4    H12   S    
C10   N2    A    
C4    C56   A    
C62   H22   S    
