data_mof_unit_40932.cif
_audit_creation_date              2012-12-10T16:57:52-0500
_audit_creation_method            fapswitch 2.2
_symmetry_space_group_name_H-M    P1
_symmetry_Int_Tables_number       1
_space_group_crystal_system       triclinic
_cell_length_a                    13.134561
_cell_length_b                    13.060103
_cell_length_c                    15.153975
_cell_angle_alpha                 86.37236
_cell_angle_beta                  100.566
_cell_angle_gamma                 91.472762
_cell_volume                      2550.03370401

loop_
_atom_site_label
_atom_site_type_symbol
_atom_type_description
_atom_site_fract_x
_atom_site_fract_y
_atom_site_fract_z
_atom_type_partial_charge
C1    C     C_R   0.465130 0.773469 0.465931 0.815531
C2    C     C_R   0.403373 0.420346 0.115097 -0.211007
C3    C     C_R   0.548415 0.539046 0.120095 -0.284933
C4    C     C_R   0.544809 0.533075 0.027129 0.101515
C5    C     C_R   0.477579 0.458758 0.981482 0.133280
C6    C     C_R   0.486907 0.435830 0.893815 0.027855
C7    C     C_R   0.594024 0.590243 0.885607 -0.258935
C8    C     C_R   0.606632 0.597957 0.979130 0.090637
C9    C     C_2   0.543634 0.114360 0.541987 -0.168711
C10   C     C_2   0.533039 0.060014 0.466275 -0.066118
C11   C     C_2   0.457461 0.885580 0.450484 -0.219489
C12   C     C_R   0.534886 0.226900 0.532527 0.794588
C13   C     C_2   0.543818 0.946850 0.470326 -0.053173
C14   C     C_2   0.111694 0.448083 0.462091 -0.056516
C15   C     C_2   0.061237 0.498453 0.516695 -0.014120
C16   C     C_2   0.889306 0.551688 0.540706 -0.331390
C17   C     C_2   0.948059 0.484500 0.510654 -0.229334
C18   C     C_R   0.776936 0.536560 0.527141 0.862159
C19   C     C_R   0.223898 0.461382 0.472191 0.849354
C20   C     C_R   0.518270 0.513671 0.742571 0.821058
C21   C     C_R   0.486475 0.483861 0.259409 0.792950
C22   C     C_R   0.533395 0.511843 0.841884 -0.116277
C23   C     C_R   0.480292 0.479997 0.163581 0.038539
C24   C     C_R   0.403143 0.407735 0.025133 -0.234656
H1    H     H_    0.910376 0.418459 0.478050 0.185197
H2    H     H_    0.923333 0.618542 0.574659 0.167884
H3    H     H_    0.632671 0.644360 0.845617 0.173318
H4    H     H_    0.344969 0.357011 0.990502 0.147081
H5    H     H_    0.345650 0.380811 0.147647 0.129600
H6    H     H_    0.602556 0.589641 0.159620 0.118291
O1    O     O_3   0.500000 0.500000 0.500000 -0.476641
O2    O     O_R   0.733070 0.467190 0.476550 -0.645709
O3    O     O_R   0.261010 0.525210 0.419080 -0.650354
O4    O     O_R   0.532760 0.736590 0.530220 -0.625133
O5    O     O_R   0.473150 0.271000 0.574150 -0.648328
O6    O     O_R   0.407210 0.713280 0.414580 -0.640715
O7    O     O_R   0.586880 0.279120 0.481060 -0.632166
O8    O     O_R   0.723250 0.592730 0.566440 -0.635374
O9    O     O_R   0.282660 0.414860 0.537920 -0.640843
O10   O     O_R   0.563230 0.581310 0.697440 -0.647851
O11   O     O_R   0.421030 0.536630 0.288090 -0.652002
O12   O     O_R   0.459330 0.447650 0.700640 -0.653772
O13   O     O_R   0.556410 0.434400 0.313840 -0.628777
Zn1   Zn    Zn3+2 0.592480 0.421540 0.443840 0.963129
Zn2   Zn    Zn3+2 0.578450 0.600910 0.572270 0.976562
Zn3   Zn    Zn3+2 0.430000 0.409940 0.576840 0.955436
Zn4   Zn    Zn3+2 0.399070 0.567610 0.407050 0.958801
C25   C     C_3   0.455078 0.328167 0.862157 -0.386125
C26   C     C_3   0.510626 0.242085 0.926175 -0.379307
C27   C     C_3   0.459889 0.137843 0.905192 -0.887585
H7    H     H_    0.379630 0.135777 0.918950 0.253275
H8    H     H_    0.457492 0.122766 0.833534 0.285532
H9    H     H_    0.504770 0.076561 0.948387 0.246713
H10   H     H_    0.593091 0.240297 0.918317 0.220601
H11   H     H_    0.510097 0.254067 0.997790 0.234207
H12   H     H_    0.369608 0.318826 0.853696 0.196871
H13   H     H_    0.476340 0.313262 0.797274 0.242623
C28   C     C_R   0.569735 0.068211 0.636563 0.102938
C29   C     C_R   0.642742 0.119103 0.699861 -0.163731
C30   C     C_R   0.669383 0.079092 0.788563 -0.134393
C31   C     C_R   0.623522 0.987930 0.815794 -0.130382
C32   C     C_R   0.550821 0.936601 0.754384 -0.150603
C33   C     C_R   0.523671 0.976462 0.665518 -0.119454
H14   H     H_    0.680343 0.189534 0.680402 0.109941
H15   H     H_    0.725419 0.119089 0.836342 0.125309
H16   H     H_    0.643251 0.958141 0.884889 0.131840
H17   H     H_    0.514800 0.866141 0.775814 0.130148
H18   H     H_    0.466285 0.935334 0.620776 0.126260
C34   C     C_R   0.119075 0.567919 0.583454 0.123555
C35   C     C_R   0.159701 0.662211 0.554645 -0.166153
C36   C     C_R   0.219475 0.724121 0.617006 -0.152175
C37   C     C_R   0.238661 0.692552 0.708338 -0.121144
C38   C     C_R   0.197523 0.599329 0.737514 -0.139642
C39   C     C_R   0.137585 0.537221 0.675350 -0.127362
H19   H     H_    0.146113 0.686938 0.483937 0.144856
H20   H     H_    0.251481 0.796207 0.594491 0.128239
H21   H     H_    0.285492 0.740250 0.756470 0.123342
H22   H     H_    0.212699 0.574861 0.808228 0.130511
H23   H     H_    0.107255 0.464503 0.698464 0.126801
C40   C     C_3   0.054891 0.379219 0.390592 -0.459416
C41   C     C_3   0.124139 0.332303 0.332540 -0.345189
C42   C     C_3   0.060020 0.266667 0.262179 -0.896122
H24   H     H_    0.017669 0.205197 0.295220 0.259378
H25   H     H_    0.003310 0.314896 0.215042 0.264012
H26   H     H_    0.111596 0.230523 0.223097 0.242919
H27   H     H_    0.163799 0.394163 0.297277 0.229566
H28   H     H_    0.183665 0.283323 0.375933 0.209872
H29   H     H_    0.017182 0.314860 0.424680 0.207310
H30   H     H_    0.993965 0.424948 0.345433 0.222075
C43   C     C_3   0.680113 0.677504 0.027610 -0.424389
C44   C     C_3   0.746003 0.741526 0.969808 -0.347413
C45   C     C_3   0.817050 0.816873 0.025931 -0.901766
H31   H     H_    0.770600 0.870558 0.055921 0.255560
H32   H     H_    0.871040 0.774920 0.080478 0.263884
H33   H     H_    0.863203 0.862226 0.982359 0.250910
H34   H     H_    0.794469 0.689984 0.939575 0.227873
H35   H     H_    0.694807 0.786167 0.915276 0.217043
H36   H     H_    0.633542 0.730871 0.057949 0.198336
H37   H     H_    0.734387 0.636525 0.082711 0.203069
C46   C     C_R   0.650202 0.905223 0.474504 0.168949
C47   C     C_R   0.669387 0.843909 0.406091 -0.165207
C48   C     C_R   0.768044 0.805187 0.408018 -0.142197
C49   C     C_R   0.849295 0.828150 0.477422 -0.109304
C50   C     C_R   0.832000 0.890151 0.544780 -0.147600
C51   C     C_R   0.733379 0.929017 0.543179 -0.124798
H38   H     H_    0.607903 0.826569 0.350743 0.102580
H39   H     H_    0.781550 0.757657 0.355443 0.121608
H40   H     H_    0.925734 0.798256 0.478827 0.127037
H41   H     H_    0.895200 0.908277 0.598371 0.129747
H42   H     H_    0.723139 0.976480 0.596220 0.143647
C52   C     C_R   0.502758 0.109375 0.373844 0.172189
C53   C     C_R   0.560419 0.091054 0.307001 -0.148301
C54   C     C_R   0.524539 0.124325 0.217501 -0.142199
C55   C     C_R   0.430612 0.175479 0.193844 -0.111832
C56   C     C_R   0.373914 0.196280 0.260008 -0.159920
C57   C     C_R   0.409877 0.163996 0.349668 -0.108222
H43   H     H_    0.632312 0.049603 0.323804 0.130725
H44   H     H_    0.568653 0.108843 0.166213 0.127235
H45   H     H_    0.401625 0.198554 0.124135 0.129604
H46   H     H_    0.301057 0.235726 0.241673 0.120062
H47   H     H_    0.363012 0.177552 0.399445 0.112432
C58   C     C_R   0.354000 0.927203 0.410084 0.132913
C59   C     C_R   0.316848 0.918676 0.317796 -0.080371
C60   C     C_R   0.219070 0.955547 0.278298 -0.143400
C61   C     C_R   0.157477 0.000675 0.330659 -0.117418
C62   C     C_R   0.193820 0.009622 0.422489 -0.146900
C63   C     C_R   0.291670 0.972926 0.462295 -0.185572
H48   H     H_    0.363930 0.883868 0.276482 0.123048
H49   H     H_    0.190967 0.948935 0.207122 0.126005
H50   H     H_    0.081477 0.028357 0.300078 0.127379
H51   H     H_    0.146034 0.044819 0.462893 0.134119
H52   H     H_    0.317855 0.980383 0.533364 0.120502

loop_
_geom_bond_atom_site_label_1
_geom_bond_atom_site_label_2
_ccdc_geom_bond_type
C51   H42   S    
C62   C63   A    
C38   C39   A    
C3    C23   A    
C52   C53   A    
C1    C11   S    
C4    C8    A    
C55   C56   A    
C59   H48   S    
C59   C60   A    
C46   C51   A    
C47   C48   A    
C6    C25   S    
C32   H17   S    
C2    H5    S    
C5    C6    A    
C53   H43   S    
C20   O10   A    
C26   H10   S    
C6    C22   A    
C58   C63   A    
C7    H3    S    
O6    Zn4   S    
C25   H12   S    
C9    C28   S    
O12   Zn3   S    
C40   H30   S    
C63   H52   S    
C50   C51   A    
O8    Zn2   S    
C49   C50   A    
C37   H21   S    
C44   H34   S    
C21   O13   A    
C61   H50   S    
C16   C17   D    
O1    Zn3   S    
C27   H8    S    
C38   H22   S    
C49   H40   S    
C14   C40   S    
C9    C10   D    
C41   H27   S    
C31   C32   A    
C29   C30   A    
O1    Zn4   S    
C16   H2    S    
C48   C49   A    
C31   H16   S    
C53   C54   A    
C1    O4    A    
C41   C42   S    
C34   C39   A    
O10   Zn2   S    
C15   C34   S    
C27   H9    S    
O1    Zn1   S    
C24   H4    S    
C25   H13   S    
C57   H47   S    
C44   C45   S    
C37   C38   A    
C28   C29   A    
C26   H11   S    
C42   H24   S    
C45   H33   S    
C30   C31   A    
C3    H6    S    
O13   Zn1   S    
C32   C33   A    
C45   H32   S    
C27   H7    S    
O11   Zn4   S    
C48   H39   S    
O4    Zn2   S    
C44   H35   S    
C12   O5    A    
C28   C33   A    
C41   H28   S    
C19   O9    A    
O9    Zn3   S    
C21   O11   A    
C25   C26   S    
C20   C22   S    
C30   H15   S    
C56   H46   S    
C42   H25   S    
C39   H23   S    
C21   C23   S    
C19   O3    A    
C61   C62   A    
O3    Zn4   S    
C11   C58   S    
C8    C43   S    
O1    Zn2   S    
C3    C4    A    
C7    C22   A    
C43   H37   S    
C35   H19   S    
C35   C36   A    
C54   C55   A    
C47   H38   S    
C15   C17   S    
C33   H18   S    
C14   C19   S    
C55   H45   S    
C40   C41   S    
C10   C13   S    
C36   H20   S    
C20   O12   A    
C10   C52   S    
C42   H26   S    
C52   C57   A    
C17   H1    S    
C13   C46   S    
C18   O8    A    
C36   C37   A    
C40   H29   S    
C2    C24   A    
C11   C13   D    
C43   C44   S    
C50   H41   S    
C5    C24   A    
C62   H51   S    
O7    Zn1   S    
C45   H31   S    
C60   H49   S    
C34   C35   A    
C9    C12   S    
C7    C8    A    
C54   H44   S    
C29   H14   S    
C4    C5    A    
C18   O2    A    
O2    Zn1   S    
C16   C18   S    
C26   C27   S    
C12   O7    A    
C2    C23   A    
C14   C15   D    
C46   C47   A    
C58   C59   A    
O5    Zn3   S    
C43   H36   S    
C56   C57   A    
C1    O6    A    
C60   C61   A    
