data_mof_unit_17155.cif
_audit_creation_date              2012-12-10T17:16:36-0500
_audit_creation_method            fapswitch 2.2
_symmetry_space_group_name_H-M    P1
_symmetry_Int_Tables_number       1
_space_group_crystal_system       triclinic
_cell_length_a                    10.089553
_cell_length_b                    10.541253
_cell_length_c                    10.794818
_cell_angle_alpha                 90.63645
_cell_angle_beta                  95.331218
_cell_angle_gamma                 80.698007
_cell_volume                      1128.09194591

loop_
_atom_site_label
_atom_site_type_symbol
_atom_type_description
_atom_site_fract_x
_atom_site_fract_y
_atom_site_fract_z
_atom_type_partial_charge
C1    C     C_R   0.443683 0.512577 0.267087 0.927124
C2    C     C_R   0.556265 0.495674 0.732981 0.968645
C3    C     C_2   0.411610 0.533460 0.135408 -0.383566
C4    C     C_2   0.588350 0.506492 0.865133 -0.390699
C5    C     C_2   0.512008 0.545741 0.066878 -0.165723
C6    C     C_2   0.487923 0.549243 0.934351 -0.143163
C7    C     C_2   0.073130 0.488717 0.489854 -0.143421
C8    C     C_2   0.926815 0.511410 0.510048 -0.126052
C9    C     C_R   0.498039 0.257812 0.491757 0.911070
C10   C     C_R   0.490678 0.735770 0.469805 0.889874
C11   C     C_R   0.657942 0.102935 0.297089 0.059015
C12   C     C_R   0.223543 0.919696 0.440215 0.121787
C13   C     C_R   0.759538 0.021985 0.239091 0.086335
C14   C     C_R   0.125029 0.989137 0.509356 0.113461
C15   C     C_R   0.769065 0.887701 0.247432 0.219227
C16   C     C_R   0.158488 0.089891 0.586889 0.162789
C17   C     C_R   0.672535 0.837374 0.307194 -0.206665
C18   C     C_R   0.284429 0.128916 0.581915 -0.180485
C19   C     C_R   0.576196 0.916978 0.372091 0.007518
C20   C     C_R   0.376564 0.070424 0.498665 -0.009813
C21   C     C_R   0.575608 0.050732 0.377550 0.044126
C22   C     C_R   0.355622 0.952238 0.449701 0.020210
C23   C     C_R   0.472065 0.867580 0.423307 -0.209798
C24   C     C_R   0.487558 0.124007 0.459980 -0.178024
H1    H     H_    0.670054 0.735708 0.296256 0.181254
H2    H     H_    0.309265 0.203378 0.645178 0.177913
H3    H     H_    0.384489 0.577171 0.893972 0.187187
H4    H     H_    0.615387 0.542334 0.107549 0.184068
H5    H     H_    0.691488 0.478283 0.905906 0.149986
H6    H     H_    0.308544 0.536550 0.094356 0.152991
H7    H     H_    0.889802 0.582110 0.577756 0.170825
H8    H     H_    0.110148 0.418021 0.422127 0.175665
H9    H     H_    0.881551 0.381794 0.385844 0.154631
H10   H     H_    0.118844 0.618216 0.614362 0.162933
N1    N     N_2   0.157300 0.551390 0.551120 -0.209986
N2    N     N_2   0.842700 0.448610 0.448880 -0.205860
O1    O     O_R   0.568940 0.489660 0.307530 -0.627128
O2    O     O_R   0.431060 0.510340 0.692470 -0.607568
O3    O     O_R   0.348880 0.522640 0.340350 -0.629443
O4    O     O_R   0.651120 0.477360 0.659650 -0.604228
O5    O     O_R   0.610030 0.300280 0.483580 -0.596970
O6    O     O_R   0.389970 0.699720 0.516420 -0.617311
O7    O     O_R   0.389970 0.333270 0.516400 -0.617248
O8    O     O_R   0.610030 0.666730 0.483600 -0.614244
Zn1   Zn    Zn3+2 0.646940 0.477980 0.478080 0.918203
Zn2   Zn    Zn3+2 0.353060 0.522020 0.521920 0.917250
C25   C     C_3   0.059112 0.159728 0.670202 -0.925802
H11   H     H_    0.032408 0.091218 0.737446 0.237506
H12   H     H_    0.101078 0.236942 0.723968 0.244114
H13   H     H_    0.966417 0.204974 0.613521 0.250689
C26   C     C_3   0.872983 0.794883 0.186263 -0.922887
H14   H     H_    0.947857 0.842172 0.143360 0.244787
H15   H     H_    0.928997 0.725550 0.256907 0.252730
H16   H     H_    0.821771 0.740674 0.112681 0.231717
N3    N     N_3   0.624759 0.233692 0.256450 -0.411194
H17   H     H_    0.593165 0.234582 0.161359 0.186082
H18   H     H_    0.712442 0.275157 0.267749 0.222173
N4    N     N_3   0.183710 0.827048 0.351211 -0.446138
H19   H     H_    0.261773 0.792043 0.296606 0.177913
H20   H     H_    0.159166 0.749900 0.399175 0.231195
N5    N     N_3   0.847138 0.079207 0.167124 -0.497081
H21   H     H_    0.837286 0.045970 0.075652 0.192954
H22   H     H_    0.946597 0.051643 0.205329 0.204678
N6    N     N_3   0.992901 0.954162 0.501492 -0.452421
H23   H     H_    0.973612 0.926754 0.589955 0.182597
H24   H     H_    0.922439 0.034786 0.473095 0.199696

loop_
_geom_bond_atom_site_label_1
_geom_bond_atom_site_label_2
_ccdc_geom_bond_type
C3    H6    S    
C2    C4    S    
N3    H17   S    
C9    C24   S    
O1    Zn1   S    
C15   C26   S    
C10   C23   S    
C10   O6    A    
C5    H4    S    
O4    Zn1   S    
C2    O2    A    
C9    O5    A    
C4    H5    S    
C18   H2    S    
C10   O8    A    
C1    O1    A    
C26   H16   S    
C12   N4    S    
N6    H23   S    
C2    O4    A    
N3    H18   S    
C14   N6    S    
N2    Zn1   S    
C25   H12   S    
C11   C13   A    
N6    H24   S    
N5    H21   S    
O3    Zn2   S    
C16   C25   S    
C16   C18   A    
C19   C21   A    
C12   C14   A    
C25   H13   S    
C18   C20   A    
C13   C15   A    
C11   N3    S    
O6    Zn2   S    
C5    C6    S    
C20   C24   A    
O7    Zn2   S    
C14   C16   A    
O2    Zn2   S    
C9    O7    A    
C1    O3    A    
N4    H20   S    
C26   H14   S    
C25   H11   S    
C12   C22   A    
C7    C8    S    
H9    N2    S    
C13   N5    S    
O8    Zn1   S    
C4    C6    D    
H10   N1    S    
C8    N2    D    
C21   C24   A    
C1    C3    S    
C15   C17   A    
O5    Zn1   S    
C19   C23   A    
C17   C19   A    
C7    H8    S    
C26   H15   S    
N4    H19   S    
C22   C23   A    
C8    H7    S    
C7    N1    D    
C11   C21   A    
N5    H22   S    
C6    H3    S    
C20   C22   A    
C17   H1    S    
C3    C5    D    
N1    Zn2   S    
