data_mof_unit_56309.cif
_audit_creation_date              2012-12-10T16:43:00-0500
_audit_creation_method            fapswitch 2.2
_symmetry_space_group_name_H-M    P1
_symmetry_Int_Tables_number       1
_space_group_crystal_system       triclinic
_cell_length_a                    7.45635
_cell_length_b                    8.677552
_cell_length_c                    12.973712
_cell_angle_alpha                 88.050341
_cell_angle_beta                  78.749538
_cell_angle_gamma                 102.706461
_cell_volume                      800.541770237

loop_
_atom_site_label
_atom_site_type_symbol
_atom_type_description
_atom_site_fract_x
_atom_site_fract_y
_atom_site_fract_z
_atom_type_partial_charge
C1    C     C_R   0.452819 0.199679 0.503210 0.889111
C2    C     C_R   0.547181 0.800321 0.496789 0.889111
C3    C     C_R   0.464345 0.489327 0.701693 0.866305
C4    C     C_R   0.535655 0.510673 0.298307 0.866305
C5    C     C_R   0.558444 0.523871 0.183913 -0.211806
C6    C     C_R   0.441556 0.476129 0.816087 -0.211806
C7    C     C_R   0.256907 0.390399 0.992744 0.403403
C8    C     C_R   0.743093 0.609601 0.007256 0.403403
C9    C     C_R   0.271165 0.395859 0.883512 0.365146
C10   C     C_R   0.728835 0.604141 0.116488 0.365146
C11   C     C_R   0.595891 0.545630 0.857720 -0.185263
C12   C     C_R   0.404109 0.454370 0.142280 -0.185263
C13   C     C_R   0.585700 0.538867 0.965938 -0.031265
C14   C     C_R   0.414300 0.461133 0.034062 -0.031266
C15   C     C_2   0.426126 0.031888 0.504799 -0.321241
C16   C     C_2   0.573874 0.968112 0.495201 -0.321241
Cu1   Cu    Cu3+1 0.686350 0.517570 0.488220 1.029884
Cu2   Cu    Cu3+1 0.313650 0.482430 0.511780 1.029884
H1    H     H_    0.275874 0.393170 0.195694 0.229520
H2    H     H_    0.724126 0.606830 0.804305 0.229520
H3    H     H_    0.933545 0.376136 0.583288 0.248193
H4    H     H_    0.066455 0.623863 0.416712 0.248193
H5    H     H_    0.283624 0.960476 0.513863 0.187167
H6    H     H_    0.716376 0.039524 0.486137 0.187167
N1    N     N_2   0.033570 0.455950 0.529530 -0.204142
N2    N     N_2   0.966430 0.544050 0.470470 -0.204142
O1    O     O_R   0.621060 0.286250 0.492350 -0.590047
O2    O     O_R   0.378940 0.713750 0.507650 -0.590047
O3    O     O_R   0.306310 0.256580 0.512240 -0.574866
O4    O     O_R   0.693690 0.743420 0.487760 -0.574865
O5    O     O_R   0.631800 0.512400 0.642670 -0.601686
O6    O     O_R   0.368200 0.487600 0.357330 -0.601686
O7    O     O_R   0.317060 0.482730 0.662570 -0.524884
O8    O     O_R   0.682940 0.517270 0.337430 -0.524884
Cl1   Cl    Cl    0.923640 0.705998 0.166129 -0.483326
Cl2   Cl    Cl    0.076360 0.294002 0.833871 -0.483326
Cl3   Cl    Cl    0.040062 0.293969 0.076371 -0.490201
Cl4   Cl    Cl    0.959938 0.706030 0.923629 -0.490201

loop_
_geom_bond_atom_site_label_1
_geom_bond_atom_site_label_2
_ccdc_geom_bond_type
C9    Cl2   S    
C8    C13   A    
C1    C15   S    
C2    C16   S    
C2    O4    A    
C3    C6    S    
C6    C9    A    
C15   H5    S    
Cu1   Cu2   S    
C7    Cl3   S    
C5    C10   A    
C16   H6    S    
Cu2   O3    S    
C13   C14   A    
C3    O5    A    
Cu1   O4    S    
C11   C13   A    
C4    O6    A    
Cu2   N1    S    
C8    Cl4   S    
Cu1   N2    S    
C12   H1    S    
C1    O3    A    
C12   C14   A    
Cu1   O5    S    
Cu2   O7    S    
C4    O8    A    
C11   H2    S    
Cu2   O6    S    
Cu1   O8    S    
C3    O7    A    
C15   C16   D    
Cu1   O1    S    
C7    C9    A    
Cu2   O2    S    
C10   Cl1   S    
C5    C12   A    
C8    C10   A    
H4    N2    S    
C6    C11   A    
C1    O1    A    
H3    N1    S    
C2    O2    A    
N1    N2    D    
C7    C14   A    
C4    C5    S    
