data_mof_unit_26411.cif
_audit_creation_date              2012-12-11T14:30:15-0500
_audit_creation_method            fapswitch 2.2
_symmetry_space_group_name_H-M    P1
_symmetry_Int_Tables_number       1
_space_group_crystal_system       triclinic
_cell_length_a                    12.949141
_cell_length_b                    12.93488
_cell_length_c                    27.094068
_cell_angle_alpha                 89.975509
_cell_angle_beta                  90.299575
_cell_angle_gamma                 120.051807
_cell_volume                      3928.02214645

loop_
_atom_site_label
_atom_site_type_symbol
_atom_type_description
_atom_site_fract_x
_atom_site_fract_y
_atom_site_fract_z
_atom_type_partial_charge
C1    C     C_R   0.559284 0.458056 0.821630 0.580472
C2    C     C_R   0.454018 0.558851 0.177566 0.554663
C3    C     C_R   0.083988 0.366497 0.481227 0.025836
C4    C     C_R   0.381014 0.094520 0.036374 0.080878
C5    C     C_R   0.633833 0.718403 0.479401 0.027086
C6    C     C_R   0.287661 0.906426 0.538114 0.026547
C7    C     C_R   0.893818 0.272025 0.986101 0.036017
C8    C     C_R   0.620776 0.708122 0.531267 0.047029
C9    C     C_R   0.372452 0.098763 0.984468 0.037342
C10   C     C_R   0.085558 0.378086 0.532963 0.097468
C11   C     C_R   0.720324 0.625972 0.981951 0.018936
C12   C     C_2   0.883379 0.185700 0.070379 0.649120
C13   C     C_R   0.436460 0.890636 0.323307 0.534045
C14   C     C_2   0.168552 0.894932 0.461753 0.560364
C15   C     C_2   0.817569 0.681981 0.064962 0.681375
C16   C     C_2   0.144599 0.307367 0.459336 0.552588
C17   C     C_2   0.316236 0.136015 0.067937 0.723061
C18   C     C_2   0.706877 0.838335 0.457092 0.641811
C19   C     C_2   0.187110 0.887618 0.570207 0.659012
C20   C     C_2   0.886302 0.163250 0.962723 0.587400
C21   C     C_2   0.674124 0.818318 0.561639 0.664432
C22   C     C_2   0.267800 0.100303 0.960862 0.591165
C23   C     C_2   0.148250 0.330150 0.562829 0.688990
C24   C     C_R   0.104429 0.545449 0.177949 0.621592
C25   C     C_2   0.840984 0.695738 0.959823 0.639224
C26   C     C_R   0.993567 0.488147 0.974724 -0.109410
C27   C     C_R   0.503806 0.008285 0.526953 -0.047287
C28   C     C_R   0.503694 0.499041 0.973033 -0.077956
C29   C     C_R   0.977321 0.486826 0.524134 -0.073645
C30   C     C_R   0.491773 0.002460 0.974374 -0.089005
C31   C     C_R   0.510227 0.490181 0.522819 -0.073944
C32   C     C_R   0.489160 0.988547 0.475887 -0.114641
C33   C     C_R   0.894617 0.440604 0.677581 0.570268
C34   C     C_R   0.012240 0.503765 0.025904 -0.043099
C35   C     C_R   0.509941 0.501412 0.470792 -0.071943
C36   C     C_R   0.485992 0.982750 0.025642 -0.071354
C37   C     C_R   0.991561 0.489834 0.472402 -0.054754
C38   C     C_R   0.491641 0.504066 0.024597 -0.072804
C39   C     C_R   0.122784 0.702319 0.961657 0.324706
C40   C     C_R   0.719522 0.119978 0.515977 0.209902
C41   C     C_R   0.288388 0.399230 0.962066 0.232698
C42   C     C_R   0.871858 0.597745 0.514475 0.333306
C43   C     C_R   0.574816 0.871869 0.962461 0.269821
C44   C     C_R   0.545595 0.108588 0.823027 0.556222
C45   C     C_R   0.399940 0.273586 0.512850 0.234541
C46   C     C_R   0.704777 0.105577 0.464501 0.345091
C47   C     C_R   0.131907 0.719093 0.012982 0.198576
C48   C     C_R   0.409187 0.285783 0.461087 0.219931
C49   C     C_R   0.579842 0.861644 0.013780 0.304227
C50   C     C_R   0.884608 0.598723 0.463055 0.236554
C51   C     C_R   0.275122 0.401176 0.013622 0.263685
C52   C     C_R   0.025572 0.569464 0.890684 0.271501
C53   C     C_R   0.629582 0.120114 0.595499 0.142188
C54   C     C_R   0.416016 0.418803 0.891575 0.245701
C55   C     C_R   0.559183 0.453718 0.677137 0.551002
C56   C     C_R   0.885469 0.520452 0.595426 0.216759
C57   C     C_R   0.555424 0.980903 0.891501 0.218693
C58   C     C_R   0.469738 0.363498 0.595093 0.237050
C59   C     C_R   0.571665 0.019995 0.392257 0.278856
C60   C     C_R   0.120436 0.631159 0.094908 0.144102
C61   C     C_R   0.436516 0.412365 0.388374 0.279220
C62   C     C_R   0.513680 0.882706 0.095651 0.220830
C63   C     C_R   0.994086 0.578710 0.392008 0.197932
C64   C     C_R   0.365350 0.475158 0.095356 0.248359
C65   C     C_R   0.058490 0.534843 0.127514 0.094803
C66   C     C_R   0.890835 0.436178 0.823125 0.541943
C67   C     C_R   0.458579 0.932214 0.374914 0.026548
C68   C     C_R   0.465220 0.520541 0.127160 0.032523
C69   C     C_R   0.040519 0.512263 0.370677 0.110298
C70   C     C_R   0.477370 0.943732 0.127887 0.029427
C71   C     C_R   0.494996 0.526627 0.368566 0.010838
C72   C     C_R   0.533753 0.058418 0.628040 0.078063
C73   C     C_R   0.934082 0.457607 0.874252 0.031611
C74   C     C_R   0.520810 0.464834 0.626251 0.023215
C75   C     C_R   0.525182 0.065049 0.874170 0.061234
C76   C     C_R   0.941544 0.476553 0.626969 0.026673
C77   C     C_R   0.545149 0.104424 0.678156 0.617707
C78   C     C_R   0.528480 0.487010 0.870562 0.023046
C79   C     C_R   0.049296 0.587196 0.942051 0.068946
C80   C     C_R   0.618672 0.081922 0.546335 -0.031832
C81   C     C_R   0.401268 0.436923 0.942209 0.027716
C82   C     C_R   0.912087 0.536074 0.544732 0.025084
C83   C     C_R   0.540063 0.950474 0.942291 0.044453
C84   C     C_R   0.458398 0.375183 0.543738 0.035018
C85   C     C_R   0.589176 0.040630 0.443896 0.072742
C86   C     C_R   0.086766 0.619153 0.044856 -0.025128
C87   C     C_R   0.452481 0.398375 0.439788 0.058040
C88   C     C_R   0.459578 0.558278 0.320966 0.567378
C89   C     C_R   0.527571 0.909474 0.045068 0.027616
C90   C     C_R   0.954983 0.555433 0.442027 -0.010210
C91   C     C_R   0.376704 0.458555 0.044650 0.044931
C92   C     C_R   0.882258 0.359549 0.907186 0.238663
C93   C     C_R   0.424031 0.968081 0.610487 0.239147
C94   C     C_R   0.621308 0.576969 0.899740 0.230767
C95   C     C_R   0.020515 0.442597 0.607294 0.217140
C96   C     C_R   0.474128 0.112666 0.906635 0.255742
C97   C     C_R   0.557345 0.578277 0.606092 0.254772
C98   C     C_R   0.360775 0.880354 0.407829 0.236148
C99   C     C_R   0.441055 0.895768 0.178046 0.567333
C100  C     C_R   0.968682 0.424965 0.109856 0.248586
C101  C     C_R   0.585144 0.619866 0.397358 0.219839
C102  C     C_R   0.450428 0.029025 0.109304 0.218424
C103  C     C_R   0.038348 0.418304 0.398356 0.242128
C104  C     C_R   0.577990 0.552013 0.107954 0.252642
C105  C     C_R   0.921668 0.372526 0.956029 0.002139
C106  C     C_R   0.403634 0.956049 0.558755 -0.001979
C107  C     C_R   0.617018 0.565482 0.951496 0.040239
C108  C     C_R   0.028970 0.435783 0.555175 0.035203
C109  C     C_R   0.446675 0.072382 0.955103 0.002192
C110  C     C_R   0.101504 0.542197 0.321805 0.605695
C111  C     C_R   0.561739 0.593321 0.553745 0.053150
C112  C     C_R   0.373712 0.919425 0.456676 0.007791
C113  C     C_R   0.957089 0.404013 0.058168 0.003193
C114  C     C_R   0.575434 0.614895 0.449135 0.040172
C115  C     C_R   0.441153 0.038544 0.057489 0.034802
C116  C     C_R   0.037640 0.423180 0.450620 -0.026981
C117  C     C_R   0.594082 0.556685 0.055847 0.049776
C118  C     C_R   0.904505 0.287116 0.038042 0.022844
C119  C     C_R   0.273558 0.895867 0.486052 0.045240
C120  C     C_R   0.709077 0.616983 0.033945 0.042601
Cr1   Cr    Cr6+3 0.487630 0.241180 0.750000 1.158198
Cr2   Cr    Cr6+3 0.753550 0.512370 0.750000 1.143461
Cr3   Cr    Cr6+3 0.758820 0.246450 0.750000 1.117291
Cr4   Cr    Cr6+3 0.241180 0.487630 0.250000 1.182542
Cr5   Cr    Cr6+3 0.512370 0.753550 0.250000 1.135530
Cr6   Cr    Cr6+3 0.246450 0.758820 0.250000 1.129807
H1    H     H_    0.279154 0.762301 0.084374 0.323308
H2    H     H_    0.585135 0.937897 0.826134 0.327723
H3    H     H_    0.727048 0.494754 0.590476 0.318273
H4    H     H_    0.268356 0.269427 0.882667 0.390591
H5    H     H_    0.137967 0.830144 0.062361 0.400839
H6    H     H_    0.874829 0.172866 0.453975 0.352880
H7    H     H_    0.108650 0.276877 0.011623 0.354119
H8    H     H_    0.795962 0.587691 0.404072 0.351233
H9    H     H_    0.698189 0.812184 0.009804 0.382716
H10   H     H_    0.394215 0.131646 0.450668 0.334423
H11   H     H_    0.826367 0.129691 0.568689 0.398098
H12   H     H_    0.636485 0.075030 0.326172 0.323860
H13   H     H_    0.244295 0.865463 0.948151 0.353143
H14   H     H_    0.265460 0.112488 0.509448 0.358922
H15   H     H_    0.538590 0.760782 0.909639 0.347383
H16   H     H_    0.832626 0.724082 0.512943 0.397246
H17   H     H_    0.137989 0.389686 0.946627 0.328026
H18   H     H_    0.815690 0.294146 0.128983 0.340919
H19   H     H_    0.214265 0.807096 0.371986 0.394834
H20   H     H_    0.642708 0.543603 0.172019 0.333826
H21   H     H_    0.995179 0.251254 0.392185 0.363071
H22   H     H_    0.466176 0.103555 0.173651 0.332415
H23   H     H_    0.233792 0.502299 0.090954 0.321900
H24   H     H_    0.706583 0.677015 0.346976 0.345532
H25   H     H_    0.291605 0.815832 0.629557 0.340140
H26   H     H_    0.807556 0.210356 0.872700 0.389344
H27   H     H_    0.552569 0.647879 0.669107 0.333304
H28   H     H_    0.400176 0.187013 0.872057 0.383532
H29   H     H_    0.096639 0.451348 0.670559 0.332751
H30   H     H_    0.675449 0.701790 0.850808 0.354942
H31   H     H_    0.764880 0.029754 0.101171 0.383774
H32   H     H_    0.000020 0.861820 0.466039 0.385263
H33   H     H_    0.935588 0.671896 0.109926 0.348558
H34   H     H_    0.998283 0.729890 0.385626 0.383910
H35   H     H_    0.151040 0.156048 0.450252 0.361232
H36   H     H_    0.165946 0.094846 0.105002 0.386064
H37   H     H_    0.869129 0.985775 0.450764 0.380635
H38   H     H_    0.030535 0.771570 0.600877 0.387866
H39   H     H_    0.835235 0.989064 0.966908 0.386856
H40   H     H_    0.644523 0.918950 0.609315 0.343803
H41   H     H_    0.132406 0.133735 0.966397 0.372998
H42   H     H_    0.143691 0.186878 0.594421 0.392616
H43   H     H_    0.997615 0.851002 0.956836 0.397976
H44   H     H_    0.475690 0.720053 0.090109 0.314865
H45   H     H_    0.294825 0.258085 0.375910 0.404859
H46   H     H_    0.760141 0.278567 0.582736 0.325810
H47   H     H_    0.078099 0.632526 0.824107 0.320980
H48   H     H_    0.481283 0.221958 0.593629 0.332150
O1    O     O_R   0.460870 0.120930 0.805240 -0.501172
O2    O     O_R   0.120930 0.460870 0.194760 -0.424548
O3    O     O_R   0.539130 0.660060 0.305240 -0.496872
O4    O     O_R   0.339940 0.879070 0.194760 -0.450045
O5    O     O_R   0.498910 0.350470 0.801870 -0.453008
O6    O     O_R   0.851560 0.501090 0.698130 -0.450460
O7    O     O_R   0.649530 0.148440 0.801870 -0.495835
O8    O     O_R   0.498910 0.350470 0.698130 -0.447388
O9    O     O_R   0.851560 0.501090 0.801870 -0.470099
O10   O     O_R   0.649530 0.148440 0.698130 -0.465761
O11   O     O_R   0.350470 0.498910 0.301870 -0.444978
O12   O     O_R   0.660060 0.539130 0.694760 -0.453057
O13   O     O_R   0.501090 0.851560 0.198130 -0.450071
O14   O     O_R   0.148440 0.649530 0.301870 -0.469388
O15   O     O_R   0.350470 0.498910 0.198130 -0.448294
O16   O     O_R   0.501090 0.851560 0.301870 -0.474738
O17   O     O_R   0.148440 0.649530 0.198130 -0.463776
O18   O     O_3   0.666667 0.333333 0.750000 -0.305639
O19   O     O_3   0.333333 0.666667 0.250000 -0.317257
O20   O     O_3   0.221305 0.731481 0.111758 -0.678994
O21   O     O_3   0.666318 0.081927 0.360395 -0.584773
O22   O     O_3   0.259484 0.459257 0.113587 -0.594805
O23   O     O_R   0.879070 0.339940 0.805240 -0.508256
O24   O     O_3   0.989496 0.664956 0.363586 -0.684648
O25   O     O_3   0.521523 0.787136 0.113314 -0.613464
O26   O     O_3   0.363546 0.319292 0.357152 -0.615778
O27   O     O_3   0.728332 0.223975 0.611320 -0.678948
O28   O     O_3   0.087020 0.663213 0.858228 -0.583948
O29   O     O_3   0.442372 0.254736 0.614799 -0.590755
O30   O     O_3   0.607805 0.935015 0.860814 -0.654949
O31   O     O_3   0.795003 0.535436 0.613809 -0.609877
O32   O     O_3   0.323644 0.337911 0.861973 -0.629298
O33   O     O_3   0.177359 0.833928 0.030625 -0.704652
O34   O     O_R   0.460870 0.120930 0.694760 -0.423490
O35   O     O_3   0.802052 0.146108 0.433936 -0.626654
O36   O     O_3   0.163508 0.340386 0.034538 -0.649795
O37   O     O_3   0.821570 0.636618 0.434609 -0.706886
O38   O     O_3   0.640882 0.810089 0.034265 -0.645243
O39   O     O_3   0.382704 0.189476 0.431141 -0.685824
O40   O     O_3   0.832731 0.165485 0.535703 -0.692578
O41   O     O_3   0.177878 0.798762 0.930286 -0.581707
O42   O     O_3   0.327935 0.163293 0.533654 -0.659521
O43   O     O_3   0.605326 0.804314 0.933353 -0.657284
O44   O     O_3   0.826090 0.662461 0.536266 -0.639314
O45   O     O_R   0.660060 0.539130 0.805240 -0.495990
O46   O     O_3   0.193440 0.368876 0.930477 -0.667905
O47   O     O_3   0.896467 0.340330 0.143843 -0.648884
O48   O     O_3   0.255747 0.780076 0.394707 -0.688312
O49   O     O_3   0.673069 0.581797 0.139528 -0.631911
O50   O     O_3   0.039408 0.325704 0.373283 -0.601423
O51   O     O_3   0.429633 0.100281 0.141040 -0.647592
O52   O     O_3   0.686254 0.710895 0.375693 -0.594387
O53   O     O_3   0.339127 0.896402 0.644451 -0.650279
O54   O     O_3   0.781342 0.254782 0.894068 -0.669714
O55   O     O_3   0.595054 0.675245 0.637241 -0.625060
O56   O     O_R   0.879070 0.339940 0.694760 -0.449897
O57   O     O_3   0.470007 0.213552 0.894076 -0.683376
O58   O     O_3   0.083905 0.409740 0.638472 -0.635663
O59   O     O_3   0.710846 0.680178 0.878713 -0.584507
O60   O     O_2   0.966908 0.186513 0.092007 -0.393048
O61   O     O_R   0.767532 0.092149 0.077728 -0.670542
O62   O     O_2   0.180789 0.944059 0.421870 -0.510205
O63   O     O_R   0.059373 0.848776 0.485621 -0.647218
O64   O     O_2   0.857606 0.787920 0.074127 -0.396212
O65   O     O_R   0.869162 0.620112 0.085993 -0.678824
O66   O     O_2   0.222436 0.361847 0.429242 -0.513786
O67   O     O_R   0.120930 0.460870 0.305240 -0.438297
O68   O     O_R   0.108763 0.188801 0.470828 -0.654436
O69   O     O_2   0.365626 0.240199 0.081145 -0.479383
O70   O     O_R   0.200511 0.055530 0.083547 -0.599123
O71   O     O_2   0.664495 0.870735 0.424415 -0.445209
O72   O     O_R   0.825798 0.910997 0.471470 -0.640416
O73   O     O_2   0.190960 0.971737 0.592441 -0.386929
O74   O     O_R   0.091368 0.772854 0.577097 -0.674012
O75   O     O_2   0.940649 0.173153 0.924578 -0.484999
O76   O     O_R   0.825830 0.051955 0.985409 -0.636813
O77   O     O_2   0.781751 0.874331 0.569191 -0.395802
O78   O     O_R   0.539130 0.660060 0.194760 -0.454102
O79   O     O_R   0.599547 0.852403 0.584528 -0.679327
O80   O     O_2   0.229727 0.051496 0.920911 -0.492556
O81   O     O_R   0.205848 0.147088 0.985347 -0.662334
O82   O     O_2   0.249143 0.398023 0.577967 -0.501660
O83   O     O_R   0.091414 0.208460 0.573989 -0.567758
O84   O     O_2   0.870002 0.651749 0.926744 -0.446584
O85   O     O_R   0.919506 0.812574 0.975486 -0.640604
O86   O     O_R   0.339940 0.879070 0.305240 -0.505853

loop_
_geom_bond_atom_site_label_1
_geom_bond_atom_site_label_2
_ccdc_geom_bond_type
C36   C89   A    
C12   O61   S    
H25   O53   S    
C66   O9    A    
C72   C93   A    
C56   C76   A    
C3    C16   S    
C5    C114  A    
C43   C83   A    
C4    C115  A    
C10   C108  A    
C18   O71   D    
C44   O1    A    
H5    O33   S    
C77   O10   A    
Cr1   O18   S    
C99   O13   A    
C17   O69   D    
C19   O73   D    
C88   O3    A    
Cr1   O5    S    
C37   C116  A    
H12   O21   S    
C34   C113  A    
C12   O60   D    
C6    C19   S    
C15   O64   D    
C110  O14   A    
C72   C77   S    
C37   C90   A    
C92   O54   S    
H24   O52   S    
C64   C68   A    
C13   O86   A    
C62   O25   S    
C104  C117  A    
C2    O78   A    
C3    C116  A    
C76   C95   A    
C34   C86   A    
Cr4   O11   S    
H11   O40   S    
C9    C22   S    
Cr2   O12   S    
C11   C25   S    
C28   C107  A    
C62   C89   A    
C15   O65   S    
H29   O58   S    
C45   O42   S    
C15   C120  S    
C62   C70   A    
C35   C114  A    
H2    O30   S    
C96   O57   S    
C30   C83   A    
C93   O53   S    
H16   O44   S    
C102  C115  A    
C61   C87   A    
C67   C98   A    
H15   O43   S    
H17   O46   S    
H26   O54   S    
C55   C74   S    
C35   C87   A    
C50   C90   A    
C97   O55   S    
C56   O31   S    
C63   C69   A    
C17   O70   S    
H13   O41   S    
C54   O32   S    
C42   C82   A    
Cr4   O19   S    
C75   C96   A    
C39   O41   S    
C40   C80   A    
C29   C108  A    
Cr5   O16   S    
C28   C38   A    
C52   C79   A    
C53   C72   A    
C104  O49   S    
C46   C85   A    
C59   C67   A    
C61   C71   A    
H9    O38   S    
C71   C101  A    
C33   O6    A    
C51   C91   A    
C101  C114  A    
C38   C117  A    
C7    C118  A    
H27   O55   S    
C43   O43   S    
H40   O79   S    
Cr4   O15   S    
Cr6   O19   S    
C11   C120  A    
C26   C105  A    
C14   O62   D    
H44   O25   S    
C26   C34   A    
C19   O74   S    
C74   C97   A    
C69   C103  A    
C9    C109  A    
C28   C81   A    
C94   C107  A    
C98   C112  A    
Cr2   O45   S    
H22   O51   S    
C30   C109  A    
C1    C78   S    
H39   O76   S    
H19   O48   S    
C47   C86   A    
C68   C104  A    
C53   C80   A    
H41   O81   S    
C95   O58   S    
C65   C100  A    
C99   O4    A    
C1    O45   A    
C27   C80   A    
C8    C111  A    
H7    O36   S    
C60   C86   A    
H31   O61   S    
H34   O24   S    
C5    C18   S    
C27   C106  A    
C59   O21   S    
C66   C73   S    
C38   C91   A    
C7    C20   S    
C102  O51   S    
C53   O27   S    
C31   C84   A    
C71   C88   S    
C101  O52   S    
C60   C65   A    
C39   C79   A    
C44   C75   S    
C40   C46   A    
H42   O83   S    
C59   C85   A    
C31   C111  A    
H45   O26   S    
H4    O32   S    
C2    O15   A    
C58   C84   A    
C103  O50   S    
C112  C119  A    
H3    O31   S    
C69   C110  S    
C18   O72   S    
C33   C76   S    
C20   O76   S    
Cr5   O19   S    
H30   O59   S    
C41   C81   A    
C57   C83   A    
C8    C21   S    
H18   O47   S    
C48   C87   A    
C55   O12   A    
H28   O57   S    
Cr2   O18   S    
C6    C106  A    
C16   O66   D    
H35   O68   S    
Cr2   O6    S    
C24   C65   S    
C42   C50   A    
C12   C118  S    
C4    C17   S    
Cr2   O9    S    
C58   O29   S    
C52   C73   A    
C1    O5    A    
C93   C106  A    
C11   C107  A    
C31   C35   A    
C117  C120  A    
C45   C84   A    
C25   O84   D    
C29   C37   A    
C33   O56   A    
C24   O2    A    
C110  O67   A    
C6    C119  A    
C41   O46   S    
C70   C99   S    
C58   C74   A    
Cr3   O10   S    
C39   C47   A    
H10   O39   S    
C13   C67   S    
C45   C48   A    
Cr4   O67   S    
C48   O39   S    
C88   O11   A    
H33   O65   S    
H8    O37   S    
C32   C112  A    
C27   C32   A    
Cr6   O86   S    
Cr3   O23   S    
Cr5   O78   S    
C43   C49   A    
C100  C113  A    
C60   O20   S    
C73   C92   A    
C49   C89   A    
C23   O82   D    
C42   O44   S    
C64   O22   S    
C21   O77   D    
C14   O63   S    
C70   C102  A    
C94   O59   S    
C56   C82   A    
Cr4   O2    S    
C30   C36   A    
C10   C23   S    
C46   O35   S    
C96   C109  A    
C2    C68   S    
C26   C79   A    
C64   C91   A    
C63   O24   S    
C47   O33   S    
Cr5   O13   S    
C57   C75   A    
C57   O30   S    
C103  C116  A    
Cr3   O18   S    
H6    O35   S    
C29   C82   A    
H23   O22   S    
C3    C10   A    
C55   O8    A    
Cr5   O3    S    
H20   O49   S    
C36   C115  A    
C51   O36   S    
C20   O75   D    
Cr1   O1    S    
Cr3   O56   S    
C100  O47   S    
C78   C94   A    
C97   C111  A    
C32   C85   A    
C98   O48   S    
C63   C90   A    
Cr6   O14   S    
H48   O29   S    
C13   O16   A    
C22   O81   S    
C7    C105  A    
Cr6   O4    S    
C24   O17   A    
C52   O28   S    
C61   O26   S    
H46   O27   S    
H38   O74   S    
C22   O80   D    
C66   O23   A    
C95   C108  A    
H14   O42   S    
H32   O63   S    
C21   O79   S    
C113  C118  A    
C25   O85   S    
C92   C105  A    
C77   O34   A    
C23   O83   S    
Cr3   O7    S    
C14   C119  S    
C40   O40   S    
Cr6   O17   S    
H43   O85   S    
C5    C8    A    
H47   O28   S    
H37   O72   S    
Cr1   O34   S    
C49   O38   S    
C4    C9    A    
C50   O37   S    
H36   O70   S    
C44   O7    A    
C41   C51   A    
C54   C81   A    
H21   O50   S    
H1    O20   S    
Cr1   O8    S    
C54   C78   A    
C16   O68   S    
