data_mof_unit_40346.cif
_audit_creation_date              2012-12-10T20:48:46-0500
_audit_creation_method            fapswitch 2.2
_symmetry_space_group_name_H-M    P1
_symmetry_Int_Tables_number       1
_space_group_crystal_system       triclinic
_cell_length_a                    15.801573
_cell_length_b                    8.926132
_cell_length_c                    8.108743
_cell_angle_alpha                 90.042687
_cell_angle_beta                  89.950955
_cell_angle_gamma                 89.984315
_cell_volume                      1143.71249767

loop_
_atom_site_label
_atom_site_type_symbol
_atom_type_description
_atom_site_fract_x
_atom_site_fract_y
_atom_site_fract_z
_atom_type_partial_charge
C1    C     C_R   0.500003 0.217996 0.499961 0.930026
C2    C     C_1   0.825507 0.496896 0.499911 -0.012159
C3    C     C_1   0.174491 0.497860 0.501209 -0.013321
C4    C     C_R   0.337942 0.500058 0.500083 0.900509
C5    C     C_R   0.662058 0.499938 0.499931 0.900582
C6    C     C_1   0.499999 0.934782 0.500055 -0.188614
C7    C     C_1   0.500001 0.065194 0.499944 -0.191113
C8    C     C_R   0.499998 0.781979 0.500039 0.938586
C9    C     C_3   0.048243 0.492321 0.685153 -0.109598
C10   C     C_3   0.050410 0.354901 0.404555 -0.074367
C11   C     C_3   0.949651 0.477155 0.682985 -0.079404
C12   C     C_3   0.951812 0.362652 0.390132 -0.107899
C13   C     C_1   0.750526 0.498482 0.499795 -0.184289
C14   C     C_1   0.249473 0.499081 0.500428 -0.184784
C15   C     C_3   0.082972 0.496604 0.501885 0.176339
C16   C     C_3   0.917028 0.495722 0.500363 0.176117
C17   C     C_3   0.949273 0.653351 0.430438 0.119270
C18   C     C_3   0.050621 0.644224 0.409340 0.121612
H1    H     H_    0.076422 0.358093 0.277402 0.144711
H2    H     H_    0.063129 0.599890 0.746989 0.108178
H3    H     H_    0.936937 0.385513 0.259002 0.115052
H4    H     H_    0.923669 0.569715 0.759234 0.144300
N1    N     N_1   0.500000 0.500030 0.073640 -0.031361
N2    N     N_1   0.500000 0.500030 0.926360 -0.031572
O1    O     O_R   0.500000 0.285340 0.636850 -0.616389
O2    O     O_R   0.500000 0.285340 0.363150 -0.616733
O3    O     O_R   0.377140 0.500000 0.636930 -0.619460
O4    O     O_R   0.377140 0.500000 0.363070 -0.611366
O5    O     O_R   0.622860 0.500000 0.636930 -0.617098
O6    O     O_R   0.622860 0.500000 0.363070 -0.613735
O7    O     O_R   0.500000 0.714650 0.636900 -0.614857
O8    O     O_R   0.500000 0.714650 0.363100 -0.614068
Zn1   Zn    Zn3+2 0.500000 0.499990 0.682780 0.991655
Zn2   Zn    Zn3+2 0.500000 0.499990 0.317220 0.995725
N3    N     N_3   0.094101 0.778490 0.475470 -0.446309
H5    H     H_    0.068607 0.876121 0.424521 0.188440
H6    H     H_    0.093573 0.787987 0.603275 0.161297
N4    N     N_3   0.076358 0.635577 0.233701 -0.447774
H7    H     H_    0.039342 0.563024 0.163799 0.142869
H8    H     H_    0.071933 0.740787 0.177675 0.187679
N5    N     N_3   0.923495 0.773051 0.546976 -0.447435
H9    H     H_    0.927830 0.878283 0.491042 0.193460
H10   H     H_    0.960557 0.777897 0.652877 0.147557
N6    N     N_3   0.905717 0.689474 0.273637 -0.444403
H11   H     H_    0.906364 0.604424 0.185943 0.165646
H12   H     H_    0.931028 0.786614 0.221180 0.172988
N7    N     N_3   0.918903 0.341499 0.767434 -0.460649
H13   H     H_    0.943079 0.243538 0.716909 0.238868
H14   H     H_    0.852884 0.336383 0.763050 0.196593
N8    N     N_3   0.911539 0.218025 0.427424 -0.462526
H15   H     H_    0.847161 0.224258 0.398798 0.188386
H16   H     H_    0.935877 0.137557 0.346334 0.194832
N9    N     N_3   0.088592 0.375846 0.786474 -0.456468
H17   H     H_    0.152889 0.400589 0.799407 0.193842
H18   H     H_    0.064066 0.382876 0.906136 0.196028
N10   N     N_3   0.081175 0.210543 0.469188 -0.464393
H19   H     H_    0.056635 0.185245 0.584642 0.236398
H20   H     H_    0.147168 0.210688 0.477098 0.194600

loop_
_geom_bond_atom_site_label_1
_geom_bond_atom_site_label_2
_ccdc_geom_bond_type
C15   C18   S    
C12   N8    S    
N1    N2    T    
O7    Zn1   S    
C6    C7    T    
C2    C16   S    
N5    H9    S    
C9    H2    S    
C11   N7    S    
N2    Zn1   S    
C10   H1    S    
C9    C11   S    
N1    Zn2   S    
N8    H15   S    
C18   N4    S    
C17   N6    S    
O4    Zn2   S    
N7    H14   S    
N9    H17   S    
O3    Zn1   S    
C1    O1    A    
N5    H10   S    
C1    O2    A    
C3    C14   T    
C10   C12   S    
C12   C16   S    
N4    H8    S    
N10   H20   S    
C17   C18   S    
C5    O5    A    
C10   C15   S    
N9    H18   S    
C4    C14   S    
N4    H7    S    
C17   N5    S    
C11   C16   S    
C9    N9    S    
O6    Zn2   S    
C8    O8    A    
O5    Zn1   S    
C4    O3    A    
C10   N10   S    
N10   H19   S    
N3    H6    S    
C5    O6    A    
C18   N3    S    
O1    Zn1   S    
N8    H16   S    
C2    C13   T    
C3    C15   S    
C6    C8    S    
C11   H4    S    
C4    O4    A    
C1    C7    S    
C8    O7    A    
C5    C13   S    
C12   H3    S    
O2    Zn2   S    
N6    H11   S    
N7    H13   S    
C9    C15   S    
N6    H12   S    
C16   C17   S    
N3    H5    S    
O8    Zn2   S    
