data_mof_unit_19422.cif
_audit_creation_date              2013-03-05T15:51:11-0500
_audit_creation_method            fapswitch 2.2
_symmetry_space_group_name_H-M    P1
_symmetry_Int_Tables_number       1
_space_group_crystal_system       triclinic
_cell_length_a                    16.911177
_cell_length_b                    16.853908
_cell_length_c                    19.663286
_cell_angle_alpha                 118.106757
_cell_angle_beta                  62.432473
_cell_angle_gamma                 100.848
_cell_volume                      4379.05275269

loop_
_atom_site_label
_atom_site_type_symbol
_atom_site_description
_atom_site_fract_x
_atom_site_fract_y
_atom_site_fract_z
_atom_type_partial_charge
C1    C     C_R   0.038835 0.758204 0.011881 -0.001299
H1    H     H_    0.080810 0.806324 0.038403 0.144054
N1    N     N_R   0.034930 0.670790 0.995440 -0.062582
C2    C     C_R   0.751341 0.452154 0.172983 -0.059095
N2    N     N_R   0.835850 0.454880 0.118930 -0.054177
C3    C     C_R   0.803572 0.559236 0.961596 -0.100993
H2    H     H_    0.814550 0.602979 0.932669 0.096797
N3    N     N_R   0.867000 0.509260 0.948460 -0.044166
C4    C     C_R   0.967180 0.674741 0.248882 -0.115162
H3    H     H_    0.934739 0.658006 0.301820 0.105598
N4    N     N_R   0.003780 0.616410 0.165900 -0.044160
C5    C     C_R   0.737801 0.476305 0.031902 -0.077744
N5    N     N_R   0.825670 0.461520 0.995440 -0.059738
C6    C     C_R   0.033716 0.752036 0.172377 -0.019967
H4    H     H_    0.059966 0.805820 0.154209 0.135681
N6    N     N_R   0.045120 0.664150 0.118920 -0.053630
C7    C     C_R   0.830397 0.521205 0.248364 -0.097349
H5    H     H_    0.850121 0.548487 0.299718 0.115390
N7    N     N_R   0.884940 0.497570 0.165910 -0.038197
C8    C     C_R   0.960846 0.689455 0.936023 -0.034101
H6    H     H_    0.930508 0.674798 0.893923 0.121997
N8    N     N_R   0.985840 0.628110 0.948460 -0.052003
C9    C     C_R   0.987526 0.773298 0.980363 0.088816
C10   C     C_R   0.744916 0.499646 0.255096 0.054848
C11   C     C_R   0.721831 0.544254 0.018777 0.086681
C12   C     C_R   0.980977 0.760763 0.254319 0.015039
C13   C     C_R   0.250361 0.569012 0.011159 0.358173
N9    N     N_R   0.174330 0.538480 0.004560 -0.096001
C14   C     C_R   0.926488 0.259427 0.834931 -0.115766
H7    H     H_    0.879676 0.216709 0.861213 0.095020
N10   N     N_R   0.954880 0.335850 0.881080 -0.044788
C15   C     C_R   0.161195 0.504647 0.758229 0.361229
N11   N     N_R   0.115060 0.502430 0.834090 -0.101609
C16   C     C_R   0.040059 0.308768 0.061368 0.311257
N12   N     N_R   0.014160 0.371890 0.051540 -0.092041
C17   C     C_R   0.967532 0.240622 0.980864 -0.229501
H8    H     H_    0.933496 0.191334 0.944890 0.132129
N13   N     N_R   0.965070 0.329210 0.004560 -0.066934
C18   C     C_R   0.239726 0.571859 0.833741 -0.119542
H9    H     H_    0.283664 0.619286 0.857447 0.216363
N14   N     N_R   0.164150 0.545120 0.881070 -0.075525
C19   C     C_R   0.183683 0.494587 0.089058 -0.151065
H10   H     H_    0.160800 0.476348 0.140499 0.185665
N15   N     N_R   0.133000 0.490740 0.051540 -0.073464
C20   C     C_R   0.992747 0.336405 0.758503 -0.095634
N16   N     N_R   0.996220 0.383590 0.834100 -0.049563
Ni1   Ni    Ni4+2 0.103690 0.603690 0.000000 0.289607
Ni2   Ni    Ni4+2 0.896310 0.396310 0.000000 0.212560
Ni3   Ni    Ni4+2 0.991110 0.505800 0.892250 0.289511
Ni4   Ni    Ni4+2 0.008890 0.494200 0.107750 0.274618
C21   C     C_R   0.257108 0.546036 0.067669 -0.105081
C22   C     C_R   0.948222 0.258340 0.757684 0.017783
C23   C     C_R   0.239911 0.547953 0.756570 -0.073754
C24   C     C_R   0.013949 0.224303 0.016209 0.071190
C25   C     C_R   0.829670 0.921409 0.476678 -0.119796
H11   H     H_    0.773375 0.917974 0.532015 0.171086
C26   C     C_R   0.862760 0.843055 0.400855 -0.106763
H12   H     H_    0.829384 0.780950 0.398200 0.134070
C27   C     C_R   0.940544 0.844598 0.330863 0.107256
C28   C     C_R   0.979339 0.926795 0.334652 -0.048813
H13   H     H_    0.038592 0.930174 0.281274 0.144022
C29   C     C_R   0.946476 0.004935 0.410370 -0.089628
H14   H     H_    0.983013 0.065805 0.413913 0.139357
C30   C     C_R   0.874650 0.001668 0.483271 0.065232
C31   C     C_R   0.875518 0.162921 0.580860 -0.135590
H15   H     H_    0.872303 0.183440 0.537587 0.154099
C32   C     C_R   0.899544 0.224923 0.645323 -0.149116
H16   H     H_    0.911446 0.293127 0.652337 0.140970
C33   C     C_R   0.912005 0.197424 0.697024 0.127257
C34   C     C_R   0.891413 0.110003 0.689256 -0.145530
C35   C     C_R   0.867656 0.048124 0.624856 -0.140748
H17   H     H_    0.860608 0.978842 0.615173 0.133958
C36   C     C_R   0.864581 0.072911 0.567212 0.100539
C37   C     C_R   0.503503 0.534277 0.410520 -0.165808
H18   H     H_    0.442352 0.498299 0.414826 0.162170
C38   C     C_R   0.581293 0.497518 0.336600 -0.039308
H19   H     H_    0.578074 0.436024 0.283890 0.145496
C39   C     C_R   0.662674 0.537116 0.333047 0.097586
C40   C     C_R   0.664519 0.617669 0.402021 -0.261708
H20   H     H_    0.726562 0.651450 0.397579 0.152385
C41   C     C_R   0.586755 0.654872 0.477285 0.353951
C42   C     C_R   0.506690 0.609492 0.482257 -0.042109
C43   C     C_R   0.461232 0.577910 0.603044 -0.115173
H21   H     H_    0.529589 0.556955 0.579043 0.136040
C44   C     C_R   0.394903 0.559030 0.667531 -0.171277
H22   H     H_    0.412972 0.524789 0.693501 0.164171
C45   C     C_R   0.305633 0.579133 0.694953 0.002581
C46   C     C_R   0.283087 0.626842 0.662839 0.404853
C47   C     C_R   0.350538 0.641162 0.594186 -0.227902
H23   H     H_    0.334800 0.671787 0.564068 0.182145
C48   C     C_R   0.438801 0.615331 0.563983 0.120271
C49   C     C_R   0.634937 0.590296 0.057385 -0.015311
C50   C     C_R   0.320742 0.577316 0.106660 0.127716
C51   C     C_R   0.397055 0.548696 0.171750 -0.117594
C52   C     C_R   0.322755 0.539422 0.156059 -0.158088
C53   C     C_R   0.387101 0.636914 0.086923 -0.166869
C54   C     C_R   0.466943 0.634397 0.089622 0.109556
C55   C     C_R   0.473788 0.587192 0.130002 0.000303
C56   C     C_R   0.558266 0.573760 0.120957 0.290160
C57   C     C_R   0.626081 0.644867 0.024897 -0.182511
C58   C     C_R   0.542186 0.670177 0.044164 -0.155368
H24   H     H_    0.683280 0.664171 0.980694 0.141686
H25   H     H_    0.396366 0.516642 0.208260 0.196761
H26   H     H_    0.536988 0.708252 0.014653 0.161202
H27   H     H_    0.270038 0.498115 0.178569 0.151306
H28   H     H_    0.382404 0.678960 0.061623 0.186569
C59   C     C_R   0.806222 0.162001 0.119146 0.078722
C60   C     C_R   0.958852 0.860649 0.995803 -0.051988
C61   C     C_R   0.908878 0.939695 0.945802 -0.172915
C62   C     C_R   0.947775 0.864148 0.930958 -0.143783
C63   C     C_R   0.932754 0.936686 0.077047 0.326248
C64   C     C_R   0.891139 0.014196 0.093527 -0.161984
C65   C     C_R   0.879016 0.013717 0.026308 0.132652
C66   C     C_R   0.835696 0.086843 0.040274 -0.228101
C67   C     C_R   0.818703 0.164915 0.185293 -0.242854
C68   C     C_R   0.859185 0.091826 0.174458 0.381219
H29   H     H_    0.824667 0.086096 0.989936 0.123954
H30   H     H_    0.794544 0.223869 0.246418 0.167448
H31   H     H_    0.900344 0.939426 0.894348 0.139829
N17   N     N_R   0.122775 0.490504 0.702365 0.227820
O1    O     O_R   0.040938 0.518163 0.734017 -0.403151
O2    O     O_R   0.171694 0.457792 0.620256 -0.390369
N18   N     N_R   0.065478 0.328174 0.127324 0.224290
O3    O     O_R   0.105997 0.266063 0.122546 -0.346162
O4    O     O_R   0.030692 0.399095 0.199922 -0.418558
H32   H     H_    0.008960 0.361914 0.712850 0.165219
H33   H     H_    0.698666 0.417409 0.155329 0.123893
H34   H     H_    0.899601 0.087539 0.729016 0.119419
N19   N     N_R   0.590450 0.735088 0.549174 0.241181
O5    O     O_R   0.518770 0.785065 0.609028 -0.359373
O6    O     O_R   0.666560 0.762237 0.552265 -0.417777
N20   N     N_R   0.194314 0.663132 0.700414 0.256037
O7    O     O_R   0.165875 0.675142 0.654591 -0.347765
O8    O     O_R   0.146542 0.696209 0.782731 -0.411120
N21   N     N_R   0.566442 0.547627 0.177236 0.213408
O9    O     O_R   0.611017 0.597043 0.221031 -0.398258
O10   O     O_R   0.536383 0.471624 0.179792 -0.472279
N22   N     N_R   0.863504 0.097625 0.247588 0.259939
O11   O     O_R   0.909627 0.160178 0.282357 -0.322932
O12   O     O_R   0.804360 0.057619 0.291366 -0.334748
H35   H     H_    0.968044 0.807160 0.868414 0.182750
N23   N     N_R   0.945210 0.932889 0.142710 0.231047
O13   O     O_R   0.895527 0.882362 0.179169 -0.383309
O14   O     O_R   0.011595 0.973182 0.160316 -0.380213
H36   H     H_    0.689555 0.437939 0.061678 0.145941
N24   N     N_R   0.298103 0.636642 0.985379 0.194384
O15   O     O_R   0.257329 0.711997 0.014717 -0.438107
O16   O     O_R   0.378911 0.618453 0.924359 -0.434772

loop_
_geom_bond_atom_site_label_1
_geom_bond_atom_site_label_2
_geom_bond_distance
_ccdc_geom_bond_type
C25   H11   1.083264 S    
N9    Ni1   1.824608 S    
C16   N18   1.427297 S    
C63   C64   1.429312 A    
C45   C46   1.416822 A    
C41   C42   1.409243 A    
N21   O9    1.300853 A    
C18   N14   1.334213 A    
C20   N16   1.339737 A    
C5    N5    1.330102 A    
N16   Ni3   1.820379 S    
C61   H31   1.084027 S    
C29   H14   1.083056 S    
C37   C38   1.384041 A    
C17   H8    1.079331 S    
C38   C39   1.397689 A    
C16   N12   1.344765 A    
C2    C10   1.382780 A    
N18   O4    1.300863 A    
C3    C11   1.391518 A    
C51   C55   1.406297 A    
N15   Ni4   1.862349 S    
C67   C68   1.402352 A    
C31   C36   1.401541 A    
C28   C29   1.386397 A    
C1    H1    1.077502 S    
C29   C30   1.403876 A    
C22   C33   1.462040 S    
C52   H27   1.080211 S    
C63   N23   1.431847 S    
C65   C66   1.402073 A    
C13   C21   1.391786 A    
N20   O7    1.301419 A    
C31   C32   1.390174 A    
N10   N16   1.371260 A    
C30   C36   1.464427 S    
C34   C35   1.386154 A    
C47   C48   1.396664 A    
C4    H3    1.074186 S    
N13   Ni2   1.823767 S    
C61   C65   1.397763 A    
C19   C21   1.387657 A    
C27   C28   1.400360 A    
C50   C52   1.405664 A    
C53   C54   1.384815 A    
C51   C52   1.392075 A    
C19   N15   1.342515 A    
C37   C42   1.399804 A    
N6    Ni1   1.865034 S    
C64   C65   1.424520 A    
N17   O2    1.300674 A    
C4    C12   1.384751 A    
C54   C55   1.411302 A    
N24   O16   1.301750 A    
C44   C45   1.396970 A    
N2    Ni2   1.865567 S    
C7    C10   1.381936 A    
C37   H18   1.084229 S    
C32   H16   1.081711 S    
N18   O3    1.300741 A    
N12   N13   1.385251 A    
C17   C24   1.393252 A    
C38   H19   1.081767 S    
C18   H9    1.074361 S    
C35   C36   1.403876 A    
C39   C40   1.404237 A    
C3    N3    1.343653 A    
C20   C22   1.384419 A    
C44   H22   1.084286 S    
N9    N15   1.371249 A    
C6    C12   1.381732 A    
C42   C48   1.447770 S    
C28   H13   1.081823 S    
C1    N1    1.346761 A    
C5    H36   1.068913 S    
C62   H35   1.083158 S    
C59   C66   1.389003 A    
C14   H7    1.081444 S    
N4    N6    1.371260 A    
C41   N19   1.441930 S    
C43   H21   1.084181 S    
C8    C9    1.387019 A    
C20   H32   1.075784 S    
C67   H30   1.082510 S    
C25   C30   1.401380 A    
N12   Ni4   1.819377 S    
C57   H24   1.080181 S    
C7    H5    1.076522 S    
N14   Ni1   1.865569 S    
C56   N21   1.435810 S    
C23   C45   1.453631 S    
C8    H6    1.078085 S    
C4    N4    1.339718 A    
C59   C67   1.388776 A    
N22   O12   1.300832 A    
C21   C50   1.480908 S    
N8    Ni3   1.819379 S    
C10   C39   1.458744 S    
C43   C44   1.377184 A    
C8    N8    1.343810 A    
C51   H25   1.078288 S    
C16   C24   1.394724 A    
C50   C53   1.399568 A    
N10   Ni2   1.865035 S    
C25   C26   1.389506 A    
C6    N6    1.337518 A    
C19   H10   1.073903 S    
C46   N20   1.437681 S    
C68   N22   1.429964 S    
C15   C23   1.386496 A    
C64   C68   1.429906 A    
N17   O1    1.300858 A    
C49   C57   1.403710 A    
C40   C41   1.395508 A    
N24   O15   1.300911 A    
C12   C27   1.461715 S    
C34   H34   1.082860 S    
N21   O10   1.301401 A    
C53   H28   1.070474 S    
C11   C49   1.476302 S    
C2    H33   1.074828 S    
N23   O13   1.301339 A    
C2    N2    1.337752 A    
N5    Ni2   1.824613 S    
C1    C9    1.389625 A    
C3    H2    1.071133 S    
N2    N7    1.385266 A    
C58   H26   1.084236 S    
C43   C48   1.395636 A    
C60   C63   1.421435 A    
C5    C11   1.382193 A    
N11   N14   1.385268 A    
C15   N11   1.341469 A    
C17   N13   1.340898 A    
N19   O5    1.301465 A    
C35   H17   1.083083 S    
C14   N10   1.334989 A    
N4    Ni4   1.820379 S    
C61   C62   1.387965 A    
N7    Ni4   1.862715 S    
C26   H12   1.081813 S    
C18   C23   1.372936 A    
C13   N24   1.423810 S    
C9    C60   1.485257 S    
N1    Ni1   1.823771 S    
C57   C58   1.384352 A    
C7    N7    1.335553 A    
C60   C62   1.400169 A    
N23   O14   1.301014 A    
C31   H15   1.083373 S    
C33   C34   1.399828 A    
C66   H29   1.083011 S    
C26   C27   1.403677 A    
N22   O11   1.300839 A    
C40   H20   1.081575 S    
N3    N5    1.371245 A    
C46   C47   1.399942 A    
N20   O8    1.300911 A    
C55   C56   1.404435 A    
C13   N9    1.333160 A    
C6    H4    1.073893 S    
N1    N8    1.385253 A    
C32   C33   1.404172 A    
C47   H23   1.083319 S    
C15   N17   1.428692 S    
N11   Ni3   1.862712 S    
N3    Ni3   1.862352 S    
C54   C58   1.395734 A    
C49   C56   1.418971 A    
N19   O6    1.301620 A    
C14   C22   1.379177 A    
