data_mof_unit_67902.cif
_audit_creation_date              2012-12-10T17:47:47-0500
_audit_creation_method            fapswitch 2.2
_symmetry_space_group_name_H-M    P1
_symmetry_Int_Tables_number       1
_space_group_crystal_system       triclinic
_cell_length_a                    11.661762
_cell_length_b                    11.054042
_cell_length_c                    10.166849
_cell_angle_alpha                 91.05612
_cell_angle_beta                  89.861687
_cell_angle_gamma                 98.593976
_cell_volume                      1295.66894809

loop_
_atom_site_label
_atom_site_type_symbol
_atom_type_description
_atom_site_fract_x
_atom_site_fract_y
_atom_site_fract_z
_atom_type_partial_charge
C1    C     C_R   0.511872 0.262903 0.504208 1.030497
C2    C     C_R   0.511878 0.071010 0.654356 -0.171361
C3    C     C_R   0.526674 0.132651 0.527452 -0.130643
C4    C     C_R   0.257971 0.510551 0.499403 1.103122
C5    C     C_R   0.548875 0.064819 0.418157 0.402234
C6    C     C_R   0.502130 0.941881 0.410688 0.439526
C7    C     C_R   0.488105 0.873702 0.524792 -0.165269
C8    C     C_R   0.333253 0.317458 0.133167 0.370385
C9    C     C_R   0.256425 0.230430 0.061991 0.362710
C10   C     C_R   0.260825 0.225885 0.929467 0.366747
C11   C     C_R   0.335120 0.314669 0.860969 0.414861
C12   C     C_3   0.879050 0.511300 0.487780 -0.430785
C13   C     C_R   0.418613 0.412069 0.925779 -0.059341
C14   C     C_R   0.417951 0.412997 0.071135 -0.175121
C15   C     C_R   0.575087 0.580272 0.075561 0.490706
C16   C     C_R   0.493015 0.739222 0.505100 0.849530
C17   C     C_R   0.566914 0.586992 0.933102 0.431229
C18   C     C_R   0.742147 0.503489 0.497425 1.047953
C19   C     C_3   0.053078 0.407721 0.575652 0.573302
C20   C     C_3   0.917454 0.414396 0.589056 0.656783
C21   C     C_3   0.075846 0.642606 0.562912 0.565533
C22   C     C_3   0.065528 0.507964 0.346129 0.539637
C23   C     C_3   0.942659 0.649879 0.519976 0.642362
C24   C     C_3   0.118713 0.519549 0.495511 -0.489409
C25   C     C_3   0.738656 0.053227 0.364626 -0.326828
C26   C     C_3   0.675268 0.279465 0.816424 -0.259414
C27   C     C_3   0.563868 0.186306 0.075913 -0.192033
C28   C     C_3   0.307807 0.722959 0.776929 0.039373
C29   C     C_3   0.546475 0.875930 0.206814 -0.021649
C30   C     C_3   0.741311 0.736243 0.093674 -0.204876
C31   C     C_3   0.091660 0.113682 0.844846 -0.104252
C32   C     C_3   0.702426 0.697695 0.804407 -0.158934
C33   C     C_3   0.867289 0.200030 0.646610 -0.294051
C34   C     C_3   0.926419 0.471085 0.345359 0.630297
C35   C     C_3   0.052231 0.719926 0.791371 -0.041762
C36   C     C_3   0.893807 0.834978 0.622958 -0.301754
C37   C     C_3   0.863848 0.289079 0.206289 -0.001225
C38   C     C_R   0.522337 0.131047 0.784834 0.409816
C39   C     C_R   0.481458 0.070625 0.897951 0.353325
C40   C     C_R   0.433361 0.952198 0.888958 0.234094
C41   C     C_R   0.449866 0.883062 0.777010 0.400465
C42   C     C_R   0.486682 0.938780 0.652243 -0.174846
Cl1   Cl    Cl    0.107879 0.398989 0.740717 -0.539652
Cl2   Cl    Cl    0.881986 0.465421 0.753015 -0.650313
Cl3   Cl    Cl    0.124757 0.639606 0.252160 -0.337218
Cl4   Cl    Cl    0.115222 0.404620 0.234945 -0.474111
Cl5   Cl    Cl    0.866165 0.539888 0.205053 -0.550259
Cl6   Cl    Cl    0.169971 0.780021 0.513537 -0.546693
Cl7   Cl    Cl    0.933640 0.747070 0.376571 -0.527377
Cl8   Cl    Cl    0.341387 0.891802 0.018989 -0.424514
Cl9   Cl    Cl    0.085790 0.269529 0.496790 -0.432540
Cl10  Cl    Cl    0.305656 0.275600 0.295958 -0.367856
Cl11  Cl    Cl    0.157493 0.108195 0.135147 -0.357695
Cl12  Cl    Cl    0.302386 0.273904 0.696597 -0.430617
H1    H     H_    0.768753 0.014065 0.271855 0.168392
H2    H     H_    0.297649 0.695356 0.674485 0.199428
H3    H     H_    0.256229 0.797533 0.794130 0.146922
H4    H     H_    0.278139 0.644092 0.840854 0.218964
H5    H     H_    0.513475 0.802018 0.136170 0.232708
H6    H     H_    0.622417 0.849456 0.258192 0.136191
H7    H     H_    0.572486 0.958860 0.149942 0.156301
H8    H     H_    0.708612 0.813056 0.045042 0.126148
H9    H     H_    0.794641 0.685068 0.029549 0.208587
H10   H     H_    0.800271 0.781983 0.170134 0.250344
H11   H     H_    0.052006 0.184968 0.900244 0.160140
H12   H     H_    0.725524 0.979663 0.438691 0.115763
H13   H     H_    0.044863 0.023113 0.873305 0.146934
H14   H     H_    0.078133 0.122724 0.738097 0.217065
H15   H     H_    0.684149 0.709107 0.699942 0.249022
H16   H     H_    0.746537 0.617576 0.820214 0.214001
H17   H     H_    0.762179 0.779244 0.835727 0.118788
H18   H     H_    0.903998 0.230349 0.744072 0.201458
H19   H     H_    0.918983 0.136120 0.598406 0.208970
H20   H     H_    0.783665 0.139564 0.660567 0.135157
H21   H     H_    0.961130 0.698137 0.823197 0.221401
H22   H     H_    0.075810 0.814719 0.756849 0.142476
H23   H     H_    0.809808 0.121918 0.401024 0.291664
H24   H     H_    0.096672 0.713511 0.886689 0.194907
H25   H     H_    0.819628 0.864806 0.571520 0.181744
H26   H     H_    0.976854 0.880656 0.581502 0.255277
H27   H     H_    0.894861 0.872602 0.724220 0.098098
H28   H     H_    0.881825 0.193747 0.200541 0.161221
H29   H     H_    0.913541 0.334400 0.123005 0.204675
H30   H     H_    0.769938 0.289715 0.191608 0.161599
H31   H     H_    0.701433 0.303239 0.716455 0.285863
H32   H     H_    0.718770 0.205508 0.858071 0.098149
H33   H     H_    0.697486 0.361837 0.880282 0.211770
H34   H     H_    0.589028 0.282398 0.048442 0.160057
H35   H     H_    0.637717 0.134270 0.062138 0.107781
H36   H     H_    0.541808 0.193830 0.180070 0.268406
N1    N     N_R   0.498810 0.498800 0.142780 -0.144850
N2    N     N_R   0.498760 0.498720 0.857170 -0.116561
O1    O     O_R   0.500000 0.316780 0.614690 -0.541722
O2    O     O_3   0.555992 0.252582 0.810824 -0.595842
O3    O     O_3   0.461281 0.133471 0.012506 -0.585664
O4    O     O_3   0.424295 0.760890 0.798776 -0.559430
O5    O     O_3   0.456398 0.891357 0.293649 -0.504364
O6    O     O_3   0.651803 0.657913 0.156144 -0.584532
O7    O     O_3   0.211382 0.115910 0.868421 -0.533146
O8    O     O_3   0.602277 0.698513 0.878274 -0.617138
O9    O     O_3   0.848906 0.297234 0.562495 -0.582920
O10   O     O_3   0.086102 0.630583 0.702799 -0.594772
O11   O     O_3   0.880647 0.703413 0.621271 -0.631521
O12   O     O_R   0.499990 0.316750 0.385360 -0.591190
O13   O     O_3   0.897380 0.339870 0.332653 -0.557594
O14   O     O_R   0.314800 0.499990 0.614670 -0.570310
O15   O     O_R   0.314790 0.499970 0.385330 -0.514652
O16   O     O_R   0.500010 0.683250 0.614640 -0.595165
O17   O     O_R   0.500000 0.683220 0.385310 -0.561457
O18   O     O_R   0.685210 0.500030 0.614670 -0.639102
O19   O     O_R   0.685200 0.500010 0.385330 -0.559175
O20   O     O_3   0.640448 0.110887 0.338183 -0.669049
Zn1   Zn    Zn3+2 0.500010 0.500020 0.653130 1.067336
Zn2   Zn    Zn3+2 0.499990 0.499980 0.346870 1.114367

loop_
_geom_bond_atom_site_label_1
_geom_bond_atom_site_label_2
_ccdc_geom_bond_type
C26   O2    S    
C30   H10   S    
C41   C42   A    
C27   O3    S    
C19   C20   S    
C35   O10   S    
C28   H2    S    
C28   H3    S    
C31   H13   S    
C12   C23   S    
C35   H21   S    
C36   O11   S    
C33   O9    S    
C38   C39   A    
C4    C24   S    
C23   Cl7   S    
C41   O4    S    
C27   H36   S    
C31   H11   S    
C7    C42   A    
C25   H23   S    
C25   O20   S    
C23   O11   S    
C29   H5    S    
C26   H33   S    
C37   H30   S    
C31   O7    S    
N2    Zn1   S    
C8    Cl10  S    
C33   H18   S    
C21   Cl6   S    
C13   C14   A    
C38   O2    S    
C10   O7    S    
C17   N2    A    
C20   Cl2   S    
C19   Cl1   S    
C16   O17   A    
C32   H17   S    
C31   H14   S    
C22   C34   S    
C4    O15   A    
C29   H7    S    
C35   H22   S    
O14   Zn1   S    
C6    O5    S    
C25   H1    S    
C18   O19   A    
C36   H26   S    
C39   C40   A    
C8    C9    A    
C32   H16   S    
C20   O9    S    
C4    O14   A    
C32   O8    S    
C1    C3    S    
O16   Zn1   S    
O15   Zn2   S    
C37   O13   S    
C2    C38   A    
C1    O12   A    
C29   H6    S    
C36   H27   S    
C26   H32   S    
C12   C20   S    
O1    Zn1   S    
O18   Zn1   S    
C39   O3    S    
C6    C7    A    
C11   Cl12  S    
O17   Zn2   S    
O12   Zn2   S    
C21   O10   S    
C33   H19   S    
C40   C41   A    
C22   Cl4   S    
C21   C23   S    
C13   N2    A    
C22   C24   S    
C37   H28   S    
C9    Cl11  S    
C15   O6    S    
C12   C34   S    
C9    C10   A    
C15   C17   A    
C7    C16   S    
C8    C14   A    
C34   O13   S    
C19   C24   S    
C25   H12   S    
C18   O18   A    
C3    C5    A    
C36   H25   S    
C32   H15   S    
C5    O20   S    
C28   H4    S    
C30   O6    S    
C35   H24   S    
N1    Zn2   S    
C29   O5    S    
C28   O4    S    
C30   H8    S    
C2    C3    A    
C11   C13   A    
C5    C6    A    
C2    C42   A    
C26   H31   S    
C40   Cl8   S    
C27   H35   S    
O19   Zn2   S    
C27   H34   S    
C17   O8    S    
C14   N1    A    
C10   C11   A    
C16   O16   A    
C15   N1    A    
C19   Cl9   S    
C33   H20   S    
C22   Cl3   S    
C1    O1    A    
C21   C24   S    
C12   C18   S    
C37   H29   S    
C34   Cl5   S    
C30   H9    S    
