data_mof_unit_29027.cif
_audit_creation_date              2013-03-05T16:08:13-0500
_audit_creation_method            fapswitch 2.2
_symmetry_space_group_name_H-M    P1
_symmetry_Int_Tables_number       1
_space_group_crystal_system       triclinic
_cell_length_a                    6.98538
_cell_length_b                    15.195665
_cell_length_c                    15.669422
_cell_angle_alpha                 89.997593
_cell_angle_beta                  89.278789
_cell_angle_gamma                 90.323054
_cell_volume                      1663.11166971

loop_
_atom_site_label
_atom_site_type_symbol
_atom_site_description
_atom_site_fract_x
_atom_site_fract_y
_atom_site_fract_z
_atom_type_partial_charge
O1    O     O_R   0.505720 0.583900 0.413310 -0.617812
O2    O     O_R   0.175940 0.594920 0.586080 -0.538628
O3    O     O_R   0.005640 0.416100 0.586690 -0.544641
C1    C     C_R   0.344324 0.615963 0.615787 1.181807
O4    O     O_R   0.176000 0.594930 0.413930 -0.576487
O5    O     O_R   0.005700 0.416110 0.413310 -0.536625
C2    C     C_R   0.345889 0.617479 0.385719 1.035874
O6    O     O_R   0.505660 0.583890 0.586690 -0.550124
O7    O     O_3   0.339200 0.441330 0.500000 -0.266956
V1    V     V_3+5 0.064350 0.510880 0.500000 1.399133
O8    O     O_R   0.675980 0.405080 0.413920 -0.628882
C3    C     C_R   0.845901 0.383736 0.384826 1.100762
O9    O     O_R   0.675920 0.405070 0.586070 -0.582627
C4    C     C_R   0.843427 0.383898 0.616177 1.113972
V2    V     V_3+5 0.564340 0.489120 0.500000 1.336849
O10   O     O_3   0.839360 0.558670 0.500000 -0.240312
C5    C     C_R   0.678985 0.404154 0.799175 0.049314
C6    C     C_R   0.639528 0.418928 0.886110 0.588900
C7    C     C_R   0.726688 0.369047 0.947572 0.591314
C8    C     C_R   0.827597 0.295187 0.923727 0.428991
C9    C     C_R   0.838917 0.269362 0.836783 -0.190700
C10   C     C_R   0.790631 0.330737 0.771946 -0.153775
C11   C     C_R   0.887414 0.182795 0.814647 -0.070945
C12   C     C_R   0.924044 0.161673 0.727210 -0.132432
C13   C     C_R   0.925225 0.229054 0.663786 -0.132924
C14   C     C_R   0.851095 0.314168 0.684728 -0.089993
C15   C     C_R   0.957146 0.073885 0.701139 0.153584
C16   C     C_R   0.028513 0.054267 0.619485 0.107430
C17   C     C_R   0.048841 0.121304 0.559090 0.107309
C18   C     C_R   0.990047 0.206771 0.579778 0.563836
C19   C     C_R   0.739284 0.182510 0.248075 0.000089
C20   C     C_R   0.877009 0.186814 0.182381 -0.229173
C21   C     C_R   0.010594 0.256310 0.186621 -0.096442
H1    H     H_    0.112189 0.265547 0.135134 0.236109
C22   C     C_R   0.005133 0.318705 0.253533 0.779878
C23   C     C_R   0.861852 0.314425 0.318094 -0.394064
C24   C     C_R   0.735807 0.242386 0.316191 0.018940
C25   C     C_3   0.523041 0.242284 0.323165 0.513539
C26   C     C_3   0.525354 0.186175 0.242377 0.276583
H2    H     H_    0.456388 0.308176 0.317680 0.101970
C27   C     C_R   0.513072 0.736850 0.694540 -0.105405
C28   C     C_R   0.352462 0.684231 0.684401 -0.456343
C29   C     C_R   0.208514 0.693310 0.746336 0.808676
C30   C     C_R   0.217244 0.761141 0.808675 0.705429
C31   C     C_R   0.372750 0.821887 0.810240 -0.501541
C32   C     C_R   0.515180 0.813016 0.745916 -0.015409
C33   C     C_3   0.723879 0.801244 0.761407 0.512410
C34   C     C_3   0.697857 0.708955 0.733767 0.789710
H3    H     H_    0.772319 0.810699 0.827863 0.109925
C35   C     C_R   0.494090 0.680910 0.251075 -0.003675
C36   C     C_R   0.354651 0.684608 0.316175 -0.352898
C37   C     C_R   0.215156 0.751501 0.309651 0.775401
C38   C     C_R   0.225570 0.814973 0.243663 -0.119804
H4    H     H_    0.123463 0.868214 0.243717 0.229728
C39   C     C_R   0.374357 0.813929 0.182066 -0.289050
C40   C     C_R   0.503780 0.743844 0.186011 -0.019063
C41   C     C_3   0.717045 0.744828 0.187627 1.342074
C42   C     C_3   0.706595 0.675551 0.257480 -0.602852
H5    H     H_    0.758628 0.698905 0.320251 0.255736
H6    H     H_    0.761593 0.610243 0.237090 0.224903
O11   O     O_R   0.229140 0.916090 0.913340 -0.531940
O12   O     O_R   0.558860 0.905090 0.086080 -0.567010
O13   O     O_R   0.729100 0.083920 0.086690 -0.578971
C43   C     C_R   0.388816 0.883202 0.114862 1.073422
O14   O     O_R   0.558860 0.905090 0.913930 -0.612468
O15   O     O_R   0.729100 0.083920 0.913310 -0.585051
C44   C     C_R   0.389780 0.885882 0.882639 1.119225
O16   O     O_R   0.229140 0.916080 0.086720 -0.594055
O17   O     O_3   0.395570 0.058660 0.000020 -0.254154
V3    V     V_3+5 0.670450 0.989140 0.000000 1.365930
O18   O     O_R   0.058810 0.094980 0.913910 -0.579062
C45   C     C_R   0.891985 0.114987 0.883861 1.096617
O19   O     O_R   0.058810 0.094980 0.086060 -0.559580
C46   C     C_R   0.888789 0.117742 0.114338 1.152200
V4    V     V_3+5 0.170450 0.010950 0.999970 1.373027
O20   O     O_3   0.895460 0.941370 0.999990 -0.240355
N1    N     N_R   0.122314 0.102139 0.475037 0.323107
O21   O     O_R   0.265146 0.048384 0.464666 -0.226352
O22   O     O_R   0.046286 0.137984 0.408293 -0.259051
F1    F     F_    0.131464 0.386875 0.251325 -0.668687
F2    F     F_    0.463407 0.196885 0.395317 -0.585299
N2    N     N_R   0.464784 0.235172 0.166601 0.188265
O23   O     O_R   0.417762 0.193326 0.097853 -0.345855
O24   O     O_R   0.489362 0.320056 0.162060 -0.320694
N3    N     N_R   0.430676 0.100234 0.251754 0.281544
O25   O     O_R   0.530042 0.028193 0.256224 -0.338863
O26   O     O_R   0.245079 0.095363 0.256126 -0.341485
F3    F     F_    0.089724 0.623959 0.757914 -0.575898
F4    F     F_    0.090150 0.759647 0.874676 -0.623871
F5    F     F_    0.832847 0.843660 0.699638 -0.565940
N4    N     N_R   0.677186 0.651993 0.810306 0.215955
O27   O     O_R   0.509355 0.631034 0.840615 -0.344907
O28   O     O_R   0.822353 0.638176 0.859336 -0.202044
N5    N     N_R   0.599589 0.463478 0.740380 0.260142
O29   O     O_R   0.712167 0.521861 0.706040 -0.338859
O30   O     O_R   0.414762 0.471869 0.736005 -0.343235
F6    F     F_    0.827402 0.680193 0.672620 -0.578171
F7    F     F_    0.077026 0.759930 0.370694 -0.644425
F8    F     F_    0.790310 0.824633 0.214747 -0.695383
F9    F     F_    0.799131 0.714915 0.112287 -0.636968
F10   F     F_    0.519321 0.483368 0.911915 -0.512181
F11   F     F_    0.708907 0.391093 0.031110 -0.542457
F12   F     F_    0.916659 0.250295 0.986173 -0.691307
N6    N     N_R   0.880327 0.003654 0.750458 0.258690
O31   O     O_R   0.993386 0.954582 0.794742 -0.362458
O32   O     O_R   0.695558 0.996894 0.760210 -0.389968
N7    N     N_R   0.064166 0.964563 0.595878 0.321352
O33   O     O_R   0.978222 0.929831 0.530711 -0.218462
O34   O     O_R   0.187750 0.918294 0.637759 -0.293468
F13   F     F_    0.001337 0.266887 0.516398 -0.681129

loop_
_geom_bond_atom_site_label_1
_geom_bond_atom_site_label_2
_geom_bond_distance
_ccdc_geom_bond_type
C25   H2    1.110391 S    
C39   C40   1.402720 A    
N7    O34   1.300509 A    
O19   C46   1.310692 A    
C15   N6    1.416735 S    
C7    C8    1.377856 A    
C12   C15   1.414577 A    
C1    O6    1.307208 A    
N6    O32   1.301266 A    
C33   H3    1.108082 S    
C8    F12   1.352740 S    
C38   H4    1.081561 S    
O11   V4    2.020236 S    
O16   V4    2.028453 S    
C34   F6    1.382244 S    
C24   C25   1.488882 S    
C18   F13   1.350617 S    
C29   F3    1.348471 S    
C43   O16   1.306451 A    
C16   C17   1.395833 A    
C20   C46   1.498013 S    
C25   C26   1.526250 S    
C7    F11   1.355558 S    
C16   N7    1.434733 S    
C42   H6    1.111650 S    
O14   V3    2.018200 S    
C41   F8    1.382619 S    
C22   F1    1.357178 S    
C40   C41   1.490257 S    
O12   V3    2.005076 S    
C6    C7    1.375725 A    
C27   C28   1.384797 A    
O12   C43   1.306517 A    
O8    V2    2.010778 S    
O15   C45   1.308101 A    
C22   C23   1.415325 A    
O14   C44   1.315780 A    
C34   N4    1.484110 S    
C31   C44   1.499661 S    
C27   C32   1.409985 A    
O1    V2    2.026740 S    
C3    C23   1.487804 S    
O7    V1    2.196809 S    
N1    O21   1.301625 A    
N1    O22   1.299887 A    
O9    C4    1.308938 A    
O19   V4    2.010784 S    
O17   V3    2.196768 S    
O5    C3    1.301390 A    
N6    O31   1.296784 A    
C21   H1    1.076408 S    
C38   C39   1.409603 A    
N3    O26   1.299110 A    
C36   C37   1.416633 A    
C35   C42   1.491754 S    
C33   C34   1.478680 S    
C12   C13   1.426782 A    
N4    O27   1.297372 A    
O4    C2    1.305130 A    
C35   C36   1.402878 A    
C42   H5    1.110439 S    
N3    O25   1.301864 A    
C41   F9    1.383849 S    
C35   C40   1.398584 A    
C19   C24   1.402614 A    
C6    F10   1.352101 S    
O2    C1    1.308429 A    
V4    O20   2.187439 S    
C17   C18   1.401127 A    
N4    O28   1.297925 A    
O11   C44   1.301362 A    
C19   C20   1.401369 A    
O13   V3    2.023581 S    
C11   C12   1.427516 A    
C39   C43   1.491040 S    
C5    C6    1.404735 A    
C4    C14   1.510435 S    
N5    O30   1.300749 A    
O3    C4    1.310511 A    
O6    V2    2.019875 S    
N2    O24   1.302116 A    
C9    C11   1.402705 A    
C25   F2    1.382925 S    
V3    O20   1.735015 S    
C33   F5    1.381117 S    
C28   C29   1.396061 A    
C26   N3    1.467061 S    
N7    O33   1.301375 A    
O2    V1    2.018209 S    
C37   C38   1.414895 A    
C13   C18   1.428025 A    
C32   C33   1.492667 S    
C23   C24   1.401509 A    
O1    C2    1.308577 A    
C11   C45   1.496689 S    
C30   C31   1.421969 A    
C26   N2    1.469465 S    
O5    V1    2.023473 S    
O8    C3    1.308682 A    
O13   C46   1.304556 A    
C5    C10   1.427012 A    
C20   C21   1.407415 A    
O9    V2    2.023656 S    
C13   C14   1.432457 A    
C2    C36   1.493078 S    
O18   C45   1.299977 A    
O3    V1    2.016643 S    
V1    O10   1.735019 S    
O18   V4    2.023524 S    
C41   C42   1.519407 S    
O15   V3    2.016564 S    
C1    C28   1.495420 S    
C29   C30   1.421684 A    
C37   F7    1.356652 S    
C21   C22   1.413937 A    
C27   C34   1.499922 S    
C19   C26   1.499512 S    
O17   V4    1.727915 S    
O7    V2    1.728537 S    
N5    O29   1.294788 A    
C31   C32   1.414292 A    
O4    V1    2.005130 S    
C17   N1    1.437902 S    
C8    C9    1.419137 A    
N2    O23   1.295876 A    
C10   C14   1.447838 A    
C15   C16   1.400044 A    
C5    N5    1.409776 S    
C9    C10   1.424013 A    
C30   F4    1.354600 S    
V2    O10   2.187407 S    
