data_mof_unit_23101.cif
_audit_creation_date              2012-12-10T17:50:48-0500
_audit_creation_method            fapswitch 2.2
_symmetry_space_group_name_H-M    P1
_symmetry_Int_Tables_number       1
_space_group_crystal_system       triclinic
_cell_length_a                    14.75994
_cell_length_b                    14.717429
_cell_length_c                    15.843363
_cell_angle_alpha                 76.657812
_cell_angle_beta                  102.987396
_cell_angle_gamma                 114.910314
_cell_volume                      3005.31146224

loop_
_atom_site_label
_atom_site_type_symbol
_atom_type_description
_atom_site_fract_x
_atom_site_fract_y
_atom_site_fract_z
_atom_type_partial_charge
C1    C     C_R   0.880391 0.312346 0.514130 0.864130
C2    C     C_R   0.360891 0.921385 0.488071 -0.106020
C3    C     C_R   0.678014 0.002092 0.552386 -0.156373
C4    C     C_R   0.322595 0.998157 0.453195 -0.154740
C5    C     C_R   0.533326 0.052127 0.499089 -0.087300
C6    C     C_R   0.467356 0.947761 0.504660 -0.087680
C7    C     C_R   0.510638 0.874157 0.523689 0.661094
C8    C     C_R   0.490379 0.125925 0.480297 0.659543
C9    C     C_R   0.612999 0.900621 0.553795 -0.206024
C10   C     C_R   0.387847 0.099554 0.451634 -0.205032
C11   C     C_R   0.709202 0.658286 0.347651 -0.374445
C12   C     C_R   0.119659 0.687664 0.486823 0.862225
C13   C     C_R   0.287156 0.335539 0.647970 -0.353566
C14   C     C_R   0.796092 0.635962 0.374487 0.692037
C15   C     C_R   0.203540 0.362424 0.623869 0.674105
C16   C     C_R   0.000154 0.500404 0.660025 0.813842
C17   C     C_R   0.999859 0.499630 0.339969 0.821786
C18   C     C_R   0.715508 0.509844 0.488764 0.071634
C19   C     C_R   0.285683 0.491613 0.512811 0.074949
C20   C     C_R   0.629676 0.535798 0.469366 0.003527
C21   C     C_R   0.370467 0.463992 0.531191 0.003644
C22   C     C_R   0.626823 0.608110 0.394139 0.035446
C23   C     C_R   0.782012 0.028520 0.580972 0.648150
C24   C     C_R   0.371435 0.388449 0.604139 0.027841
C25   C     C_R   0.545038 0.489331 0.517736 -0.036203
C26   C     C_R   0.455002 0.510385 0.482929 -0.036138
C27   C     C_R   0.451883 0.575205 0.400676 0.479070
C28   C     C_R   0.547233 0.423182 0.599426 0.482633
C29   C     C_R   0.539404 0.625683 0.360604 -0.247472
C30   C     C_R   0.458274 0.369830 0.637482 -0.247721
C31   C     C_3   0.965071 0.403767 0.040803 -0.147121
C32   C     C_3   0.034993 0.596427 0.959153 -0.146357
C33   C     C_3   0.905614 0.449961 0.962398 -0.156873
C34   C     C_R   0.218399 0.972275 0.426502 0.652296
C35   C     C_3   0.094450 0.550233 0.037560 -0.158031
C36   C     C_1   0.000657 0.501186 0.749778 -0.166923
C37   C     C_1   0.999374 0.498928 0.250196 -0.140925
C38   C     C_3   0.060023 0.454641 0.994118 -0.152290
C39   C     C_3   0.940041 0.545553 0.005839 -0.146049
C40   C     C_3   0.000561 0.500832 0.917261 0.180771
C41   C     C_3   0.999503 0.499361 0.082697 0.178236
C42   C     C_1   0.000869 0.501311 0.825452 -0.071660
C43   C     C_1   0.999189 0.498852 0.174514 -0.065343
C44   C     C_R   0.812530 0.204805 0.525504 -0.293093
C45   C     C_R   0.848212 0.129988 0.570868 -0.335751
C46   C     C_R   0.187768 0.795279 0.477686 -0.285683
C47   C     C_3   0.136648 0.301890 0.755131 0.040626
C48   C     C_3   0.104720 0.191237 0.797661 -0.799992
C49   C     C_3   0.890988 0.772076 0.273978 0.030467
C50   C     C_3   0.847597 0.753922 0.179513 -0.811150
C51   C     C_3   0.366490 0.672521 0.308735 0.054954
C52   C     C_3   0.262777 0.677230 0.290054 -0.771530
C53   C     C_3   0.633148 0.327081 0.693079 0.057373
C54   C     C_3   0.737417 0.323581 0.712728 -0.774474
C55   C     C_R   0.151981 0.870959 0.435893 -0.348625
C56   C     C_R   0.709666 0.177370 0.492630 0.652208
C57   C     C_R   0.290765 0.822082 0.509902 0.650107
C58   C     C_R   0.639696 0.078490 0.515822 -0.106163
Cu1   Cu    Cu3+1 0.081740 0.475690 0.522610 1.020957
Cu2   Cu    Cu3+1 0.918260 0.524310 0.477390 1.029108
F1    F     F_    0.319160 0.755033 0.572667 -0.608813
F2    F     F_    0.681076 0.243204 0.428460 -0.605877
F3    F     F_    0.819432 0.956423 0.619231 -0.655914
F4    F     F_    0.180877 0.044846 0.390970 -0.659741
F5    F     F_    0.457342 0.777830 0.506934 -0.657077
F6    F     F_    0.544440 0.222571 0.496004 -0.656167
H1    H     H_    0.828145 0.408836 0.930084 0.139379
H2    H     H_    0.109269 0.417360 0.987869 0.136960
H3    H     H_    0.642283 0.841405 0.572769 0.219324
H4    H     H_    0.358751 0.158910 0.433431 0.221035
H5    H     H_    0.072339 0.852140 0.413248 0.204041
H6    H     H_    0.927563 0.149553 0.596097 0.235012
H7    H     H_    0.537976 0.674748 0.298359 0.126742
H8    H     H_    0.458073 0.318220 0.698405 0.125415
H9    H     H_    0.090000 0.333899 0.774930 0.177736
H10   H     H_    0.216455 0.345636 0.781970 0.122255
H11   H     H_    0.149553 0.155997 0.779607 0.246921
H12   H     H_    0.171914 0.591353 0.069888 0.139277
H13   H     H_    0.117034 0.186104 0.870080 0.209723
H14   H     H_    0.023385 0.148887 0.775505 0.265580
H15   H     H_    0.973053 0.818080 0.275057 0.181944
H16   H     H_    0.861368 0.819354 0.296175 0.135030
H17   H     H_    0.766383 0.703443 0.173723 0.242223
H18   H     H_    0.856528 0.827390 0.136397 0.217054
H19   H     H_    0.888695 0.717886 0.156879 0.254143
H20   H     H_    0.391765 0.686343 0.244272 0.145444
H21   H     H_    0.418566 0.733946 0.347414 0.192635
H22   H     H_    0.234977 0.668315 0.352103 0.249021
H23   H     H_    0.283983 0.557292 0.467365 0.219013
H24   H     H_    0.267212 0.751713 0.251038 0.197770
H25   H     H_    0.209014 0.616363 0.252063 0.251383
H26   H     H_    0.582095 0.265205 0.654537 0.193415
H27   H     H_    0.606984 0.313333 0.757130 0.145665
H28   H     H_    0.790314 0.385015 0.750486 0.252846
H29   H     H_    0.733573 0.249510 0.752293 0.197983
H30   H     H_    0.765910 0.332470 0.651019 0.248650
H31   H     H_    0.719008 0.446043 0.535959 0.218774
H32   H     H_    0.702982 0.712073 0.289633 0.149283
H33   H     H_    0.286836 0.274276 0.701293 0.154340
H34   H     H_    0.936363 0.324690 0.075680 0.143575
H35   H     H_    0.063700 0.675503 0.924273 0.144905
H36   H     H_    0.890798 0.582842 0.012085 0.142292
N1    N     N_R   0.795440 0.560790 0.443380 -0.240711
N2    N     N_R   0.204560 0.439210 0.556620 -0.242343
O1    O     O_R   0.977900 0.338120 0.529810 -0.546625
O2    O     O_3   0.879901 0.679196 0.330077 -0.559455
O3    O     O_3   0.359660 0.575125 0.353800 -0.598034
O4    O     O_3   0.639268 0.424011 0.647374 -0.600073
O5    O     O_R   0.022100 0.661880 0.470190 -0.560120
O6    O     O_R   0.839850 0.379180 0.491620 -0.541556
O7    O     O_R   0.160150 0.620820 0.508380 -0.542178
O8    O     O_R   0.069010 0.479460 0.640020 -0.559048
O9    O     O_R   0.930990 0.520540 0.359980 -0.521338
O10   O     O_R   0.930960 0.520530 0.601820 -0.585342
O11   O     O_R   0.069040 0.479470 0.398180 -0.588902
O12   O     O_3   0.116736 0.307958 0.662645 -0.563488

loop_
_geom_bond_atom_site_label_1
_geom_bond_atom_site_label_2
_ccdc_geom_bond_type
C49   H16   S    
C21   C26   A    
C8    F6    S    
C23   C45   A    
C22   C29   A    
C27   C29   A    
Cu2   O10   S    
C2    C57   A    
C50   H18   S    
C39   C41   S    
C53   C54   S    
C25   C28   A    
C16   O8    A    
C26   C27   A    
C33   C39   S    
C5    C58   A    
C11   H32   S    
C19   H23   S    
Cu1   N2    S    
C48   H13   S    
C19   C21   A    
C9    H3    S    
C47   H10   S    
C5    C6    A    
C30   H8    S    
C11   C14   A    
C29   H7    S    
C20   C25   A    
C32   C39   S    
C49   H15   S    
C3    C23   A    
Cu2   O5    S    
C50   H19   S    
C36   C42   T    
C46   C55   A    
Cu1   O7    S    
C31   C33   S    
C18   H31   S    
C15   N2    A    
Cu2   N1    S    
C54   H30   S    
C40   C42   S    
Cu1   Cu2   S    
C45   H6    S    
C41   C43   S    
Cu2   O9    S    
C2    C6    A    
C51   H20   S    
C12   O5    A    
C50   H17   S    
C47   O12   S    
C4    C34   A    
C33   C40   S    
C17   O9    A    
C51   C52   S    
C32   C35   S    
C52   H22   S    
C35   C38   S    
C12   C46   S    
C52   H24   S    
C51   H21   S    
C17   C37   S    
C25   C26   A    
C53   H27   S    
C13   C24   A    
C48   H11   S    
C13   H33   S    
C2    C4    A    
C3    C9    A    
C1    O6    A    
C7    F5    S    
C19   N2    A    
C44   C56   A    
C1    C44   S    
C47   C48   S    
C27   O3    S    
C53   H26   S    
C34   F4    S    
Cu1   O8    S    
C34   C55   A    
Cu1   O1    S    
C31   H34   S    
C54   H29   S    
C6    C7    A    
C10   H4    S    
Cu1   O11   S    
C38   H2    S    
C13   C15   A    
C46   C57   A    
C56   F2    S    
C37   C43   T    
C4    C10   A    
C44   C45   A    
C17   O11   A    
C39   H36   S    
C7    C9    A    
C31   C41   S    
C32   H35   S    
C8    C10   A    
C20   C22   A    
C16   O10   A    
C5    C8    A    
C57   F1    S    
C49   O2    S    
C35   H12   S    
C31   C38   S    
C48   H14   S    
C28   C30   A    
C47   H9    S    
C33   H1    S    
C16   C36   S    
C38   C40   S    
C53   O4    S    
C14   N1    A    
C28   O4    S    
C23   F3    S    
C56   C58   A    
C18   C20   A    
C18   N1    A    
C32   C40   S    
C35   C41   S    
C24   C30   A    
C54   H28   S    
Cu2   O6    S    
C3    C58   A    
C14   O2    S    
C11   C22   A    
C51   O3    S    
C49   C50   S    
C21   C24   A    
C15   O12   S    
C52   H25   S    
C12   O7    A    
C55   H5    S    
C1    O1    A    
