data_mof_unit_39029.cif
_audit_creation_date              2012-12-11T14:03:54-0500
_audit_creation_method            fapswitch 2.2
_symmetry_space_group_name_H-M    P1
_symmetry_Int_Tables_number       1
_space_group_crystal_system       triclinic
_cell_length_a                    19.173385
_cell_length_b                    10.930562
_cell_length_c                    18.832537
_cell_angle_alpha                 90.200582
_cell_angle_beta                  88.908267
_cell_angle_gamma                 89.814809
_cell_volume                      3946.08326601

loop_
_atom_site_label
_atom_site_type_symbol
_atom_type_description
_atom_site_fract_x
_atom_site_fract_y
_atom_site_fract_z
_atom_type_partial_charge
C1    C     C_R   0.240314 0.466927 0.646865 0.543179
C2    C     C_R   0.041700 0.651529 0.560915 -0.037455
C3    C     C_R   0.458176 0.152080 0.439104 -0.038039
C4    C     C_R   0.540352 0.158084 0.561565 -0.035549
C5    C     C_R   0.967151 0.886295 0.442324 -0.092748
C6    C     C_R   0.071010 0.865735 0.540361 -0.085665
C7    C     C_R   0.429419 0.367072 0.459910 -0.087001
C8    C     C_R   0.533043 0.386117 0.558236 -0.092650
C9    C     C_R   0.005054 0.989377 0.461238 -0.124883
C10   C     C_R   0.059107 0.978075 0.508529 -0.122355
C11   C     C_R   0.441463 0.479306 0.492086 -0.122542
C12   C     C_R   0.759161 0.466019 0.352504 0.536246
C13   C     C_R   0.495426 0.489823 0.539516 -0.124870
C14   C     C_R   0.031256 0.762645 0.524881 0.006949
C15   C     C_R   0.984680 0.768994 0.468209 0.015420
C16   C     C_R   0.515288 0.268959 0.532124 0.015838
C17   C     C_R   0.468794 0.263205 0.475361 0.006711
C18   C     C_R   0.019720 0.541480 0.528709 0.030169
C19   C     C_R   0.971030 0.546667 0.474607 0.017838
C20   C     C_R   0.528686 0.046389 0.525219 0.017873
C21   C     C_R   0.480007 0.041748 0.471097 0.030102
C22   C     C_R   0.043872 0.425160 0.550291 -0.072492
C23   C     C_R   0.740916 0.965843 0.647529 0.537902
C24   C     C_R   0.936051 0.438015 0.456807 -0.077131
C25   C     C_R   0.563639 0.937368 0.542744 -0.077510
C26   C     C_R   0.455811 0.925629 0.449221 -0.072318
C27   C     C_R   0.011106 0.318338 0.529462 -0.120119
C28   C     C_R   0.955210 0.325236 0.484456 -0.112843
C29   C     C_R   0.544557 0.824784 0.514642 -0.113214
C30   C     C_R   0.488637 0.818457 0.469630 -0.119617
C31   C     C_2   0.236238 0.898169 0.929228 -0.069375
C32   C     C_2   0.745623 0.929644 0.083475 -0.083844
C33   C     C_2   0.736238 0.398172 0.929226 -0.069430
C34   C     C_R   0.259771 0.967104 0.353178 0.541701
C35   C     C_2   0.245623 0.429642 0.083474 -0.083924
C36   C     C_2   0.250439 0.898297 0.084569 -0.140415
C37   C     C_2   0.743193 0.939011 0.926868 -0.121499
C38   C     C_2   0.750439 0.398301 0.084567 -0.140477
C39   C     C_2   0.243195 0.439006 0.926866 -0.121454
C40   C     C_R   0.227880 0.874602 0.647804 0.531340
C41   C     C_R   0.773449 0.871840 0.353496 0.537921
C42   C     C_R   0.726621 0.371833 0.646560 0.540916
C43   C     C_R   0.272185 0.374590 0.352273 0.528389
C44   C     C_2   0.190267 0.914323 0.051846 -0.148680
C45   C     C_2   0.278384 0.822982 0.532929 -0.157208
C46   C     C_2   0.762031 0.030581 0.970671 -0.125933
C47   C     C_2   0.690267 0.414330 0.051843 -0.148661
C48   C     C_2   0.262029 0.530577 0.970670 -0.125974
C49   C     C_2   0.181709 0.893837 0.976114 0.102035
C50   C     C_2   0.781665 0.011184 0.044552 0.110074
C51   C     C_2   0.681709 0.393842 0.976112 0.102022
C52   C     C_2   0.281666 0.511180 0.044550 0.110033
C53   C     C_2   0.986242 0.662749 0.915081 -0.114892
C54   C     C_2   0.984900 0.655837 0.071841 -0.096543
C55   C     C_2   0.486238 0.162752 0.915078 -0.115009
C56   C     C_2   0.729582 0.812196 0.469550 -0.154001
C57   C     C_2   0.484894 0.155836 0.071838 -0.096456
C58   C     C_2   0.961316 0.566016 0.029604 -0.157994
C59   C     C_2   0.974633 0.562036 0.953462 -0.167679
C60   C     C_2   0.461308 0.066018 0.029601 -0.157910
C61   C     C_2   0.474624 0.062039 0.953459 -0.167798
C62   C     C_R   0.061744 0.649574 0.636921 0.537503
C63   C     C_R   0.938714 0.651382 0.363065 0.539377
C64   C     C_R   0.561188 0.150961 0.636940 0.538378
C65   C     C_R   0.438188 0.150035 0.363072 0.538580
C66   C     C_R   0.237444 0.469751 0.852349 0.551087
C67   C     C_2   0.770680 0.312288 0.530160 -0.154018
C68   C     C_R   0.761465 0.463462 0.150318 0.554420
C69   C     C_R   0.737443 0.969755 0.852350 0.550738
C70   C     C_R   0.261464 0.963459 0.150320 0.554777
C71   C     C_R   0.224634 0.869347 0.855025 0.570205
C72   C     C_R   0.772249 0.875610 0.148194 0.562699
C73   C     C_R   0.724634 0.369348 0.855024 0.571178
C74   C     C_R   0.272249 0.375609 0.148193 0.561698
C75   C     C_R   0.026853 0.652810 0.849415 0.572020
C76   C     C_R   0.966914 0.651270 0.146611 0.568355
C77   C     C_R   0.526851 0.152811 0.849413 0.572565
C78   C     C_2   0.221891 0.322938 0.466853 -0.156805
C79   C     C_R   0.466910 0.151270 0.146609 0.567849
C80   C     C_2   0.249732 0.909309 0.576188 -0.114714
C81   C     C_2   0.754392 0.901784 0.426604 -0.104684
C82   C     C_2   0.745829 0.401877 0.573625 -0.104717
C83   C     C_2   0.250420 0.409267 0.424064 -0.114619
C84   C     C_2   0.242262 0.911859 0.421291 -0.109873
C85   C     C_2   0.761262 0.907350 0.580785 -0.113320
C86   C     C_2   0.739054 0.408388 0.419317 -0.113463
C87   C     C_2   0.258057 0.410983 0.578786 -0.109907
C88   C     C_2   0.285802 0.839220 0.455894 -0.180244
C89   C     C_R   0.959438 0.658468 0.438522 -0.036488
C90   C     C_2   0.721449 0.828180 0.546745 -0.185827
C91   C     C_2   0.778825 0.328603 0.453012 -0.185398
C92   C     C_2   0.214547 0.338829 0.543934 -0.180723
C93   C     C_3   0.067918 0.979485 0.952244 -0.276579
C94   C     C_3   0.891304 0.127797 0.026361 -0.298467
C95   C     C_3   0.567922 0.479496 0.952229 -0.276674
C96   C     C_3   0.391303 0.627794 0.026354 -0.298457
Cr1   Cr    Cr6+3 0.113970 0.508630 0.747920 1.009819
Cr2   Cr    Cr6+3 0.887700 0.820070 0.250200 1.020886
Cr3   Cr    Cr6+3 0.612300 0.320070 0.749800 1.017902
Cr4   Cr    Cr6+3 0.387700 0.320070 0.250200 1.030290
Cr5   Cr    Cr6+3 0.886030 0.508630 0.252080 1.007559
Cr6   Cr    Cr6+3 0.613970 0.008630 0.747920 1.011856
Cr7   Cr    Cr6+3 0.386030 0.008630 0.252080 1.005412
Cr8   Cr    Cr6+3 0.269200 0.666740 0.749850 1.016860
Cr9   Cr    Cr6+3 0.730800 0.666740 0.250150 1.023165
Cr10  Cr    Cr6+3 0.769200 0.166740 0.749850 1.019355
Cr11  Cr    Cr6+3 0.230800 0.166740 0.250150 1.020746
Cr12  Cr    Cr6+3 0.112300 0.820070 0.749800 1.027531
H1    H     H_    0.327099 0.790400 0.427659 0.125694
H2    H     H_    0.698512 0.889217 0.062425 0.077990
H3    H     H_    0.789413 0.412160 0.946085 0.049461
H4    H     H_    0.198512 0.389215 0.062425 0.078071
H5    H     H_    0.935253 0.486396 0.051993 0.150346
H6    H     H_    0.981558 0.471450 0.930382 0.153260
H7    H     H_    0.435244 0.986399 0.051990 0.150418
H8    H     H_    0.481547 0.971453 0.930377 0.153132
H9    H     H_    0.009161 0.737533 0.051191 0.081925
H10   H     H_    0.975182 0.752900 0.936804 0.101604
H11   H     H_    0.509156 0.237532 0.051188 0.081896
H12   H     H_    0.680865 0.778578 0.575119 0.127744
H13   H     H_    0.475181 0.252904 0.936802 0.101627
H14   H     H_    0.295542 0.735666 0.553909 0.155898
H15   H     H_    0.714709 0.724022 0.447860 0.154570
H16   H     H_    0.785538 0.223849 0.551381 0.153600
H17   H     H_    0.204788 0.235842 0.445444 0.156876
H18   H     H_    0.195443 0.946161 0.447935 0.115757
H19   H     H_    0.807808 0.943303 0.554467 0.117686
H20   H     H_    0.692614 0.445140 0.445844 0.117643
H21   H     H_    0.304899 0.444703 0.552287 0.116038
H22   H     H_    0.232655 0.997155 0.556024 0.093619
H23   H     H_    0.819285 0.278436 0.424320 0.127738
H24   H     H_    0.769184 0.990715 0.447144 0.091716
H25   H     H_    0.731027 0.491056 0.553569 0.092034
H26   H     H_    0.267412 0.496910 0.444671 0.093239
H27   H     H_    0.994125 0.076566 0.437048 0.109878
H28   H     H_    0.092235 0.055239 0.520153 0.097582
H29   H     H_    0.408546 0.557024 0.480564 0.097796
H30   H     H_    0.506563 0.576956 0.563894 0.109681
H31   H     H_    0.924349 0.900370 0.407884 0.167710
H32   H     H_    0.115252 0.854631 0.571839 0.151884
H33   H     H_    0.385377 0.356946 0.428080 0.152239
H34   H     H_    0.173295 0.290369 0.571962 0.125787
H35   H     H_    0.575845 0.399637 0.592669 0.168583
H36   H     H_    0.893667 0.440852 0.421484 0.156534
H37   H     H_    0.086888 0.416426 0.585252 0.152024
H38   H     H_    0.412767 0.917319 0.414281 0.152623
H39   H     H_    0.605958 0.939764 0.578211 0.155998
H40   H     H_    0.027801 0.231194 0.550063 0.105723
H41   H     H_    0.927555 0.243238 0.470061 0.095851
H42   H     H_    0.572291 0.742534 0.528711 0.095952
H43   H     H_    0.471970 0.731472 0.448695 0.105857
H44   H     H_    0.145494 0.952064 0.080676 0.158317
H45   H     H_    0.294469 0.852657 0.058914 0.091950
H46   H     H_    0.769621 0.122277 0.949802 0.153959
H47   H     H_    0.645494 0.452077 0.080672 0.158390
H48   H     H_    0.269615 0.622274 0.949802 0.154007
H49   H     H_    0.090217 0.798987 0.978052 0.235844
H50   H     H_    0.019808 0.958299 0.922882 0.138625
H51   H     H_    0.094605 0.056800 0.924981 0.167135
H52   H     H_    0.052847 0.007236 0.007216 0.110262
H53   H     H_    0.825743 0.131280 0.117441 0.258042
H54   H     H_    0.936709 0.158028 0.057563 0.137646
H55   H     H_    0.870462 0.208031 0.997605 0.119309
H56   H     H_    0.733900 0.846229 0.945025 0.085385
H57   H     H_    0.909510 0.057020 0.987736 0.158621
H58   H     H_    0.590212 0.299004 0.978057 0.235891
H59   H     H_    0.519811 0.458305 0.922869 0.138521
H60   H     H_    0.594611 0.556798 0.924956 0.167047
H61   H     H_    0.552852 0.507268 0.007197 0.110353
H62   H     H_    0.325746 0.631276 0.117437 0.258090
H63   H     H_    0.436709 0.658026 0.057554 0.137814
H64   H     H_    0.370458 0.708028 0.997599 0.119261
H65   H     H_    0.409508 0.557017 0.987728 0.158530
H66   H     H_    0.794467 0.352657 0.058913 0.091944
H67   H     H_    0.233906 0.346222 0.945022 0.085390
H68   H     H_    0.289413 0.912157 0.946086 0.049482
N1    N     N_2   0.112648 0.872434 0.952875 -0.463355
N2    N     N_2   0.838633 0.077606 0.073951 -0.477139
N3    N     N_2   0.612647 0.372439 0.952874 -0.463198
N4    N     N_2   0.338634 0.577601 0.073947 -0.477089
O1    O     O_R   0.043230 0.549300 0.667990 -0.515898
O2    O     O_R   0.832470 0.905110 0.169660 -0.480037
O3    O     O_R   0.667530 0.405110 0.830340 -0.475342
O4    O     O_R   0.332470 0.405110 0.169660 -0.480097
O5    O     O_R   0.054010 0.748440 0.822860 -0.477860
O6    O     O_R   0.945990 0.748440 0.177140 -0.485259
O7    O     O_R   0.554010 0.248440 0.822860 -0.477546
O8    O     O_R   0.445990 0.248440 0.177140 -0.485552
O9    O     O_3   0.165160 0.665150 0.749190 -0.270965
O10   O     O_3   0.834840 0.665150 0.250810 -0.270717
O11   O     O_3   0.665160 0.165150 0.749190 -0.269690
O12   O     O_R   0.956770 0.549300 0.332010 -0.505908
O13   O     O_3   0.334840 0.165150 0.250810 -0.271885
O14   O     O_R   0.178620 0.457600 0.674100 -0.527313
O15   O     O_R   0.821380 0.457600 0.325900 -0.530650
O16   O     O_R   0.678620 0.957600 0.674100 -0.529432
O17   O     O_R   0.321380 0.957600 0.325900 -0.528572
O18   O     O_R   0.284680 0.542100 0.669460 -0.514942
O19   O     O_R   0.715320 0.542100 0.330540 -0.516182
O20   O     O_R   0.784680 0.042100 0.669460 -0.515134
O21   O     O_R   0.215320 0.042100 0.330540 -0.516041
O22   O     O_R   0.262860 0.790390 0.676650 -0.491410
O23   O     O_R   0.543230 0.049300 0.667990 -0.508872
O24   O     O_R   0.737140 0.790390 0.323350 -0.490909
O25   O     O_R   0.762860 0.290390 0.676650 -0.489413
O26   O     O_R   0.237140 0.290390 0.323350 -0.492767
O27   O     O_R   0.167460 0.907030 0.670940 -0.542313
O28   O     O_R   0.832540 0.907030 0.329060 -0.550397
O29   O     O_R   0.667460 0.407030 0.670940 -0.550241
O30   O     O_R   0.332540 0.407030 0.329060 -0.543023
O31   O     O_R   0.053950 0.750220 0.675100 -0.491482
O32   O     O_R   0.946050 0.750220 0.324900 -0.501985
O33   O     O_R   0.553950 0.250220 0.675100 -0.505839
O34   O     O_R   0.456770 0.049300 0.332010 -0.513064
O35   O     O_R   0.446050 0.250220 0.324900 -0.488001
O36   O     O_R   0.043300 0.547370 0.827390 -0.510729
O37   O     O_R   0.956700 0.547370 0.172610 -0.511525
O38   O     O_R   0.543300 0.047370 0.827390 -0.510599
O39   O     O_R   0.456700 0.047370 0.172610 -0.511645
O40   O     O_R   0.178690 0.455820 0.821860 -0.492825
O41   O     O_R   0.821310 0.455820 0.178140 -0.506130
O42   O     O_R   0.678690 0.955820 0.821860 -0.492693
O43   O     O_R   0.321310 0.955820 0.178140 -0.506295
O44   O     O_R   0.284750 0.540170 0.828860 -0.513265
O45   O     O_R   0.262920 0.788600 0.824420 -0.511506
O46   O     O_R   0.715250 0.540170 0.171140 -0.509598
O47   O     O_R   0.784750 0.040170 0.828860 -0.513281
O48   O     O_R   0.215250 0.040170 0.171140 -0.509577
O49   O     O_R   0.737080 0.788600 0.175580 -0.502674
O50   O     O_R   0.762920 0.288600 0.824420 -0.510981
O51   O     O_R   0.237080 0.288600 0.175580 -0.503155
O52   O     O_R   0.167530 0.905110 0.830340 -0.475434

loop_
_geom_bond_atom_site_label_1
_geom_bond_atom_site_label_2
_ccdc_geom_bond_type
C44   C49   S    
C1    C87   S    
C21   C26   A    
C55   H13   S    
Cr4   O35   S    
Cr2   O2    S    
C8    C13   A    
C37   C69   S    
C2    C18   A    
Cr9   O49   S    
C43   C83   S    
C57   C79   S    
C68   O41   A    
C42   C82   S    
C3    C21   A    
Cr11  O26   S    
C63   O32   A    
Cr2   O10   S    
Cr5   O12   S    
C67   H16   S    
Cr10  O25   S    
Cr3   O7    S    
C53   C59   D    
C56   C81   D    
C32   C72   S    
C3    C65   S    
Cr4   O13   S    
C7    C11   A    
C44   H44   S    
C32   H2    S    
C50   N2    S    
C70   O48   A    
C65   O35   A    
Cr11  O51   S    
C86   C91   D    
Cr7   O17   S    
C73   O3    A    
C68   O46   A    
C77   O38   A    
C38   H66   S    
C91   H23   S    
C20   C25   A    
C34   O21   A    
Cr5   O41   S    
C63   O12   A    
C75   O36   A    
C24   H36   S    
C42   O25   A    
C26   H38   S    
C18   C19   A    
C94   N2    S    
Cr4   O30   S    
C93   H51   S    
C43   O30   A    
C83   H26   S    
C66   O40   A    
Cr7   O43   S    
C29   H42   S    
C1    O14   A    
C78   C83   D    
C1    O18   A    
C27   H40   S    
C7    C17   A    
C96   H63   S    
C23   O16   A    
C58   H5    S    
C62   O31   A    
C40   C80   S    
C33   H3    S    
C8    H35   S    
C92   H34   S    
C9    C10   A    
C94   H54   S    
Cr3   O3    S    
C37   C46   D    
C57   H11   S    
C39   C48   D    
Cr1   O9    S    
C48   H48   S    
C40   O27   A    
C28   H41   S    
C8    C16   A    
C87   C92   D    
C95   H60   S    
C43   O26   A    
C25   C29   A    
C71   O45   A    
Cr2   O28   S    
C75   O5    A    
C34   C84   S    
Cr10  O11   S    
C31   C49   D    
Cr12  O27   S    
C51   N3    S    
C69   O47   A    
C94   H57   S    
C73   O50   A    
C36   C70   S    
C36   H45   S    
C5    H31   S    
C49   N1    S    
C31   H68   S    
C84   H18   S    
C46   H46   S    
C80   H22   S    
C72   O49   A    
C86   H20   S    
C56   H15   S    
C24   C28   A    
C64   O33   A    
Cr8   O45   S    
C45   C88   S    
C66   O44   A    
Cr5   O10   S    
C96   H65   S    
C93   N1    S    
C53   H10   S    
C81   H24   S    
C57   C60   D    
C47   C51   S    
Cr3   O33   S    
C78   C92   S    
C58   C59   S    
Cr2   O32   S    
C23   O20   A    
Cr1   O36   S    
Cr10  O50   S    
H62   N4    S    
C53   C75   S    
C90   H12   S    
Cr1   O14   S    
C4    C16   A    
C93   H52   S    
Cr6   O23   S    
C52   N4    S    
C5    C9    A    
C29   C30   A    
C19   C89   A    
C6    C14   A    
Cr12  O5    S    
C79   O39   A    
C14   C15   A    
C22   H37   S    
C48   C52   S    
C76   O37   A    
C71   O52   A    
C35   C74   S    
C41   C81   S    
Cr11  O48   S    
C63   C89   S    
C61   H8    S    
C67   C91   S    
C70   O43   A    
Cr1   O40   S    
C15   C89   A    
C25   H39   S    
H49   N1    S    
Cr9   O46   S    
C96   N4    S    
C41   O24   A    
Cr1   O1    S    
C95   H61   S    
Cr7   O34   S    
C32   C50   D    
C38   C47   D    
C42   O29   A    
C37   H56   S    
C69   O42   A    
C88   H1    S    
C9    H27   S    
C95   N3    S    
C64   O23   A    
C38   C68   S    
C26   C30   A    
Cr12  O52   S    
C22   C27   A    
C23   C85   S    
C77   O7    A    
C39   C66   S    
C54   C76   S    
Cr12  O9    S    
C85   H19   S    
C7    H33   S    
Cr12  O31   S    
C76   O6    A    
Cr6   O42   S    
Cr10  O20   S    
Cr3   O29   S    
Cr4   O4    S    
C33   C73   S    
C46   C50   S    
Cr11  O13   S    
Cr4   O8    S    
C18   C22   A    
Cr8   O18   S    
Cr9   O10   S    
C84   C88   D    
C40   O22   A    
C74   O51   A    
Cr9   O24   S    
C39   H67   S    
Cr6   O16   S    
C6    C10   A    
C85   C90   D    
Cr11  O21   S    
C10   H28   S    
C45   H14   S    
C33   C51   D    
C4    C64   S    
C12   C86   S    
C13   H30   S    
C87   H21   S    
C82   H25   S    
C79   O8    A    
C19   C24   A    
C11   H29   S    
C72   O2    A    
C65   O34   A    
Cr2   O6    S    
C62   O1    A    
Cr3   O11   S    
C11   C13   A    
C34   O17   A    
C30   H43   S    
C16   C17   A    
C47   H47   S    
C41   O28   A    
C59   H6    S    
C55   C77   S    
Cr8   O9    S    
C55   C61   D    
C56   C90   S    
C12   O15   A    
C12   O19   A    
C3    C17   A    
C45   C80   D    
C95   H59   S    
Cr6   O11   S    
C6    H32   S    
C93   H50   S    
C2    C14   A    
C5    C15   A    
C36   C44   D    
Cr6   O38   S    
Cr5   O15   S    
C4    C20   A    
Cr5   O37   S    
Cr9   O19   S    
C54   C58   D    
C20   C21   A    
C67   C82   D    
C74   O4    A    
C96   H64   S    
C54   H9    S    
Cr7   O39   S    
C35   C52   D    
Cr10  O47   S    
C60   C61   S    
C60   H7    S    
H58   N3    S    
Cr7   O13   S    
H53   N2    S    
C78   H17   S    
C94   H55   S    
Cr8   O44   S    
C35   H4    S    
C2    C62   S    
Cr8   O22   S    
C31   C71   S    
C27   C28   A    
