data_mof_unit_12188.cif
_audit_creation_date              2012-12-10T18:48:40-0500
_audit_creation_method            fapswitch 2.2
_symmetry_space_group_name_H-M    P1
_symmetry_Int_Tables_number       1
_space_group_crystal_system       triclinic
_cell_length_a                    15.57133
_cell_length_b                    14.825134
_cell_length_c                    9.878383
_cell_angle_alpha                 90.000889
_cell_angle_beta                  90.907957
_cell_angle_gamma                 89.999962
_cell_volume                      2280.10928855

loop_
_atom_site_label
_atom_site_type_symbol
_atom_type_description
_atom_site_fract_x
_atom_site_fract_y
_atom_site_fract_z
_atom_type_partial_charge
Br1   Br    Br    0.794199 0.334065 0.196290 -0.271119
Br2   Br    Br    0.705800 0.165936 0.803710 -0.271120
Br3   Br    Br    0.735806 0.123133 0.222883 -0.251451
Br4   Br    Br    0.264194 0.876868 0.777117 -0.251451
Br5   Br    Br    0.705813 0.834087 0.803706 -0.271129
Br6   Br    Br    0.294187 0.165914 0.196293 -0.271128
Br7   Br    Br    0.264201 0.123148 0.777127 -0.251455
Br8   Br    Br    0.735799 0.876852 0.222873 -0.251455
Br9   Br    Br    0.205800 0.665935 0.803711 -0.271118
Br10  Br    Br    0.235808 0.623130 0.222885 -0.251448
Br11  Br    Br    0.764192 0.376870 0.777115 -0.251449
Br12  Br    Br    0.205812 0.334084 0.803706 -0.271130
Br13  Br    Br    0.794188 0.665916 0.196294 -0.271131
Br14  Br    Br    0.764204 0.623152 0.777130 -0.251460
Br15  Br    Br    0.235797 0.376849 0.222871 -0.251457
Br16  Br    Br    0.294200 0.834063 0.196290 -0.271119
C1    C     C_R   0.125632 0.386259 0.501215 0.950710
C2    C     C_R   0.997689 0.420198 0.927758 0.041112
C3    C     C_R   0.002309 0.420198 0.072237 0.041105
C4    C     C_R   0.997691 0.579802 0.927763 0.041105
C5    C     C_R   0.502310 0.079802 0.072241 0.041112
C6    C     C_R   0.497690 0.920198 0.927758 0.041112
C7    C     C_R   0.502310 0.920198 0.072238 0.041105
C8    C     C_R   0.497690 0.079802 0.927762 0.041105
C9    C     C_R   0.778835 0.281371 0.374209 0.213370
C10   C     C_R   0.221164 0.718630 0.625791 0.213371
C11   C     C_R   0.234026 0.701202 0.380293 0.240859
C12   C     C_R   0.874368 0.613741 0.498785 0.950709
C13   C     C_R   0.765974 0.298798 0.619707 0.240859
C14   C     C_R   0.221169 0.281378 0.625790 0.213369
C15   C     C_R   0.778831 0.718622 0.374210 0.213369
C16   C     C_R   0.765980 0.701211 0.619712 0.240842
C17   C     C_R   0.234020 0.298789 0.380288 0.240844
C18   C     C_R   0.278836 0.781369 0.374210 0.213370
C19   C     C_R   0.721164 0.218631 0.625790 0.213369
C20   C     C_R   0.734025 0.201203 0.380292 0.240855
C21   C     C_R   0.265975 0.798797 0.619708 0.240855
C22   C     C_R   0.721170 0.781380 0.625790 0.213371
C23   C     C_R   0.874368 0.386258 0.498783 0.950711
C24   C     C_R   0.278830 0.218620 0.374210 0.213370
C25   C     C_R   0.265978 0.201209 0.619711 0.240848
C26   C     C_R   0.734022 0.798791 0.380289 0.240848
C27   C     C_R   0.197998 0.674688 0.503851 -0.309307
C28   C     C_R   0.802002 0.325312 0.496149 -0.309306
C29   C     C_R   0.802002 0.674689 0.496152 -0.309300
C30   C     C_R   0.197998 0.325311 0.503848 -0.309301
C31   C     C_R   0.697998 0.174689 0.503850 -0.309306
C32   C     C_R   0.302002 0.825311 0.496150 -0.309306
C33   C     C_R   0.302001 0.174687 0.496152 -0.309302
C34   C     C_R   0.125631 0.613741 0.501216 0.950710
C35   C     C_R   0.697999 0.825313 0.503848 -0.309301
C36   C     C_2   0.017349 0.665795 0.146030 0.603932
C37   C     C_2   0.982652 0.334205 0.853970 0.603928
C38   C     C_2   0.017344 0.334203 0.146021 0.603901
C39   C     C_2   0.982656 0.665797 0.853978 0.603899
C40   C     C_2   0.517347 0.165796 0.146030 0.603919
C41   C     C_2   0.482653 0.834204 0.853970 0.603919
C42   C     C_2   0.517346 0.834204 0.146022 0.603909
C43   C     C_2   0.482654 0.165796 0.853978 0.603910
C44   C     C_R   0.625632 0.886259 0.501215 0.950710
C45   C     C_R   0.374368 0.113741 0.498785 0.950710
C46   C     C_R   0.374369 0.886258 0.498783 0.950710
C47   C     C_R   0.625631 0.113742 0.501216 0.950709
C48   C     C_R   0.002311 0.579802 0.072242 0.041111
H1    H     H_    0.989690 0.678437 0.243000 0.104994
H2    H     H_    0.010309 0.321563 0.756999 0.104995
H3    H     H_    0.989702 0.321570 0.243005 0.105011
H4    H     H_    0.010296 0.678428 0.756992 0.105013
H5    H     H_    0.489693 0.178435 0.243004 0.104999
H6    H     H_    0.510307 0.821565 0.756996 0.104999
H7    H     H_    0.489700 0.821569 0.243003 0.105008
H8    H     H_    0.510300 0.178431 0.756997 0.105008
N1    N     N_R   1.000000 0.500000 0.857200 -0.177097
N2    N     N_R   1.000000 0.500000 0.142800 -0.177097
N3    N     N_R   0.500000 0.000000 0.857200 -0.177097
N4    N     N_R   0.500000 0.000000 0.142800 -0.177097
O1    O     O_R   0.091610 0.408380 0.614620 -0.627206
O2    O     O_R   0.408390 0.091620 0.385380 -0.627207
O3    O     O_R   0.408390 0.091620 0.614620 -0.624051
O4    O     O_R   0.591610 0.908380 0.385380 -0.624051
O5    O     O_R   0.408390 0.908380 0.385380 -0.627206
O6    O     O_R   0.591610 0.091620 0.614620 -0.627205
O7    O     O_R   0.591610 0.091620 0.385380 -0.624048
O8    O     O_R   0.408390 0.908380 0.614620 -0.624047
O9    O     O_2   0.063652 0.724141 0.099277 -0.484545
O10   O     O_2   0.936349 0.275859 0.900724 -0.484547
O11   O     O_2   0.063629 0.275847 0.099251 -0.484558
O12   O     O_R   0.908390 0.591620 0.385380 -0.627205
O13   O     O_2   0.936373 0.724155 0.900752 -0.484558
O14   O     O_2   0.563645 0.224144 0.099272 -0.484550
O15   O     O_2   0.436355 0.775856 0.900728 -0.484550
O16   O     O_2   0.563635 0.775850 0.099255 -0.484554
O17   O     O_2   0.436365 0.224150 0.900745 -0.484554
O18   O     O_R   0.908390 0.591620 0.614620 -0.624055
O19   O     O_R   0.091610 0.408380 0.385380 -0.624053
O20   O     O_R   0.908390 0.408380 0.385380 -0.627207
O21   O     O_R   0.091610 0.591620 0.614620 -0.627206
O22   O     O_R   0.091610 0.591620 0.385380 -0.624046
O23   O     O_R   0.908390 0.408380 0.614620 -0.624046
O24   O     O_R   0.591610 0.908380 0.614620 -0.627207
Zn1   Zn    Zn3+2 1.000000 0.500000 0.653120 1.002558
Zn2   Zn    Zn3+2 1.000000 0.500000 0.346880 1.002559
Zn3   Zn    Zn3+2 0.500000 0.000000 0.653120 1.002559
Zn4   Zn    Zn3+2 0.500000 0.000000 0.346880 1.002559

loop_
_geom_bond_atom_site_label_1
_geom_bond_atom_site_label_2
_ccdc_geom_bond_type
Br2   C19   S    
N4    Zn4   S    
C7    C42   S    
Br1   C9    S    
C15   C26   A    
O20   Zn2   S    
C16   C29   A    
O1    Zn1   S    
C7    N4    A    
C19   C31   A    
C6    C41   S    
C39   H4    S    
Br10  C11   S    
C5    N4    A    
O4    Zn4   S    
C36   O9    D    
Br8   C26   S    
C31   C47   S    
C38   O11   D    
C42   H7    S    
C24   C33   A    
C20   C31   A    
C12   O18   A    
C2    C3    A    
C2    C37   S    
Br16  C18   S    
C23   O23   A    
O18   Zn1   S    
Br9   C10   S    
O6    Zn3   S    
C14   C25   A    
C37   O10   D    
C1    O19   A    
C16   C22   A    
C41   H6    S    
O19   Zn2   S    
C26   C35   A    
N2    Zn2   S    
N1    Zn1   S    
Br5   C22   S    
N3    Zn3   S    
C17   C30   A    
O3    Zn3   S    
C6    N3    A    
C4    C39   S    
C9    C28   A    
C25   C33   A    
C14   C30   A    
C10   C27   A    
C11   C18   A    
C12   C29   S    
C34   O22   A    
C17   C24   A    
C33   C45   S    
O7    Zn4   S    
C47   O6    A    
O2    Zn4   S    
C1    C30   S    
C36   C48   S    
C38   H3    S    
O22   Zn2   S    
O24   Zn3   S    
C47   O7    A    
C4    C48   A    
C12   O12   A    
C32   C46   S    
C45   O2    A    
C1    O1    A    
C27   C34   S    
C8    N3    A    
C21   C32   A    
C37   H2    S    
C3    C38   S    
O23   Zn1   S    
C46   O5    A    
C2    N1    A    
C13   C28   A    
Br6   C24   S    
C18   C32   A    
C46   O8    A    
C44   O4    A    
C34   O21   A    
C41   O15   D    
Br12  C14   S    
Br13  C15   S    
C3    N2    A    
Br14  C16   S    
C44   O24   A    
C5    C40   S    
O12   Zn2   S    
C10   C21   A    
C23   C28   S    
C22   C35   A    
C13   C19   A    
C43   H8    S    
C39   O13   D    
Br3   C20   S    
C45   O3    A    
C8    C43   S    
C40   O14   D    
C4    N1    A    
Br7   C25   S    
C23   O20   A    
C9    C20   A    
C11   C27   A    
Br4   C21   S    
Br11  C13   S    
C40   H5    S    
C15   C29   A    
C5    C8    A    
O8    Zn3   S    
C48   N2    A    
C6    C7    A    
C35   C44   S    
C43   O17   D    
C42   O16   D    
Br15  C17   S    
O21   Zn1   S    
C36   H1    S    
O5    Zn4   S    
