data_mof_unit_33154.cif
_audit_creation_date              2012-12-10T18:49:54-0500
_audit_creation_method            fapswitch 2.2
_symmetry_space_group_name_H-M    P1
_symmetry_Int_Tables_number       1
_space_group_crystal_system       triclinic
_cell_length_a                    10.692187
_cell_length_b                    9.838803
_cell_length_c                    10.63685
_cell_angle_alpha                 89.918075
_cell_angle_beta                  90.136089
_cell_angle_gamma                 89.962998
_cell_volume                      1118.97423031

loop_
_atom_site_label
_atom_site_type_symbol
_atom_type_description
_atom_site_fract_x
_atom_site_fract_y
_atom_site_fract_z
_atom_type_partial_charge
C1    C     C_R   0.259900 0.500005 0.500511 0.856697
C2    C     C_3   0.501124 0.649700 0.929107 -0.373858
C3    C     C_R   0.064002 0.383241 0.462772 -0.205428
C4    C     C_R   0.064115 0.615882 0.542169 -0.201732
C5    C     C_R   0.935916 0.383172 0.462927 -0.202845
C6    C     C_R   0.935925 0.615895 0.542113 -0.205799
C7    C     C_R   0.872468 0.499694 0.502023 0.000472
C8    C     C_R   0.127498 0.499781 0.501857 -0.014347
C9    C     C_R   0.572959 0.071777 0.582750 -0.080943
C10   C     C_R   0.572953 0.927844 0.582760 -0.080222
C11   C     C_R   0.426976 0.928218 0.417208 -0.078791
C12   C     C_R   0.426953 0.072140 0.417227 -0.080445
C13   C     C_R   0.500254 0.500350 0.257632 0.858821
C14   C     C_R   0.740050 0.499947 0.500691 0.879942
C15   C     C_R   0.500338 0.500172 0.742154 0.887319
C16   C     C_3   0.380457 0.427879 0.072837 -0.414347
C17   C     C_3   0.619529 0.428248 0.073636 -0.470693
C18   C     C_3   0.376378 0.432057 0.926521 0.027089
C19   C     C_3   0.612254 0.414678 0.929855 0.039549
C20   C     C_3   0.501206 0.649485 0.071621 -0.404372
C21   C     C_3   0.500113 0.501177 0.121369 0.112086
C22   C     C_3   0.499243 0.500789 0.878295 0.102698
H1    H     H_    0.296818 0.471784 0.118589 0.174667
H2    H     H_    0.704043 0.485791 0.103224 0.181079
H3    H     H_    0.368635 0.873793 0.351052 0.120835
H4    H     H_    0.368557 0.126852 0.351115 0.118558
H5    H     H_    0.382980 0.319625 0.103529 0.147983
H6    H     H_    0.627833 0.325030 0.115991 0.161782
H7    H     H_    0.376415 0.324012 0.894811 0.100721
H8    H     H_    0.588689 0.306116 0.911235 0.104092
H9    H     H_    0.417951 0.706125 0.106226 0.172326
H10   H     H_    0.585920 0.704049 0.105963 0.178974
H11   H     H_    0.417597 0.706417 0.895023 0.198801
H12   H     H_    0.582024 0.708969 0.894904 0.172918
H13   H     H_    0.113038 0.293324 0.430738 0.150235
H14   H     H_    0.113336 0.705696 0.574202 0.157177
H15   H     H_    0.886844 0.293201 0.431034 0.152763
H16   H     H_    0.886757 0.705747 0.574083 0.148775
H17   H     H_    0.631306 0.126207 0.648906 0.125897
H18   H     H_    0.631298 0.873110 0.648917 0.114608
N1    N     N_R   0.499970 0.857200 0.499970 -0.076908
N2    N     N_R   0.499970 0.142800 0.499970 -0.078071
O1    O     O_R   0.316750 0.614620 0.499990 -0.621455
O2    O     O_R   0.316750 0.385380 0.499990 -0.628902
O3    O     O_R   0.499970 0.614670 0.314790 -0.629587
O4    O     O_R   0.499970 0.385330 0.314790 -0.629618
O5    O     O_R   0.683220 0.614710 0.500010 -0.630038
O6    O     O_R   0.683220 0.385290 0.500010 -0.620463
O7    O     O_R   0.500010 0.614660 0.685200 -0.630122
O8    O     O_R   0.500010 0.385340 0.685200 -0.638069
Zn1   Zn    Zn3+2 0.499980 0.653120 0.500000 0.934480
Zn2   Zn    Zn3+2 0.499980 0.346880 0.500000 0.934913
N3    N     N_2   0.265355 0.495709 0.870007 -0.295899
H19   H     H_    0.227457 0.444003 0.794685 0.222062
C23   C     C_3   0.176089 0.574992 0.941154 -0.795126
H20   H     H_    0.114273 0.631083 0.875018 0.231149
H21   H     H_    0.224068 0.651254 0.000735 0.241220
H22   H     H_    0.116976 0.506932 0.999420 0.237161
N4    N     N_2   0.733145 0.435750 0.868483 -0.297392
H23   H     H_    0.798050 0.362232 0.891961 0.225561
C24   C     C_3   0.787303 0.570129 0.858316 -0.799610
H24   H     H_    0.887048 0.561232 0.830611 0.234257
H25   H     H_    0.783189 0.625123 0.949151 0.236006
H26   H     H_    0.740047 0.628348 0.782665 0.241404

loop_
_geom_bond_atom_site_label_1
_geom_bond_atom_site_label_2
_ccdc_geom_bond_type
C2    C22   S    
C24   H26   S    
O8    Zn2   S    
C11   C12   A    
C4    H14   S    
C16   C21   S    
C18   C22   S    
C5    H15   S    
C1    C8    S    
C9    C10   A    
C6    C7    A    
N3    C23   S    
C24   H24   S    
C3    H13   S    
C23   H20   S    
O1    Zn1   S    
C2    H12   S    
C16   H5    S    
C23   H21   S    
C3    C5    A    
C13   C21   S    
N4    H23   S    
C15   C22   S    
C18   H7    S    
C24   H25   S    
N3    H19   S    
C10   N1    A    
C13   O3    A    
C17   H6    S    
O2    Zn2   S    
C9    N2    A    
C14   O5    A    
C15   O8    A    
C2    H11   S    
C4    C6    A    
C17   C19   S    
N1    Zn1   S    
C11   N1    A    
C16   H1    S    
C15   O7    A    
C13   O4    A    
N4    C24   S    
C17   H2    S    
O3    Zn1   S    
C12   N2    A    
O4    Zn2   S    
C9    H17   S    
C19   C22   S    
C20   C21   S    
C16   C18   S    
C3    C8    A    
C20   H10   S    
C23   H22   S    
C12   H4    S    
C4    C8    A    
C5    C7    A    
C14   O6    A    
C11   H3    S    
C10   H18   S    
O5    Zn1   S    
C1    O2    A    
C18   N3    S    
C19   N4    S    
C6    H16   S    
O6    Zn2   S    
C19   H8    S    
C2    C20   S    
C1    O1    A    
C7    C14   S    
C17   C21   S    
N2    Zn2   S    
O7    Zn1   S    
C20   H9    S    
