data_mof_unit_9759.cif
_audit_creation_date              2012-12-11T18:13:22-0500
_audit_creation_method            fapswitch 2.2
_symmetry_space_group_name_H-M    P1
_symmetry_Int_Tables_number       1
_space_group_crystal_system       triclinic
_cell_length_a                    8.226845
_cell_length_b                    12.663997
_cell_length_c                    18.721077
_cell_angle_alpha                 99.302464
_cell_angle_beta                  91.342609
_cell_angle_gamma                 97.970958
_cell_volume                      1904.10467312

loop_
_atom_site_label
_atom_site_type_symbol
_atom_type_description
_atom_site_fract_x
_atom_site_fract_y
_atom_site_fract_z
_atom_type_partial_charge
Ba1   Ba    Ba6+2 0.852780 0.548340 0.465070 1.649996
Ba2   Ba    Ba6+2 0.337060 0.451750 0.534940 1.666422
C1    C     C_3   0.583567 0.903229 0.253079 -0.416120
C2    C     C_3   0.632198 0.821873 0.298121 0.343029
C3    C     C_3   0.461975 0.283634 0.313261 0.303581
C4    C     C_3   0.431060 0.249396 0.231807 -0.396719
C5    C     C_3   0.052688 0.238436 0.730847 0.347021
C6    C     C_3   0.075135 0.218193 0.807928 -0.376615
C7    C     C_3   0.558020 0.177776 0.694139 0.325042
C8    C     C_3   0.613052 0.089930 0.731601 -0.426615
C9    C     C_R   0.993243 0.449192 0.048685 0.007219
C10   C     C_R   0.897367 0.392959 0.095544 0.020600
C11   C     C_R   0.741901 0.338157 0.071388 -0.101568
C12   C     C_3   0.126444 0.764421 0.265572 0.365874
C13   C     C_R   0.678801 0.338122 0.001182 -0.001819
C14   C     C_R   0.772918 0.396425 0.953662 0.012490
C15   C     C_R   0.931904 0.450462 0.977332 0.007957
C16   C     C_R   0.712244 0.402150 0.883596 -0.112304
C17   C     C_R   0.810407 0.453229 0.834542 -0.035734
C18   C     C_R   0.971629 0.504892 0.857611 0.001017
C19   C     C_R   0.030532 0.504612 0.929608 -0.005303
C20   C     C_R   0.754153 0.450481 0.762122 -0.035811
C21   C     C_R   0.862000 0.493516 0.713314 -0.319433
C22   C     C_R   0.020722 0.546818 0.734808 0.010804
C23   C     C_3   0.106592 0.791704 0.189950 -0.368867
C24   C     C_R   0.074865 0.555747 0.808845 -0.036280
C25   C     C_R   0.151648 0.501992 0.072770 -0.008995
C26   C     C_R   0.210987 0.502583 0.144894 -0.012908
C27   C     C_R   0.110018 0.450152 0.193328 -0.044035
C28   C     C_R   0.957532 0.390954 0.166027 -0.040650
C29   C     C_R   0.230537 0.611223 0.835407 -0.047430
C30   C     C_R   0.290345 0.608606 0.905874 0.032529
C31   C     C_R   0.190420 0.555547 0.953310 0.010930
C32   C     C_R   0.251118 0.553659 0.024563 0.015703
C33   C     C_R   0.450795 0.656923 0.929237 -0.085378
C34   C     C_3   0.235997 0.786255 0.618342 0.271388
C35   C     C_R   0.511622 0.653207 0.998984 -0.088511
C36   C     C_R   0.412363 0.602637 0.047240 0.030770
C37   C     C_R   0.372331 0.553810 0.167793 -0.047905
C38   C     C_R   0.472355 0.600984 0.117729 -0.117290
C39   C     C_R   0.428177 0.556774 0.240226 -0.004393
C40   C     C_R   0.321632 0.514310 0.289266 -0.295069
C41   C     C_R   0.164704 0.459052 0.267276 0.049266
C42   C     C_R   0.773934 0.174954 0.514908 -0.256408
C43   C     C_R   0.428599 0.806623 0.469005 -0.289308
C44   C     C_R   0.401448 0.983157 0.442168 -0.103353
C45   C     C_3   0.243610 0.908298 0.632582 -0.338454
C46   C     C_R   0.337146 0.875220 0.439661 -0.012434
C47   C     C_R   0.578588 0.846783 0.507016 0.079285
C48   C     C_R   0.643579 0.958186 0.512857 -0.057477
C49   C     C_R   0.554510 0.026057 0.478118 -0.064579
C50   C     C_R   0.620607 0.135544 0.481118 0.025208
C51   C     C_R   0.861186 0.111983 0.550827 -0.009767
C52   C     C_R   0.794366 0.004315 0.551695 -0.093294
C53   C     C_3   0.957853 0.207372 0.373038 0.270939
C54   C     C_3   0.963087 0.086597 0.355673 -0.336294
C55   C     C_3   0.733645 0.725809 0.688422 0.318566
C56   C     C_3   0.763586 0.776367 0.767828 -0.388680
H1    H     H_    0.722555 0.864164 0.342011 0.075642
H2    H     H_    0.318830 0.942669 0.682835 0.117723
H3    H     H_    0.299233 0.943782 0.587052 0.079699
H4    H     H_    0.117954 0.929709 0.639256 0.137870
H5    H     H_    0.829634 0.221142 0.380957 0.000635
H6    H     H_    0.036898 0.240320 0.422738 0.065198
H7    H     H_    0.891416 0.051855 0.304424 0.119876
H8    H     H_    0.910118 0.046012 0.399702 0.084518
H9    H     H_    0.092163 0.071652 0.349440 0.137540
H10   H     H_    0.850379 0.701275 0.668271 -0.015589
H11   H     H_    0.633669 0.656454 0.684879 0.019686
H12   H     H_    0.534988 0.969716 0.288478 0.103540
H13   H     H_    0.863669 0.846196 0.773769 0.127954
H14   H     H_    0.799748 0.715693 0.799513 0.052397
H15   H     H_    0.649786 0.804589 0.789619 0.111876
H16   H     H_    0.520085 0.788784 0.323640 -0.052002
H17   H     H_    0.487187 0.862669 0.211310 0.113122
H18   H     H_    0.350874 0.313210 0.336536 0.018963
H19   H     H_    0.567715 0.349703 0.323226 0.061273
H20   H     H_    0.318766 0.188525 0.220258 0.130584
H21   H     H_    0.414227 0.320243 0.205974 0.054573
H22   H     H_    0.537465 0.213542 0.208081 0.118057
H23   H     H_    0.691351 0.937468 0.225363 0.127380
H24   H     H_    0.144848 0.727153 0.149204 0.073622
H25   H     H_    0.134511 0.314076 0.725932 0.098421
H26   H     H_    0.923188 0.249403 0.721041 -0.046302
H27   H     H_    0.207678 0.219772 0.820953 0.159798
H28   H     H_    0.028993 0.282088 0.846470 0.076239
H29   H     H_    0.007017 0.138367 0.814067 0.111052
H30   H     H_    0.665405 0.213354 0.666566 -0.013998
H31   H     H_    0.460388 0.140523 0.652124 0.087183
H32   H     H_    0.717449 0.124848 0.770635 0.110766
H33   H     H_    0.652284 0.025567 0.691001 0.103638
H34   H     H_    0.045374 0.687393 0.268026 0.091316
H35   H     H_    0.511221 0.053925 0.761710 0.127227
H36   H     H_    0.669686 0.293027 0.107126 0.062250
H37   H     H_    0.587904 0.365602 0.867436 0.116612
H38   H     H_    0.882135 0.343759 0.199312 0.097288
H39   H     H_    0.308768 0.655372 0.801417 0.093107
H40   H     H_    0.530069 0.696850 0.893258 0.059060
H41   H     H_    0.636292 0.690680 0.015372 0.069686
H42   H     H_    0.597281 0.637922 0.132889 0.111656
H43   H     H_    0.256362 0.753733 0.274929 -0.072080
H44   H     H_    0.364676 0.519902 0.344988 0.069446
H45   H     H_    0.328824 0.032618 0.416764 0.097329
H46   H     H_    0.862969 0.958156 0.581708 0.105873
H47   H     H_    0.830954 0.253946 0.508634 0.117360
H48   H     H_    0.377432 0.722533 0.466230 0.069123
H49   H     H_    0.976238 0.798766 0.177680 0.148658
H50   H     H_    0.184075 0.869535 0.186192 0.110939
H51   H     H_    0.359684 0.765634 0.607051 0.013944
H52   H     H_    0.150386 0.753663 0.570720 0.073058
O1    O     O_2   0.873090 0.425890 0.325140 -0.472764
O2    O     O_3   0.685005 0.802242 0.649821 -0.644119
O3    O     O_3   0.082129 0.848617 0.316474 -0.599531
O4    O     O_2   0.316610 0.574140 0.674900 -0.472488
O5    O     O_3   0.067290 0.565720 0.585630 -0.481258
O6    O     O_3   0.530210 0.372990 0.631200 -0.462041
O7    O     O_3   0.183350 0.746711 0.680632 -0.643933
O8    O     O_3   0.611340 0.366290 0.463630 -0.457912
O9    O     O_3   0.108550 0.314140 0.595200 -0.434121
O10   O     O_2   0.203174 0.121974 0.553272 -0.490362
O11   O     O_3   0.094016 0.150151 0.682517 -0.606418
O12   O     O_3   0.122420 0.434370 0.414380 -0.485009
O13   O     O_3   0.578370 0.633800 0.536380 -0.498250
O14   O     O_2   0.341510 0.231850 0.465510 -0.465974
O15   O     O_3   0.496087 0.194208 0.343178 -0.654006
O16   O     O_2   0.408494 0.446262 0.756944 -0.500999
O17   O     O_3   0.493534 0.252890 0.745722 -0.600954
O18   O     O_3   0.659500 0.627100 0.368810 -0.472222
O19   O     O_2   0.766460 0.544876 0.242530 -0.493362
O20   O     O_3   0.013144 0.253756 0.313985 -0.644068
O21   O     O_3   0.705795 0.743177 0.253356 -0.598065
O22   O     O_2   0.848200 0.768190 0.534530 -0.476123
O23   O     O_3   0.081160 0.685950 0.404810 -0.487391
O24   O     O_2   0.002364 0.879741 0.451288 -0.485882
P1    P     P_3+3 0.041040 0.394770 0.336330 0.976560
P2    P     P_3+3 0.672880 0.754030 0.556100 0.960564
P3    P     P_3+3 0.126623 0.823823 0.403609 0.946430
P4    P     P_3+3 0.148670 0.605320 0.663680 0.977832
P5    P     P_3+3 0.065061 0.173896 0.593866 0.974908
P6    P     P_3+3 0.639186 0.615435 0.275158 0.948627
P7    P     P_3+3 0.519981 0.230727 0.437435 0.943084
P8    P     P_3+3 0.545634 0.383237 0.725485 0.947144
C57   C     C_R   0.518826 0.269763 0.979165 0.033470
C58   C     C_R   0.379688 0.287980 0.018756 -0.066004
C59   C     C_R   0.232742 0.216858 0.003692 -0.065841
C60   C     C_R   0.224757 0.125544 0.950042 -0.066215
C61   C     C_R   0.363141 0.106062 0.910817 -0.057798
C62   C     C_R   0.509708 0.178057 0.925082 -0.049773
H53   H     H_    0.386854 0.355832 0.062374 0.072794
H54   H     H_    0.126069 0.231428 0.034496 0.067551
H55   H     H_    0.111445 0.069818 0.938881 0.062224
H56   H     H_    0.356827 0.034736 0.869746 0.065020
H57   H     H_    0.617344 0.160771 0.895745 0.063480
C63   C     C_2   0.811125 0.477409 0.636874 0.570238
H58   H     H_    0.743254 0.531999 0.614465 0.005280
O25   O     O_2   0.842063 0.398374 0.597032 -0.584949

loop_
_geom_bond_atom_site_label_1
_geom_bond_atom_site_label_2
_ccdc_geom_bond_type
C5    H25   S    
C53   C54   S    
O23   P3    S    
C39   C40   A    
C17   C18   A    
Ba1   O18   S    
Ba1   O22   S    
O1    P1    D    
O24   P3    D    
C59   C60   A    
Ba2   O8    S    
C5    C6    S    
C37   C39   A    
C42   H47   S    
C35   C36   A    
C46   P3    S    
C52   H46   S    
C26   C27   A    
C33   C35   A    
C5    O11   S    
C16   C17   A    
C7    H30   S    
C3    C4    S    
C56   H13   S    
C4    H20   S    
C55   O2    S    
C19   C31   A    
C13   C14   A    
C34   C45   S    
C6    H27   S    
Ba1   O12   S    
C39   P6    S    
C28   H38   S    
O21   P6    S    
C45   H2    S    
Ba2   O6    S    
C42   C51   A    
C61   C62   A    
Ba2   O9    S    
O15   P7    S    
C14   C15   A    
C53   H5    S    
C1    H23   S    
C21   C22   A    
C17   C20   A    
C43   C47   A    
Ba1   P2    S    
C1    H17   S    
C7    C8    S    
C63   O25   D    
C59   H54   S    
O8    P7    S    
O4    P4    D    
C5    H26   S    
C24   C29   A    
C51   P5    S    
C27   C41   A    
C16   H37   S    
C45   H4    S    
Ba1   O23   S    
C40   H44   S    
C48   C49   A    
C2    O21   S    
Ba2   O12   S    
C25   C32   A    
C57   C62   A    
C44   C46   A    
O2    P2    S    
C49   C50   A    
Ba2   P4    S    
C30   C33   A    
C1    H12   S    
C7    H31   S    
C37   C38   A    
C12   H43   S    
C26   C37   A    
C22   P4    S    
Ba2   O13   S    
C44   C49   A    
O16   P8    D    
C15   C19   A    
O17   P8    S    
Ba1   O13   S    
C45   H3    S    
C58   H53   S    
Ba2   O5    S    
C56   H15   S    
C4    H22   S    
C29   C30   A    
O5    P4    S    
C9    C25   A    
C27   C28   A    
O22   P2    D    
C53   O20   S    
C53   H6    S    
C20   P8    S    
C31   C32   A    
O10   P5    D    
C7    O17   S    
C10   C11   A    
C41   P1    S    
C34   O7    S    
C12   H34   S    
C63   H58   S    
O6    P8    S    
O20   P1    S    
C8    H33   S    
C11   C13   A    
C34   H52   S    
C23   H24   S    
C13   C57   S    
O14   P7    D    
C40   C41   A    
C55   H10   S    
C3    H19   S    
C1    C2    S    
C33   H40   S    
C35   H41   S    
C43   H48   S    
C23   H49   S    
C60   C61   A    
C43   C46   A    
C9    C15   A    
C10   C28   A    
C32   C36   A    
C2    H16   S    
C47   P2    S    
C12   O3    S    
C22   C24   A    
C58   C59   A    
O7    P4    S    
C42   C50   A    
C38   H42   S    
C9    C10   A    
C51   C52   A    
C54   H7    S    
Ba2   O14   S    
C54   H9    S    
C44   H45   S    
C11   H36   S    
C50   P7    S    
C8    H35   S    
O13   P2    S    
C6    H29   S    
O9    P5    S    
C30   C31   A    
O11   P5    S    
C3    H18   S    
C61   H56   S    
O18   P6    S    
C48   C52   A    
Ba1   O1    S    
C36   C38   A    
Ba2   O4    S    
C6    H28   S    
C56   H14   S    
C55   C56   S    
O19   P6    D    
C18   C24   A    
C54   H8    S    
Ba1   Ba2   S    
C2    H1    S    
O3    P3    S    
Ba1   O8    S    
C29   H39   S    
C12   C23   S    
O12   P1    S    
C4    H21   S    
C60   H55   S    
C18   C19   A    
C8    H32   S    
C14   C16   A    
C47   C48   A    
C62   H57   S    
C21   C63   S    
C3    O15   S    
C34   H51   S    
C20   C21   A    
Ba1   O5    S    
C55   H11   S    
Ba1   P1    S    
C57   C58   A    
C23   H50   S    
C25   C26   A    
