data_mof_unit_24985.cif
_audit_creation_date              2012-12-10T17:56:42-0500
_audit_creation_method            fapswitch 2.2
_symmetry_space_group_name_H-M    P1
_symmetry_Int_Tables_number       1
_space_group_crystal_system       triclinic
_cell_length_a                    10.79716
_cell_length_b                    9.518831
_cell_length_c                    10.861402
_cell_angle_alpha                 90.052137
_cell_angle_beta                  90.588278
_cell_angle_gamma                 89.931319
_cell_volume                      1116.23506845

loop_
_atom_site_label
_atom_site_type_symbol
_atom_type_description
_atom_site_fract_x
_atom_site_fract_y
_atom_site_fract_z
_atom_type_partial_charge
C1    C     C_R   0.262384 0.499956 0.500354 0.929140
C2    C     C_R   0.737720 0.500129 0.499819 0.958332
C3    C     C_R   0.934814 0.591937 0.421107 0.308038
C4    C     C_R   0.063993 0.587541 0.418073 0.333379
C5    C     C_R   0.421452 0.075522 0.423482 0.331377
C6    C     C_R   0.578324 0.075287 0.576690 0.320352
C7    C     C_R   0.424813 0.924636 0.420214 0.328512
C8    C     C_R   0.575238 0.924430 0.579704 0.299328
C9    C     C_R   0.508712 0.500919 0.262314 0.781168
C10   C     C_R   0.490933 0.501046 0.737667 0.814720
C11   C     C_R   0.556977 0.763789 0.115548 -0.106343
C12   C     C_R   0.444183 0.764655 0.884990 -0.125213
C13   C     C_R   0.532162 0.890884 0.056689 -0.171268
C14   C     C_R   0.469917 0.891354 0.944262 -0.157065
C15   C     C_R   0.480960 0.634711 0.937959 0.085491
C16   C     C_R   0.518970 0.634411 0.062317 0.097368
C17   C     C_R   0.516278 0.505034 0.127837 -0.117305
C18   C     C_R   0.482601 0.505329 0.872159 -0.112956
C19   C     C_R   0.504079 0.378346 0.063324 -0.209581
C20   C     C_R   0.493015 0.378435 0.936508 -0.174989
C21   C     C_R   0.065990 0.409803 0.581184 0.241040
C22   C     C_R   0.935715 0.414184 0.584266 0.263541
C23   C     C_R   0.871708 0.500850 0.500594 -0.273492
C24   C     C_R   0.128568 0.499816 0.500573 -0.276422
Cu1   Cu    Cu3+1 0.500000 0.640660 0.500000 1.042632
Cu2   Cu    Cu3+1 0.500000 0.359340 0.500000 1.064562
H1    H     H_    0.504163 0.278259 0.110754 0.175948
H2    H     H_    0.491739 0.278352 0.888922 0.177832
H3    H     H_    0.608961 0.769038 0.200847 0.171440
H4    H     H_    0.392427 0.770692 0.799593 0.159446
H5    H     H_    0.558481 0.989090 0.099935 0.134920
H6    H     H_    0.444426 0.989962 0.901275 0.141018
N1    N     N_R   0.500000 0.852070 0.500000 -0.210371
N2    N     N_R   0.500000 0.147940 0.500000 -0.203339
O1    O     O_R   0.319640 0.618740 0.499990 -0.533223
O2    O     O_R   0.680360 0.618740 0.500010 -0.541336
O3    O     O_R   0.319620 0.381170 0.499990 -0.511897
O4    O     O_R   0.680380 0.381170 0.500010 -0.523845
O5    O     O_R   0.500000 0.618810 0.319650 -0.553861
O6    O     O_R   0.500000 0.618810 0.680350 -0.564170
O7    O     O_R   0.499970 0.381240 0.319640 -0.559157
O8    O     O_R   0.500030 0.381240 0.680360 -0.529858
O9    O     O_3   0.134298 0.320663 0.655966 -0.725290
H7    H     H_    0.084797 0.235164 0.671872 0.331829
O10   O     O_3   0.868742 0.341496 0.671211 -0.696344
H8    H     H_    0.920777 0.327999 0.745861 0.331867
O11   O     O_3   0.869288 0.674979 0.338349 -0.576769
C25   C     C_3   0.873176 0.815930 0.378854 -0.211533
H9    H     H_    0.846849 0.826624 0.477338 0.173882
H10   H     H_    0.805329 0.877632 0.323725 0.151519
H11   H     H_    0.965993 0.862761 0.364033 0.196201
O12   O     O_3   0.127137 0.670845 0.335377 -0.531312
C26   C     C_3   0.145045 0.593533 0.226147 -0.200269
H12   H     H_    0.201245 0.497255 0.243241 0.134464
H13   H     H_    0.196988 0.659860 0.160515 0.186487
H14   H     H_    0.055021 0.565543 0.181787 0.167301
O13   O     O_3   0.339822 0.151673 0.351501 -0.699685
H15   H     H_    0.264081 0.095041 0.337714 0.311921
O14   O     O_3   0.659230 0.151168 0.649432 -0.652533
H16   H     H_    0.734759 0.094224 0.663909 0.323833
O15   O     O_3   0.354053 0.848596 0.337671 -0.651386
H17   H     H_    0.339441 0.906085 0.263022 0.311191
O16   O     O_3   0.646560 0.848181 0.661712 -0.693600
H18   H     H_    0.660102 0.904999 0.737010 0.314334

loop_
_geom_bond_atom_site_label_1
_geom_bond_atom_site_label_2
_ccdc_geom_bond_type
C15   C18   A    
O9    H7    S    
Cu2   O3    S    
C5    O13   S    
C13   C14   A    
C10   O8    A    
C19   H1    S    
C11   C16   A    
C2    O4    A    
C3    C23   A    
C19   C20   A    
C12   C15   A    
C1    O3    A    
Cu2   N2    S    
C5    N2    A    
C25   H10   S    
O14   H16   S    
C21   O9    S    
C21   C22   A    
Cu1   O5    S    
C11   C13   A    
Cu2   O8    S    
O13   H15   S    
C16   C17   A    
Cu1   O1    S    
C3    O11   S    
C25   H9    S    
C17   C19   A    
C10   C18   S    
C4    O12   S    
C18   C20   A    
C8    N1    A    
C26   H13   S    
Cu1   O6    S    
O15   H17   S    
C4    C24   A    
C26   H14   S    
Cu1   N1    S    
C7    N1    A    
Cu1   O2    S    
C2    O2    A    
C15   C16   A    
C20   H2    S    
O10   H8    S    
C9    O5    A    
C22   O10   S    
C14   H6    S    
O12   C26   S    
C11   H3    S    
C1    C24   S    
C10   O6    A    
C21   C24   A    
C9    C17   S    
C2    C23   S    
C5    C7    A    
C1    O1    A    
C22   C23   A    
C7    O15   S    
C6    C8    A    
C8    O16   S    
C12   H4    S    
Cu1   Cu2   S    
C26   H12   S    
C9    O7    A    
C6    O14   S    
C13   H5    S    
C25   H11   S    
Cu2   O4    S    
C3    C4    A    
C6    N2    A    
Cu2   O7    S    
C12   C14   A    
O16   H18   S    
O11   C25   S    
