data_mof_unit_20609.cif
_audit_creation_date              2012-12-10T18:13:36-0500
_audit_creation_method            fapswitch 2.2
_symmetry_space_group_name_H-M    P1
_symmetry_Int_Tables_number       1
_space_group_crystal_system       triclinic
_cell_length_a                    12.595068
_cell_length_b                    13.066114
_cell_length_c                    16.669996
_cell_angle_alpha                 91.488717
_cell_angle_beta                  97.947489
_cell_angle_gamma                 97.23437
_cell_volume                      2692.74933526

loop_
_atom_site_label
_atom_site_type_symbol
_atom_type_description
_atom_site_fract_x
_atom_site_fract_y
_atom_site_fract_z
_atom_type_partial_charge
C1    C     C_R   0.560299 0.691413 0.507545 0.875533
C2    C     C_R   0.492578 0.542879 0.735184 -0.101824
C3    C     C_R   0.331022 0.067336 0.355514 -0.144801
C4    C     C_R   0.514266 0.500095 0.348969 0.900603
C5    C     C_R   0.409024 0.201181 0.457845 -0.163793
C6    C     C_R   0.686416 0.838915 0.572315 -0.314778
C7    C     C_R   0.712159 0.945208 0.589731 0.512292
C8    C     C_R   0.645171 0.011977 0.551640 -0.177956
C9    C     C_R   0.555044 0.974184 0.493128 0.014182
C10   C     C_R   0.540765 0.869751 0.467192 0.028329
C11   C     C_R   0.478164 0.036703 0.459883 0.041141
C12   C     C_R   0.634198 0.543315 0.246383 -0.393623
C13   C     C_R   0.402988 0.001496 0.390260 -0.026538
C14   C     C_R   0.402912 0.902377 0.355635 0.474606
C15   C     C_R   0.468013 0.835757 0.396723 -0.297890
C16   C     C_R   0.440606 0.308808 0.485402 0.848968
C17   C     C_R   0.472441 0.132452 0.496170 -0.263002
C18   C     C_R   0.336871 0.168791 0.385944 0.417935
C19   C     C_R   0.598968 0.801266 0.513142 -0.118594
C20   C     C_R   0.900798 0.350215 0.613645 -0.225580
C21   C     C_R   0.209100 0.627995 0.405079 -0.076350
C22   C     C_R   0.106575 0.659297 0.387722 0.399891
C23   C     C_R   0.597971 0.626233 0.856511 -0.227376
C24   C     C_R   0.023277 0.612451 0.426402 -0.201811
C25   C     C_R   0.040650 0.532726 0.480549 -0.072696
C26   C     C_R   0.146229 0.505513 0.496817 0.184838
C27   C     C_R   0.957751 0.479433 0.519028 -0.060585
C28   C     C_R   0.488441 0.508207 0.651020 0.878557
C29   C     C_R   0.982621 0.402594 0.575285 0.129379
C30   C     C_R   0.088154 0.378328 0.591994 0.378004
C31   C     C_R   0.168060 0.429020 0.551726 -0.292834
C32   C     C_R   0.849819 0.498336 0.503147 -0.019096
C33   C     C_R   0.796216 0.373167 0.595495 -0.026787
C34   C     C_R   0.592893 0.580455 0.780080 -0.204577
C35   C     C_R   0.528639 0.520489 0.265033 -0.146637
C36   C     C_R   0.439296 0.529012 0.205833 0.442790
C37   C     C_R   0.457793 0.563935 0.129864 -0.378678
C38   C     C_R   0.563518 0.589174 0.112142 0.047823
C39   C     C_R   0.652159 0.575027 0.169548 0.516482
C40   C     C_3   0.272342 0.512235 0.913606 0.035939
C41   C     C_3   0.183465 0.444894 0.856416 -0.328501
C42   C     C_3   0.132729 0.353739 0.899697 -0.905821
C43   C     C_3   0.382291 0.838643 0.222689 0.069015
C44   C     C_3   0.427075 0.933872 0.180064 -0.370358
C45   C     C_R   0.397063 0.554288 0.766792 -0.283808
C46   C     C_3   0.474323 0.902703 0.104933 -0.905170
C47   C     C_3   0.813313 0.514402 0.154491 0.036511
C48   C     C_3   0.916151 0.536900 0.215988 -0.302173
C49   C     C_3   0.983918 0.447812 0.218339 -0.908323
C50   C     C_R   0.401641 0.595776 0.845365 0.525469
C51   C     C_R   0.503084 0.630934 0.890919 0.083969
C52   C     C_2   0.581808 0.613567 0.029555 -0.154048
C53   C     C_2   0.509788 0.655247 0.977854 -0.226852
H1    H     H_    0.274531 0.042625 0.301385 0.207226
H2    H     H_    0.275575 0.663282 0.376315 0.158273
H3    H     H_    0.946218 0.640368 0.412582 0.159466
H4    H     H_    0.246786 0.406703 0.564295 0.210055
H5    H     H_    0.319058 0.530932 0.730649 0.167263
H6    H     H_    0.442636 0.686766 0.999379 0.185451
H7    H     H_    0.676529 0.655401 0.889699 0.163763
H8    H     H_    0.703435 0.539397 0.292032 0.187411
H9    H     H_    0.648317 0.581025 0.007818 0.169653
H10   H     H_    0.389038 0.567821 0.083981 0.142568
H11   H     H_    0.282657 0.514105 0.175113 0.325262
H12   H     H_    0.520812 0.157453 0.553665 0.157574
H13   H     H_    0.238007 0.534538 0.968425 0.166372
H14   H     H_    0.339331 0.466605 0.935090 0.129163
H15   H     H_    0.119482 0.492131 0.832778 0.241148
H16   H     H_    0.217964 0.414386 0.804343 0.223798
H17   H     H_    0.195143 0.304805 0.923141 0.265612
H18   H     H_    0.069589 0.306061 0.856463 0.281304
H19   H     H_    0.094544 0.381588 0.950915 0.254938
H20   H     H_    0.312256 0.304372 0.348204 0.363618
H21   H     H_    0.321217 0.790081 0.178425 0.178255
H22   H     H_    0.447238 0.790020 0.240914 0.136190
H23   H     H_    0.732348 0.785642 0.606497 0.155610
H24   H     H_    0.361180 0.981343 0.161851 0.238081
H25   H     H_    0.491481 0.981569 0.222351 0.217875
H26   H     H_    0.539959 0.854475 0.121661 0.273913
H27   H     H_    0.508293 0.972975 0.076386 0.269327
H28   H     H_    0.410271 0.858600 0.060187 0.261792
H29   H     H_    0.837970 0.928642 0.667467 0.335390
H30   H     H_    0.189532 0.297188 0.652605 0.329259
H31   H     H_    0.151309 0.757062 0.309531 0.365591
H32   H     H_    0.836407 0.501794 0.093380 0.159685
H33   H     H_    0.765696 0.440745 0.168866 0.129925
H34   H     H_    0.667144 0.093395 0.567137 0.153980
H35   H     H_    0.965416 0.608132 0.200000 0.262955
H36   H     H_    0.893561 0.549916 0.277055 0.221498
H37   H     H_    0.937031 0.376237 0.236037 0.269307
H38   H     H_    0.057683 0.467098 0.263621 0.283623
H39   H     H_    0.008903 0.434151 0.158030 0.259365
H40   H     H_    0.462209 0.757404 0.372460 0.153281
H41   H     H_    0.732059 0.333402 0.624426 0.141803
H42   H     H_    0.667592 0.577250 0.755321 0.172292
H43   H     H_    0.916874 0.291703 0.656927 0.212240
H44   H     H_    0.822628 0.553437 0.460729 0.123559
N1    N     N_R   0.774070 0.445420 0.541180 -0.101173
N2    N     N_R   0.226730 0.554050 0.459240 -0.129346
O1    O     O_R   0.631480 0.627510 0.519670 -0.618262
O2    O     O_3   0.306705 0.604591 0.876499 -0.653755
O3    O     O_3   0.274648 0.233033 0.341571 -0.744643
O4    O     O_3   0.329146 0.867407 0.287749 -0.674985
O5    O     O_3   0.798980 0.985790 0.646066 -0.758698
O6    O     O_3   0.111348 0.303999 0.647079 -0.773466
O7    O     O_3   0.085194 0.734924 0.333883 -0.754005
O8    O     O_3   0.756385 0.601489 0.152160 -0.635433
O9    O     O_R   0.455770 0.662400 0.493360 -0.608934
O10   O     O_R   0.598240 0.480510 0.398910 -0.628972
O11   O     O_R   0.422540 0.515400 0.372600 -0.568210
O12   O     O_R   0.544230 0.337600 0.506640 -0.603764
O13   O     O_R   0.368520 0.372490 0.480330 -0.625918
O14   O     O_R   0.577460 0.484600 0.627400 -0.617777
O15   O     O_R   0.401760 0.519490 0.601090 -0.628899
O16   O     O_3   0.335263 0.502378 0.222927 -0.754518
Zn1   Zn    Zn3+2 0.617320 0.476700 0.517570 0.936009
Zn2   Zn    Zn3+2 0.382680 0.523300 0.482430 0.958643

loop_
_geom_bond_atom_site_label_1
_geom_bond_atom_site_label_2
_ccdc_geom_bond_type
C4    O10   A    
C27   C29   A    
C41   C42   S    
C35   C36   A    
O1    Zn1   S    
C49   H37   S    
C33   H41   S    
C53   H6    S    
C7    C8    A    
C39   O8    S    
C6    C19   A    
C29   C30   A    
C47   H32   S    
C44   H24   S    
C10   C15   A    
C46   H26   S    
C21   N2    A    
C3    H1    S    
C5    C17   A    
C42   H17   S    
C32   H44   S    
C1    O1    A    
C3    C18   A    
C33   N1    A    
C18   O3    S    
C5    C16   S    
O10   Zn1   S    
C40   O2    S    
N1    Zn1   S    
C8    C9    A    
C40   H14   S    
H31   O7    S    
C48   H35   S    
O12   Zn1   S    
C9    C10   A    
C3    C13   A    
C26   N2    A    
O14   Zn1   S    
C2    C34   A    
C43   H21   S    
C20   H43   S    
C4    C35   S    
C26   C31   A    
H11   O16   S    
C40   H13   S    
C13   C14   A    
C23   H7    S    
C49   H38   S    
O11   Zn2   S    
C37   H10   S    
C44   C46   S    
C41   H15   S    
C20   C29   A    
C2    C45   A    
C43   H22   S    
C38   C39   A    
C45   H5    S    
C1    C19   S    
C47   H33   S    
C24   C25   A    
C21   H2    S    
C5    C18   A    
C25   C26   A    
C22   O7    S    
H30   O6    S    
C51   C53   S    
C43   C44   S    
C37   C38   A    
N2    Zn2   S    
C46   H28   S    
C23   C51   A    
C47   C48   S    
C10   C19   A    
C23   C34   A    
C42   H19   S    
C50   C51   A    
C34   H42   S    
C12   C35   A    
C9    C11   A    
C28   O15   A    
C20   C33   A    
C40   C41   S    
C47   O8    S    
C48   H36   S    
C30   O6    S    
C22   C24   A    
C24   H3    S    
C49   H39   S    
C52   C53   D    
C16   O13   A    
C41   H16   S    
C4    O11   A    
C11   C17   A    
C27   C32   A    
O9    Zn2   S    
C15   H40   S    
C6    H23   S    
C6    C7    A    
C25   C27   A    
C17   H12   S    
O13   Zn2   S    
C7    O5    S    
C8    H34   S    
C31   H4    S    
C12   C39   A    
C44   H25   S    
C52   H9    S    
C46   H27   S    
C12   H8    S    
C11   C13   A    
C14   O4    S    
C30   C31   A    
C45   C50   A    
C48   C49   S    
C42   H18   S    
C32   N1    A    
C43   O4    S    
O15   Zn2   S    
C28   O14   A    
C1    O9    A    
C38   C52   S    
C50   O2    S    
C36   C37   A    
H29   O5    S    
C14   C15   A    
C2    C28   S    
C21   C22   A    
C36   O16   S    
H20   O3    S    
C16   O12   A    
