data_mof_unit_45039.cif
_audit_creation_date              2012-12-10T18:54:59-0500
_audit_creation_method            fapswitch 2.2
_symmetry_space_group_name_H-M    P1
_symmetry_Int_Tables_number       1
_space_group_crystal_system       triclinic
_cell_length_a                    19.38843
_cell_length_b                    18.125768
_cell_length_c                    15.970785
_cell_angle_alpha                 90.968077
_cell_angle_beta                  90.073879
_cell_angle_gamma                 90.134049
_cell_volume                      5611.79447282

loop_
_atom_site_label
_atom_site_type_symbol
_atom_type_description
_atom_site_fract_x
_atom_site_fract_y
_atom_site_fract_z
_atom_type_partial_charge
C1    C     C_R   0.367431 0.499771 0.498944 0.922655
C2    C     C_R   0.632325 0.500159 0.500085 0.969916
C3    C     C_R   0.707729 0.500759 0.497192 -0.371579
C4    C     C_R   0.291679 0.498282 0.492195 -0.388686
C5    C     C_R   0.962522 0.479246 0.414012 -0.173464
C6    C     C_R   0.037506 0.523429 0.556341 -0.137093
C7    C     C_R   0.034217 0.478608 0.412271 -0.260519
C8    C     C_R   0.965731 0.524317 0.558042 -0.179925
C9    C     C_R   0.071819 0.500422 0.483520 0.231830
C10   C     C_R   0.927931 0.501813 0.487033 0.169363
C11   C     C_R   0.461157 0.719497 0.442484 -0.017650
C12   C     C_R   0.532281 0.279954 0.562680 -0.063615
C13   C     C_R   0.539422 0.722398 0.556019 -0.062204
C14   C     C_R   0.467130 0.278071 0.437554 -0.052905
C15   C     C_R   0.462240 0.797164 0.437807 0.313849
C16   C     C_R   0.531711 0.202159 0.565449 0.288869
C17   C     C_R   0.539576 0.800231 0.557305 0.309603
C18   C     C_R   0.467565 0.200445 0.435012 0.278537
C19   C     C_R   0.501060 0.838733 0.496891 -0.093629
C20   C     C_R   0.499956 0.161394 0.499937 -0.093939
C21   C     C_R   0.563082 0.962008 0.497781 -0.176403
C22   C     C_R   0.438164 0.038621 0.496382 -0.166612
C23   C     C_R   0.438466 0.961140 0.495153 -0.170824
C24   C     C_R   0.562734 0.039512 0.499955 -0.175732
C25   C     C_R   0.500272 0.078745 0.499283 0.178924
C26   C     C_R   0.500930 0.921659 0.495956 0.160339
C27   C     C_R   0.499931 0.499359 0.341141 0.816153
C28   C     C_R   0.500131 0.500536 0.658934 0.839610
C29   C     C_R   0.494594 0.566377 0.958988 0.316082
C30   C     C_R   0.494655 0.430290 0.041451 0.326708
C31   C     C_R   0.490888 0.565061 0.046546 0.316012
C32   C     C_R   0.492226 0.431606 0.953699 0.330157
C33   C     C_R   0.494542 0.499821 0.912747 -0.204401
C34   C     C_R   0.493405 0.497083 0.087614 -0.215008
C35   C     C_1   0.497321 0.501380 0.823100 0.095083
C36   C     C_1   0.495764 0.496505 0.177222 0.074166
C37   C     C_1   0.497908 0.497622 0.252193 -0.194909
C38   C     C_1   0.498991 0.501574 0.748049 -0.171359
C39   C     C_R   0.745617 0.462228 0.557419 0.338531
C40   C     C_R   0.256734 0.552252 0.445747 0.370481
C41   C     C_R   0.254304 0.441742 0.531461 0.357593
C42   C     C_R   0.741369 0.539699 0.433567 0.347750
C43   C     C_R   0.817935 0.459425 0.551320 0.336003
C44   C     C_R   0.184533 0.552755 0.443721 0.338592
C45   C     C_R   0.182036 0.438886 0.524886 0.357797
C46   C     C_R   0.813697 0.542097 0.431255 0.327681
C47   C     C_R   0.852064 0.501100 0.489704 -0.263089
C48   C     C_R   0.147130 0.496120 0.482670 -0.279048
Cu1   Cu    Cu3+1 0.500000 0.573360 0.500000 0.962341
Cu2   Cu    Cu3+1 0.500000 0.426640 0.500000 0.947631
H1    H     H_    0.933991 0.460984 0.359097 0.169223
H2    H     H_    0.066323 0.540084 0.611676 0.151222
H3    H     H_    0.060471 0.459795 0.356064 0.129284
H4    H     H_    0.939556 0.542371 0.614618 0.167176
H5    H     H_    0.429532 0.687721 0.399256 0.165959
H6    H     H_    0.558177 0.311375 0.611261 0.144526
H7    H     H_    0.570705 0.692948 0.600500 0.150384
H8    H     H_    0.440929 0.307724 0.388711 0.152812
H9    H     H_    0.612087 0.933502 0.497197 0.167612
H10   H     H_    0.389271 0.067378 0.496145 0.155900
H11   H     H_    0.389675 0.931975 0.495032 0.174200
H12   H     H_    0.611384 0.068984 0.501062 0.155691
N1    N     N_R   0.500000 0.683620 0.500000 -0.218621
N2    N     N_R   0.500000 0.316380 0.500000 -0.210522
O1    O     O_R   0.400190 0.561980 0.499990 -0.538493
O2    O     O_R   0.599810 0.438020 0.500010 -0.575417
O3    O     O_R   0.599810 0.561980 0.500010 -0.580065
O4    O     O_R   0.400190 0.438020 0.499990 -0.566911
O5    O     O_R   0.499980 0.561940 0.380310 -0.585129
O6    O     O_R   0.500020 0.438060 0.619690 -0.578522
O7    O     O_R   0.500020 0.561940 0.619690 -0.581875
O8    O     O_R   0.499980 0.438060 0.380310 -0.591772
O9    O     O_3   0.490018 0.631282 0.091194 -0.588968
C49   C     C_3   0.424088 0.643546 0.126930 0.092190
H13   H     H_    0.431134 0.651752 0.195455 0.137469
H14   H     H_    0.386766 0.596922 0.117900 0.118944
C50   C     C_3   0.392836 0.713481 0.090782 -0.337809
H15   H     H_    0.427844 0.760979 0.103590 0.215626
H16   H     H_    0.387295 0.706525 0.021824 0.247234
C51   C     C_3   0.322174 0.729784 0.128837 -0.957824
H17   H     H_    0.285792 0.683810 0.114610 0.265107
H18   H     H_    0.301191 0.781204 0.102017 0.265055
H19   H     H_    0.326363 0.737298 0.197796 0.253669
O10   O     O_3   0.495181 0.365755 0.908562 -0.605624
C52   C     C_3   0.429272 0.347205 0.876172 0.074055
H20   H     H_    0.437422 0.316722 0.816055 0.160013
H21   H     H_    0.396804 0.396054 0.861276 0.134099
C53   C     C_3   0.390743 0.296907 0.936509 -0.325177
H22   H     H_    0.424814 0.250824 0.955278 0.235652
H23   H     H_    0.376175 0.328946 0.993668 0.236484
C54   C     C_3   0.325541 0.265033 0.896238 -0.930024
H24   H     H_    0.338897 0.230810 0.840232 0.254236
H25   H     H_    0.290386 0.310163 0.877452 0.267217
H26   H     H_    0.298352 0.229705 0.941811 0.259312
O11   O     O_3   0.493277 0.633208 0.918550 -0.588836
C55   C     C_3   0.560290 0.664197 0.918877 0.112724
H27   H     H_    0.588801 0.643195 0.862994 0.138286
H28   H     H_    0.590799 0.650971 0.976088 0.153593
C56   C     C_3   0.554096 0.748007 0.914677 -0.327118
H29   H     H_    0.524629 0.762642 0.857778 0.213918
H30   H     H_    0.525362 0.768919 0.970383 0.233191
C57   C     C_3   0.624828 0.784976 0.912374 -0.949363
H31   H     H_    0.654496 0.772265 0.969884 0.266258
H32   H     H_    0.618416 0.845701 0.909019 0.255684
H33   H     H_    0.654155 0.765572 0.856536 0.254693
O12   O     O_3   0.491442 0.363336 0.081724 -0.599376
C58   C     C_3   0.557997 0.341540 0.108000 0.099735
H34   H     H_    0.553027 0.320474 0.172672 0.155454
H35   H     H_    0.596738 0.387280 0.111017 0.124256
C59   C     C_3   0.584530 0.279287 0.050748 -0.327941
H36   H     H_    0.543868 0.236422 0.042833 0.225596
H37   H     H_    0.596844 0.301655 0.988201 0.247579
C60   C     C_3   0.649174 0.243765 0.086561 -0.949278
H38   H     H_    0.637734 0.218966 0.148172 0.253379
H39   H     H_    0.690830 0.285514 0.094304 0.263786
H40   H     H_    0.667349 0.199497 0.043094 0.263821
O13   O     O_3   0.712133 0.437261 0.628239 -0.557028
C61   C     C_3   0.707227 0.359654 0.626069 -0.226508
H41   H     H_    0.697062 0.336464 0.562113 0.135024
H42   H     H_    0.663753 0.343396 0.666766 0.168431
H43   H     H_    0.753901 0.334798 0.653807 0.183285
O14   O     O_3   0.292306 0.609050 0.408178 -0.520124
C62   C     C_3   0.316505 0.583915 0.329417 -0.331406
H44   H     H_    0.354968 0.539067 0.335652 0.137650
H45   H     H_    0.342265 0.630535 0.298147 0.171044
H46   H     H_    0.273782 0.564823 0.288002 0.141371
O15   O     O_3   0.288239 0.395480 0.586126 -0.537345
C63   C     C_3   0.294350 0.324158 0.550070 -0.203216
H47   H     H_    0.340659 0.297490 0.576892 0.168262
H48   H     H_    0.301377 0.324290 0.480742 0.121516
H49   H     H_    0.249193 0.289970 0.567245 0.175919
O16   O     O_3   0.703050 0.568895 0.368798 -0.548487
C64   C     C_3   0.694481 0.645659 0.381463 -0.216182
H50   H     H_    0.699623 0.664664 0.448049 0.122903
H51   H     H_    0.641857 0.660803 0.360536 0.181985
H52   H     H_    0.731541 0.675854 0.341716 0.166734
O17   O     O_3   0.855122 0.419729 0.609345 -0.577529
C65   C     C_3   0.877804 0.352840 0.571460 0.050261
H53   H     H_    0.914504 0.363015 0.519574 0.145377
H54   H     H_    0.833559 0.320365 0.545633 0.121033
C66   C     C_3   0.915007 0.307071 0.636931 -0.316126
H55   H     H_    0.961405 0.337667 0.659462 0.228055
H56   H     H_    0.880286 0.298074 0.691150 0.224164
C67   C     C_3   0.937131 0.232367 0.600702 -0.953455
H57   H     H_    0.891165 0.199467 0.581569 0.260670
H58   H     H_    0.966047 0.201503 0.648817 0.262426
H59   H     H_    0.970981 0.239865 0.545466 0.251484
O18   O     O_3   0.151130 0.615083 0.415235 -0.561781
C68   C     C_3   0.131237 0.605768 0.330429 0.091434
H60   H     H_    0.074369 0.598934 0.327905 0.157979
H61   H     H_    0.154743 0.556831 0.298147 0.094618
C69   C     C_3   0.149787 0.675573 0.282869 -0.300246
H62   H     H_    0.122950 0.723653 0.312025 0.227415
H63   H     H_    0.206223 0.685652 0.286914 0.245158
C70   C     C_3   0.128877 0.669073 0.190922 -0.958634
H64   H     H_    0.156198 0.622209 0.160033 0.254635
H65   H     H_    0.142899 0.720637 0.158391 0.266670
H66   H     H_    0.072292 0.660472 0.185321 0.260571
O19   O     O_3   0.147993 0.385581 0.571192 -0.580649
C71   C     C_3   0.102955 0.339261 0.523351 0.068513
H67   H     H_    0.051681 0.365102 0.516432 0.164190
H68   H     H_    0.093164 0.289782 0.561690 0.168513
C72   C     C_3   0.131289 0.311585 0.438100 -0.418802
H69   H     H_    0.142668 0.358442 0.396440 0.203613
H70   H     H_    0.179511 0.280064 0.447534 0.211574
C73   C     C_3   0.078999 0.261483 0.393677 -0.904289
H71   H     H_    0.067991 0.212257 0.431981 0.254300
H72   H     H_    0.100146 0.242707 0.332374 0.259759
H73   H     H_    0.030221 0.291867 0.382505 0.253002
O20   O     O_3   0.845838 0.577693 0.365792 -0.576770
C74   C     C_3   0.874832 0.645120 0.394878 0.070066
H74   H     H_    0.912539 0.636722 0.446202 0.155445
H75   H     H_    0.834078 0.683136 0.418549 0.116990
C75   C     C_3   0.912591 0.681294 0.322301 -0.316300
H76   H     H_    0.950479 0.641702 0.295098 0.221911
H77   H     H_    0.874785 0.695528 0.272783 0.219607
C76   C     C_3   0.950765 0.750993 0.350922 -0.931400
H78   H     H_    0.913972 0.791758 0.377965 0.255431
H79   H     H_    0.977021 0.776011 0.296519 0.259077
H80   H     H_    0.990360 0.737420 0.398568 0.268334
O21   O     O_3   0.422299 0.832799 0.379007 -0.609268
C77   C     C_3   0.449940 0.821802 0.297746 0.054933
H81   H     H_    0.408339 0.834186 0.252286 0.179686
H82   H     H_    0.465693 0.763632 0.284937 0.119244
C78   C     C_3   0.510392 0.874572 0.282120 -0.350817
H83   H     H_    0.494435 0.932075 0.297426 0.236871
H84   H     H_    0.554466 0.860145 0.323211 0.204345
C79   C     C_3   0.534013 0.870179 0.191058 -0.923056
H85   H     H_    0.549956 0.812981 0.174265 0.268155
H86   H     H_    0.578706 0.907623 0.182147 0.256601
H87   H     H_    0.491718 0.887383 0.148707 0.254664
O22   O     O_3   0.564716 0.165768 0.629610 -0.612309
C80   C     C_3   0.528303 0.177990 0.705172 0.049872
H88   H     H_    0.473242 0.160926 0.698091 0.137659
H89   H     H_    0.530852 0.237175 0.724772 0.140042
C81   C     C_3   0.561161 0.132241 0.774031 -0.300860
H90   H     H_    0.557560 0.072742 0.756814 0.224292
H91   H     H_    0.616587 0.147224 0.780234 0.223703
C82   C     C_3   0.525547 0.145502 0.858094 -0.947295
H92   H     H_    0.530768 0.204321 0.877695 0.274546
H93   H     H_    0.549934 0.110805 0.906475 0.259050
H94   H     H_    0.469980 0.130849 0.853586 0.257314
O23   O     O_3   0.580773 0.838341 0.614182 -0.618815
C83   C     C_3   0.549636 0.839090 0.694299 0.054738
H95   H     H_    0.591800 0.843826 0.741188 0.180089
H96   H     H_    0.521056 0.787254 0.708313 0.124832
C84   C     C_3   0.502035 0.906069 0.704683 -0.335871
H97   H     H_    0.529469 0.956449 0.684022 0.240054
H98   H     H_    0.455475 0.898111 0.664953 0.213979
C85   C     C_3   0.479223 0.917214 0.795394 -0.935087
H99   H     H_    0.449800 0.868383 0.816714 0.259185
H100  H     H_    0.445458 0.966497 0.800331 0.261459
H101  H     H_    0.524687 0.926220 0.836722 0.258298
O24   O     O_3   0.434389 0.163305 0.370275 -0.611331
C86   C     C_3   0.482519 0.149616 0.305594 0.062483
H102  H     H_    0.528624 0.119809 0.329486 0.140163
H103  H     H_    0.499323 0.202544 0.277401 0.136188
C87   C     C_3   0.448398 0.101532 0.237775 -0.304099
H104  H     H_    0.428812 0.049950 0.266082 0.227440
H105  H     H_    0.403936 0.131587 0.210726 0.223286
C88   C     C_3   0.499080 0.081602 0.167995 -0.943345
H106  H     H_    0.518471 0.132326 0.137865 0.261410
H107  H     H_    0.472754 0.046678 0.119875 0.260853
H108  H     H_    0.543364 0.050321 0.193499 0.259295

loop_
_geom_bond_atom_site_label_1
_geom_bond_atom_site_label_2
_ccdc_geom_bond_type
C44   C48   A    
C21   C26   A    
C3    C42   A    
Cu1   N1    S    
C70   H65   S    
Cu2   N2    S    
O9    C49   S    
C14   C18   A    
O11   C55   S    
C45   O19   S    
C74   H74   S    
C63   H47   S    
C6    C9    A    
C78   H83   S    
C68   H60   S    
C62   H44   S    
C50   H15   S    
C15   C19   A    
C74   H75   S    
C49   H14   S    
C79   H87   S    
C36   C37   T    
C72   H70   S    
C21   H9    S    
C88   H108  S    
C11   N1    A    
C86   H103  S    
O19   C71   S    
C22   H10   S    
C12   N2    A    
C81   H90   S    
C31   O9    S    
C13   H7    S    
C4    C41   A    
C55   C56   S    
C29   C33   A    
C86   C87   S    
C1    O4    A    
C57   H33   S    
C79   H86   S    
C42   C46   A    
C23   C26   A    
C17   O23   S    
C19   C26   S    
Cu2   O8    S    
C77   H81   S    
C16   O22   S    
C62   H45   S    
C33   C35   S    
C61   H41   S    
C11   C15   A    
O20   C74   S    
C72   H69   S    
O16   C64   S    
C76   H79   S    
C49   C50   S    
C55   H28   S    
C84   C85   S    
C1    O1    A    
C58   H34   S    
C69   C70   S    
C43   O17   S    
C40   C44   A    
C18   C20   A    
C27   O5    A    
C60   H40   S    
C53   H22   S    
C76   H80   S    
C50   H16   S    
C3    C39   A    
C82   H92   S    
Cu1   O5    S    
C30   O12   S    
C70   H66   S    
C73   H72   S    
C58   H35   S    
C68   H61   S    
C18   O24   S    
C67   H59   S    
C32   O10   S    
C77   H82   S    
C52   H21   S    
C14   H8    S    
C74   C75   S    
C49   H13   S    
C30   C34   A    
C84   H97   S    
C71   C72   S    
C12   C16   A    
C72   C73   S    
C24   C25   A    
C67   H58   S    
C2    O3    A    
C66   C67   S    
C8    H4    S    
C54   H24   S    
C5    C7    A    
O24   C86   S    
C67   H57   S    
C62   H46   S    
C6    C8    A    
C80   H89   S    
C52   H20   S    
C54   H25   S    
C22   C25   A    
C59   H36   S    
C79   H85   S    
C77   C78   S    
C71   H68   S    
O21   C77   S    
C86   H102  S    
C4    C40   A    
C88   H106  S    
C82   H94   S    
C87   H105  S    
C56   H29   S    
C13   N1    A    
C83   C84   S    
C28   C38   S    
C16   C20   A    
C80   C81   S    
C14   N2    A    
C55   H27   S    
C35   C38   T    
C31   C34   A    
O12   C58   S    
O10   C52   S    
C57   H32   S    
Cu2   O2    S    
C75   C76   S    
C82   H93   S    
C12   H6    S    
Cu1   O1    S    
C9    C48   S    
C64   H52   S    
C61   H42   S    
C51   H18   S    
C56   H30   S    
C83   H96   S    
Cu1   Cu2   S    
C85   H100  S    
Cu1   O7    S    
C64   H50   S    
C58   C59   S    
C68   C69   S    
C28   O7    A    
C7    H3    S    
C17   C19   A    
C41   O15   S    
C63   H49   S    
C70   H64   S    
C11   H5    S    
C52   C53   S    
C87   C88   S    
C51   H19   S    
C60   H38   S    
C45   C48   A    
C7    C9    A    
C46   C47   A    
C24   H12   S    
Cu1   O3    S    
C81   C82   S    
C28   O6    A    
C69   H63   S    
C51   H17   S    
C78   C79   S    
C65   C66   S    
C63   H48   S    
C39   C43   A    
C2    O2    A    
C65   H54   S    
C85   H101  S    
C40   O14   S    
O17   C65   S    
C13   C17   A    
C88   H107  S    
C1    C4    S    
O22   C80   S    
C66   H56   S    
C53   H23   S    
Cu2   O6    S    
C5    C10   A    
C29   C31   A    
C39   O13   S    
O13   C61   S    
C32   C33   A    
C54   H26   S    
C30   C32   A    
C50   C51   S    
C87   H104  S    
C73   H71   S    
C53   C54   S    
C43   C47   A    
C27   C37   S    
C15   O21   S    
C44   O18   S    
C75   H77   S    
C2    C3    S    
C34   C36   S    
O18   C68   S    
C85   H99   S    
C57   H31   S    
C71   H67   S    
C59   H37   S    
C81   H91   S    
C78   H84   S    
C65   H53   S    
C76   H78   S    
C29   O11   S    
C46   O20   S    
C23   H11   S    
C56   C57   S    
C83   H95   S    
C73   H73   S    
C8    C10   A    
C80   H88   S    
C20   C25   S    
C21   C24   A    
C59   C60   S    
C10   C47   S    
C84   H98   S    
C64   H51   S    
C41   C45   A    
C22   C23   A    
C5    H1    S    
C42   O16   S    
C69   H62   S    
O23   C83   S    
C6    H2    S    
O14   C62   S    
C66   H55   S    
Cu2   O4    S    
C61   H43   S    
C27   O8    A    
O15   C63   S    
C60   H39   S    
C75   H76   S    
