data_mof_unit_64111.cif
_audit_creation_date              2012-12-10T18:53:53-0500
_audit_creation_method            fapswitch 2.2
_symmetry_space_group_name_H-M    P1
_symmetry_Int_Tables_number       1
_space_group_crystal_system       triclinic
_cell_length_a                    19.433019
_cell_length_b                    19.422726
_cell_length_c                    19.436114
_cell_angle_alpha                 84.848523
_cell_angle_beta                  95.167821
_cell_angle_gamma                 89.990554
_cell_volume                      7276.42683838

loop_
_atom_site_label
_atom_site_type_symbol
_atom_type_description
_atom_site_fract_x
_atom_site_fract_y
_atom_site_fract_z
_atom_type_partial_charge
C1    C     C_R   0.311602 0.492724 0.492366 0.525358
C2    C     C_2   0.488514 0.983890 0.478225 -0.136174
C3    C     C_2   0.520822 0.017339 0.529082 -0.139704
C4    C     C_R   0.688162 0.507004 0.508176 0.499237
C5    C     C_R   0.513725 0.236693 0.514339 0.040867
C6    C     C_R   0.763641 0.505371 0.514768 0.039146
C7    C     C_R   0.798112 0.448970 0.492889 -0.124881
C8    C     C_R   0.869693 0.446443 0.498350 -0.109123
C9    C     C_R   0.908060 0.501169 0.524409 0.041737
C10   C     C_R   0.873750 0.556418 0.548614 -0.117996
C11   C     C_R   0.801778 0.558549 0.543913 -0.123057
C12   C     C_R   0.485072 0.907805 0.481707 0.026206
C13   C     C_R   0.121932 0.540256 0.455890 0.117525
C14   C     C_R   0.194113 0.546069 0.459705 0.133436
C15   C     C_R   0.205219 0.427103 0.511536 -0.166639
C16   C     C_R   0.508362 0.492139 0.688973 0.505244
C17   C     C_R   0.133859 0.421372 0.507478 -0.147030
C18   C     C_R   0.092235 0.477693 0.480668 0.021113
C19   C     C_2   0.983667 0.502775 0.525396 -0.135798
C20   C     C_2   0.017635 0.470628 0.480438 -0.143302
C21   C     C_R   0.235984 0.489073 0.487929 0.045924
C22   C     C_R   0.493983 0.516729 0.235638 -0.004321
C23   C     C_R   0.478484 0.873735 0.420203 0.102493
C24   C     C_R   0.551757 0.492823 0.206493 -0.132847
C25   C     C_R   0.555843 0.501438 0.135154 0.082325
C26   C     C_R   0.500417 0.532834 0.091777 0.098141
C27   C     C_R   0.442946 0.558990 0.120742 0.081524
C28   C     C_R   0.492172 0.508426 0.311032 0.502731
C29   C     C_R   0.440297 0.550871 0.192873 -0.114772
C30   C     C_R   0.476121 0.434034 0.873192 0.074802
C31   C     C_R   0.474200 0.437644 0.801218 -0.079437
C32   C     C_R   0.552214 0.535026 0.801195 -0.131360
C33   C     C_R   0.554627 0.532263 0.873359 0.091233
C34   C     C_R   0.478930 0.801721 0.424537 -0.099240
C35   C     C_R   0.515492 0.482344 0.909596 0.071152
C36   C     C_2   0.501441 0.536637 0.016117 -0.055196
C37   C     C_2   0.515481 0.480148 0.985148 -0.085478
C38   C     C_R   0.511635 0.488301 0.764804 -0.015321
C39   C     C_R   0.508603 0.311903 0.508798 0.499229
C40   C     C_R   0.491163 0.688037 0.491911 0.529954
C41   C     C_R   0.486607 0.763094 0.489134 0.050479
C42   C     C_R   0.490303 0.796509 0.550430 0.084388
C43   C     C_R   0.488464 0.868466 0.546346 -0.122557
C44   C     C_R   0.536701 0.131146 0.463143 -0.113207
C45   C     C_R   0.533484 0.202918 0.458375 -0.126531
C46   C     C_R   0.499456 0.198177 0.575922 -0.122657
C47   C     C_R   0.504216 0.126418 0.581196 -0.115391
C48   C     C_R   0.521278 0.092754 0.524356 0.038699
H1    H     H_    0.991570 0.439528 0.442605 0.121056
H2    H     H_    0.485044 0.223556 0.619976 0.129829
H3    H     H_    0.475338 0.775825 0.377212 0.147028
H4    H     H_    0.464839 0.013752 0.432259 0.125125
H5    H     H_    0.489256 0.892982 0.594226 0.105006
H6    H     H_    0.452025 0.771028 0.642511 0.222562
H7    H     H_    0.539225 0.772037 0.645640 0.229126
H8    H     H_    0.492605 0.097075 0.628782 0.107867
H9    H     H_    0.769755 0.406349 0.472021 0.133232
H10   H     H_    0.207129 0.648978 0.464850 0.242126
H11   H     H_    0.208082 0.622316 0.384261 0.251086
H12   H     H_    0.902629 0.598672 0.569601 0.104037
H13   H     H_    0.236457 0.382684 0.532744 0.141321
H14   H     H_    0.050271 0.614475 0.463841 0.233303
H15   H     H_    0.046451 0.581670 0.385543 0.239170
H16   H     H_    0.012224 0.534865 0.561009 0.125239
H17   H     H_    0.545049 0.231913 0.410602 0.128057
H18   H     H_    0.443029 0.400738 0.773856 0.163391
H19   H     H_    0.361970 0.554343 0.048836 0.225357
H20   H     H_    0.350532 0.611838 0.106254 0.231632
H21   H     H_    0.401979 0.406272 0.936886 0.232998
H22   H     H_    0.469645 0.350202 0.942055 0.227838
H23   H     H_    0.776058 0.602193 0.561787 0.131641
H24   H     H_    0.486279 0.584635 0.985349 0.159177
H25   H     H_    0.659083 0.505886 0.129419 0.237406
H26   H     H_    0.624500 0.426836 0.121452 0.220684
H27   H     H_    0.582592 0.629566 0.891606 0.223785
H28   H     H_    0.648744 0.572184 0.897699 0.236349
H29   H     H_    0.544799 0.989945 0.576241 0.117972
H30   H     H_    0.516063 0.943071 0.349094 0.231740
H31   H     H_    0.428421 0.941341 0.347231 0.229709
H32   H     H_    0.551111 0.105583 0.419201 0.108787
H33   H     H_    0.894486 0.401449 0.482281 0.103564
H34   H     H_    0.110966 0.373205 0.526266 0.124675
H35   H     H_    0.594687 0.468340 0.239114 0.138902
H36   H     H_    0.582155 0.573868 0.773845 0.141399
H37   H     H_    0.523029 0.430559 0.015561 0.128591
H38   H     H_    0.395963 0.570205 0.215466 0.135212
N1    N     N_3   0.494385 0.757443 0.616858 -0.603857
N2    N     N_3   0.224804 0.610243 0.436608 -0.581445
N3    N     N_3   0.079829 0.597972 0.426032 -0.647445
N4    N     N_3   0.387017 0.592231 0.076577 -0.639709
N5    N     N_3   0.436148 0.381998 0.907986 -0.641831
N6    N     N_3   0.617076 0.479649 0.106909 -0.621766
N7    N     N_3   0.598040 0.579156 0.909900 -0.619178
N8    N     N_3   0.473226 0.910826 0.352773 -0.635677
O1    O     O_3   0.500000 0.500000 0.500000 -0.446989
O2    O     O_R   0.467830 0.341070 0.546160 -0.548727
O3    O     O_R   0.450560 0.655630 0.450550 -0.549904
O4    O     O_R   0.545840 0.347670 0.467560 -0.547481
O5    O     O_R   0.535760 0.655640 0.535740 -0.509563
O6    O     O_R   0.545870 0.536170 0.656040 -0.538934
O7    O     O_R   0.450550 0.545430 0.340370 -0.547071
O8    O     O_R   0.347960 0.451240 0.536460 -0.554428
O9    O     O_R   0.655630 0.467150 0.467130 -0.550301
O10   O     O_R   0.340780 0.536140 0.450970 -0.504961
O11   O     O_R   0.655640 0.545460 0.545430 -0.548839
O12   O     O_R   0.467850 0.451260 0.656340 -0.550080
O13   O     O_R   0.535740 0.467130 0.347260 -0.548696
Zn1   Zn    Zn3+2 0.558310 0.558310 0.558290 0.948693
Zn2   Zn    Zn3+2 0.446830 0.436990 0.558720 0.933412
Zn3   Zn    Zn3+2 0.558290 0.446420 0.446420 0.925013
Zn4   Zn    Zn3+2 0.436570 0.558290 0.436570 0.952860

loop_
_geom_bond_atom_site_label_1
_geom_bond_atom_site_label_2
_ccdc_geom_bond_type
C31   H18   S    
C4    O9    A    
C1    C21   S    
O4    Zn3   S    
C22   C29   A    
C27   C29   A    
C41   C42   A    
H22   N5    S    
C2    C12   S    
C40   O5    A    
C7    C8    A    
O5    Zn1   S    
C12   C23   A    
C34   H3    S    
C13   C18   A    
O9    Zn3   S    
C14   C21   A    
C37   H37   S    
C36   C37   D    
C35   C37   S    
C24   H35   S    
C12   C43   A    
C30   C31   A    
O3    Zn4   S    
C11   H23   S    
C28   O13   A    
H14   N3    S    
C3    C48   S    
C27   N4    S    
C17   H34   S    
H26   N6    S    
H11   N2    S    
C28   O7    A    
C43   H5    S    
C19   C20   D    
C8    C9    A    
H20   N4    S    
C32   C38   A    
C9    C10   A    
C16   O12   A    
C22   C28   S    
C13   C14   A    
C34   C41   A    
C9    C19   S    
C32   H36   S    
O11   Zn1   S    
O6    Zn1   S    
C8    H33   S    
C44   H32   S    
C24   C25   A    
H31   N8    S    
C4    C6    S    
O1    Zn2   S    
C40   O3    A    
C16   O6    A    
C39   O4    A    
C25   C26   A    
C5    C45   A    
H19   N4    S    
C33   N7    S    
C26   C27   A    
C10   H12   S    
C20   H1    S    
H28   N7    S    
C47   C48   A    
C19   H16   S    
C23   C34   A    
H15   N3    S    
C17   C18   A    
C15   H13   S    
C1    O10   A    
C29   H38   S    
C5    C46   A    
C2    H4    S    
O1    Zn1   S    
C30   C35   A    
C26   C36   S    
C40   C41   S    
C5    C39   S    
C45   H17   S    
O13   Zn3   S    
C22   C24   A    
C42   C43   A    
C3    H29   S    
C6    C11   A    
C44   C45   A    
H27   N7    S    
C4    O11   A    
C15   C17   A    
C46   C47   A    
C25   N6    S    
C13   N3    S    
H25   N6    S    
C30   N5    S    
O1    Zn3   S    
H10   N2    S    
O10   Zn4   S    
C31   C38   A    
C6    C7    A    
O7    Zn4   S    
O2    Zn2   S    
C46   H2    S    
C23   N8    S    
C32   C33   A    
C2    C3    D    
C14   N2    S    
O1    Zn4   S    
H6    N1    S    
H30   N8    S    
C33   C35   A    
C18   C20   S    
H7    N1    S    
C39   O2    A    
C10   C11   A    
C36   H24   S    
C15   C21   A    
O8    Zn2   S    
C42   N1    S    
H21   N5    S    
C1    O8    A    
C7    H9    S    
C44   C48   A    
C16   C38   S    
C47   H8    S    
O12   Zn2   S    
