data_mof_unit_55704.cif
_audit_creation_date              2012-10-26T19:06:29-0400
_audit_creation_method            fapswitch 2.2
_symmetry_space_group_name_H-M    P1
_symmetry_Int_Tables_number       1
_space_group_crystal_system       triclinic
_cell_length_a                    12.453598
_cell_length_b                    13.026814
_cell_length_c                    14.315934
_cell_angle_alpha                 76.263994
_cell_angle_beta                  101.263436
_cell_angle_gamma                 117.122974
_cell_volume                      1997.75452847

loop_
_atom_site_label
_atom_site_type_symbol
_atom_type_description
_atom_site_fract_x
_atom_site_fract_y
_atom_site_fract_z
_atom_type_partial_charge
C1    C     C_R   0.855204 0.285212 0.504113 0.630215
C2    C     C_R   0.437130 0.984724 0.474533 -0.001487
C3    C     C_R   0.398268 0.069875 0.416579 0.007374
C4    C     C_R   0.000730 0.499742 0.668758 0.585104
C5    C     C_R   0.488090 0.181484 0.379554 0.063938
C6    C     C_R   0.609745 0.201565 0.391715 0.208190
C7    C     C_R   0.349073 0.876715 0.517621 0.186384
C8    C     C_R   0.186804 0.929151 0.438355 0.010914
C9    C     C_R   0.773474 0.159009 0.497087 0.040851
C10   C     C_R   0.380304 0.420518 0.692179 0.018011
C11   C     C_R   0.754434 0.642970 0.367688 0.130044
C12   C     C_1   0.998838 0.501750 0.228441 0.072885
C13   C     C_R   0.670255 0.691605 0.348676 -0.034662
C14   C     C_R   0.577059 0.646266 0.407182 -0.032519
C15   C     C_R   0.563527 0.552380 0.482287 0.015603
C16   C     C_R   0.144773 0.715042 0.492813 0.574939
C17   C     C_R   0.660776 0.518086 0.510641 0.183083
C18   C     C_R   0.459941 0.499967 0.535699 -0.006518
C19   C     C_R   0.476136 0.456788 0.635059 -0.007384
C20   C     C_R   0.580967 0.437531 0.670931 0.042578
C21   C     C_R   0.656782 0.446506 0.604845 0.218361
C22   C     C_R   0.341341 0.489203 0.494316 0.363462
C23   C     C_R   0.271304 0.038860 0.396325 0.218381
C24   C     C_R   0.263456 0.393181 0.645903 0.345199
C25   C     C_R   0.000070 0.501430 0.331135 0.567957
C26   C     C_1   0.001894 0.499473 0.771413 0.047330
C27   C     C_1   0.001528 0.499647 0.856824 0.017278
C28   C     C_1   0.000469 0.500187 0.957273 0.054482
C29   C     C_1   0.999560 0.500776 0.042511 0.064055
C30   C     C_1   0.998828 0.501443 0.142993 0.045881
C31   C     C_2   0.060897 0.912062 0.441216 0.372690
C32   C     C_2   0.599978 0.382065 0.772672 0.357313
C33   C     C_2   0.400071 0.426410 0.796998 0.320337
C34   C     C_R   0.226283 0.842476 0.486104 0.008374
C35   C     C_2   0.838022 0.678400 0.294149 0.265318
C36   C     C_2   0.677684 0.789538 0.267091 0.256134
C37   C     C_2   0.464343 0.286020 0.341470 0.358548
C38   C     C_2   0.764854 0.854285 0.589245 0.299773
C39   C     C_R   0.813195 0.069147 0.535292 0.194344
C40   C     C_R   0.727755 0.950756 0.547064 0.025306
C41   C     C_R   0.604556 0.923369 0.522939 -0.048399
C42   C     C_R   0.562906 0.010767 0.488982 0.008225
C43   C     C_R   0.649481 0.125547 0.460042 0.014587
Cl1   Cl    Cl    0.308543 0.513457 0.367506 -0.495152
Cl2   Cl    Cl    0.697520 0.328607 0.637479 -0.544466
Cl3   Cl    Cl    0.211429 0.124701 0.306615 -0.497345
Cl4   Cl    Cl    0.382666 0.799168 0.630812 -0.519261
Cl5   Cl    Cl    0.968972 0.100737 0.562311 -0.471667
Cl6   Cl    Cl    0.704221 0.304811 0.303052 -0.624022
Cl7   Cl    Cl    0.138813 0.293722 0.711245 -0.473342
Cu1   Cu    Cu3+1 0.098280 0.475420 0.520190 1.183199
Cu2   Cu    Cu3+1 0.901720 0.524580 0.479810 1.099777
H1    H     H_    0.516603 0.687874 0.396101 0.196304
H2    H     H_    0.541685 0.832242 0.526069 0.202283
H3    H     H_    0.015948 0.951940 0.381881 0.191782
H4    H     H_    0.686745 0.421779 0.814459 0.132938
H5    H     H_    0.331851 0.365920 0.845003 0.178306
H6    H     H_    0.812197 0.627195 0.237020 0.131227
H7    H     H_    0.750679 0.828667 0.220951 0.157106
H8    H     H_    0.495943 0.340927 0.273456 0.164682
H9    H     H_    0.859298 0.871915 0.608451 0.216722
N1    N     N_R   0.246290 0.438200 0.550780 -0.202142
N2    N     N_R   0.754310 0.561180 0.449760 -0.228087
O1    O     O_R   0.972510 0.318130 0.525390 -0.403682
O2    O     O_2   0.523139 0.287783 0.807088 -0.424944
O3    O     O_2   0.490862 0.503622 0.829882 -0.453244
O4    O     O_2   0.932815 0.767099 0.293606 -0.525127
O5    O     O_2   0.602042 0.828497 0.250393 -0.450821
O6    O     O_2   0.415235 0.315402 0.389268 -0.421532
O7    O     O_2   0.689450 0.752850 0.605661 -0.515351
O8    O     O_R   0.806530 0.359650 0.491290 -0.428260
O9    O     O_R   0.083010 0.479240 0.641000 -0.449816
O10   O     O_R   0.917030 0.520750 0.606900 -0.464661
O11   O     O_R   0.193470 0.640350 0.508710 -0.474505
O12   O     O_R   0.027490 0.681870 0.474610 -0.446254
O13   O     O_R   0.082970 0.479250 0.393100 -0.431313
O14   O     O_R   0.916990 0.520760 0.359000 -0.487602
O15   O     O_2   0.008053 0.858080 0.513237 -0.484208

loop_
_geom_bond_atom_site_label_1
_geom_bond_atom_site_label_2
_ccdc_geom_bond_type
C15   C18   A    
C38   O7    D    
C5    C37   S    
C16   O12   A    
C41   C42   A    
C3    C23   A    
C2    C7    A    
Cu1   O11   S    
Cu2   O12   S    
C26   C27   T    
C1    O8    A    
C35   H6    S    
C16   O11   A    
C28   C29   T    
C37   O6    D    
C5    C6    A    
C9    C39   A    
C8    C23   A    
C18   C19   A    
C16   C34   S    
C22   Cl1   S    
C19   C20   A    
C24   N1    A    
C38   H9    S    
C36   H7    S    
C23   Cl3   S    
C13   C14   A    
Cu1   N1    S    
C33   O3    D    
C21   Cl2   S    
C24   Cl7   S    
C9    C43   A    
Cu1   Cu2   S    
C1    C9    S    
Cu1   O13   S    
C13   C36   S    
Cu2   O10   S    
C39   C40   A    
C10   C24   A    
C17   C21   A    
C7    Cl4   S    
C29   C30   S    
C22   N1    A    
C35   O4    D    
C10   C19   A    
C8    C34   A    
C4    O10   A    
C40   C41   A    
C6    C43   A    
C7    C34   A    
C25   O14   A    
Cu1   O9    S    
Cu2   O14   S    
C1    O1    A    
C4    O9    A    
C31   O15   D    
C20   C32   S    
C15   C17   A    
C33   H5    S    
C12   C30   T    
C18   C22   A    
C8    C31   S    
Cu1   O1    S    
C3    C5    A    
Cu2   N2    S    
C4    C26   S    
C36   O5    D    
C11   N2    A    
C12   C25   S    
C25   O13   A    
C11   C35   S    
C2    C3    A    
Cu2   O8    S    
C17   N2    A    
C38   C40   S    
C11   C13   A    
C2    C42   A    
C10   C33   S    
C6    Cl6   S    
C41   H2    S    
C37   H8    S    
C14   H1    S    
C20   C21   A    
C42   C43   A    
C27   C28   S    
C14   C15   A    
C39   Cl5   S    
C31   H3    S    
C32   H4    S    
C32   O2    D    
