data_mof_unit_59753.cif
_audit_creation_date              2013-03-05T16:31:36-0500
_audit_creation_method            fapswitch 2.2
_symmetry_space_group_name_H-M    P1
_symmetry_Int_Tables_number       1
_space_group_crystal_system       triclinic
_cell_length_a                    9.553036
_cell_length_b                    10.869149
_cell_length_c                    15.346788
_cell_angle_alpha                 89.532445
_cell_angle_beta                  74.644633
_cell_angle_gamma                 89.442111
_cell_volume                      1536.52504444

loop_
_atom_site_label
_atom_site_type_symbol
_atom_site_description
_atom_site_fract_x
_atom_site_fract_y
_atom_site_fract_z
_atom_type_partial_charge
O1    O     O_R   0.118810 0.319640 0.500000 -0.580174
O2    O     O_R   0.881230 0.319680 0.499990 -0.586042
C1    C     C_R   0.000594 0.262689 0.499607 0.862515
O3    O     O_R   0.055580 0.499970 0.629840 -0.520348
O4    O     O_R   0.818000 0.500010 0.629830 -0.590537
C2    C     C_R   0.918612 0.498149 0.672812 0.884631
Cu1   Cu    Cu3+1 0.140670 0.499980 0.500000 1.042109
Cu2   Cu    Cu3+1 0.859330 0.500020 0.500000 1.052282
O5    O     O_R   0.118770 0.680320 0.500010 -0.568799
O6    O     O_R   0.881190 0.680360 0.500000 -0.558583
O7    O     O_R   0.182000 0.499990 0.370170 -0.607382
O8    O     O_R   0.944420 0.500030 0.370160 -0.548066
C3    C     C_R   0.998341 0.737588 0.500956 0.836079
C4    C     C_R   0.081459 0.503320 0.327683 0.787607
C5    C     C_R   0.873137 0.485213 0.772383 -0.200347
C6    C     C_R   0.125722 0.518488 0.229229 -0.062385
C7    C     C_R   0.904508 0.395571 0.912088 0.256996
C8    C     C_R   0.965797 0.438613 0.823227 0.259374
C9    C     C_R   0.726966 0.507312 0.815671 -0.158351
C10   C     C_R   0.669374 0.484405 0.907999 0.061372
C11   C     C_R   0.754417 0.413722 0.952731 -0.086547
C12   C     C_R   0.524629 0.519223 0.954256 -0.044637
C13   C     C_R   0.457343 0.459485 0.037878 -0.069805
C14   C     C_R   0.535502 0.364371 0.069717 0.316329
C15   C     C_R   0.684930 0.352271 0.032538 -0.077645
C16   C     C_R   0.445282 0.612325 0.920658 0.313765
C17   C     C_R   0.298282 0.631055 0.962254 -0.181270
C18   C     C_R   0.234995 0.580020 0.046615 0.076964
C19   C     C_R   0.316800 0.500080 0.087774 0.130160
C20   C     C_R   0.095918 0.619776 0.094526 -0.075988
C21   C     C_R   0.041740 0.589024 0.185322 -0.076984
C22   C     C_R   0.261891 0.475044 0.180665 -0.138189
H1    H     H_    0.743581 0.284122 0.061116 0.232976
H2    H     H_    0.939549 0.628556 0.222741 0.156047
H3    H     H_    0.238296 0.699163 0.934336 0.207580
H4    H     H_    0.032543 0.680598 0.063245 0.160177
C23   C     C_R   0.127409 0.060880 0.486180 -0.013310
C24   C     C_R   0.001240 0.130083 0.494845 -0.076658
C25   C     C_R   0.872584 0.067967 0.495680 -0.192221
C26   C     C_R   0.867229 0.939520 0.499271 0.341036
C27   C     C_R   0.995944 0.870962 0.497195 -0.146062
C28   C     C_R   0.125761 0.935164 0.484368 -0.105465
C29   C     C_3   0.256107 0.923382 0.521177 0.133387
C30   C     C_3   0.257078 0.064957 0.524147 0.095675
H5    H     H_    0.353069 0.107340 0.476418 0.117936
C31   C     C_R   0.594333 0.582274 0.448204 0.252067
N1    N     N_R   0.648210 0.500930 0.499430 -0.185962
C32   C     C_R   0.551284 0.424827 0.556235 0.020984
C33   C     C_R   0.402679 0.424185 0.555691 0.038761
N2    N     N_R   0.352300 0.500890 0.499430 -0.195428
C34   C     C_R   0.446156 0.586015 0.450991 0.247383
C35   C     C_3   0.477323 0.609726 0.351909 -0.527014
C36   C     C_3   0.637456 0.597011 0.347117 0.069023
H6    H     H_    0.438335 0.536309 0.314803 0.239232
H7    H     H_    0.445376 0.704561 0.336930 0.184814
H8    H     H_    0.701679 0.681370 0.323688 0.124507
H9    H     H_    0.772769 0.118593 0.499744 0.201858
N3    N     N_R   0.728381 0.882765 0.511938 0.125357
O9    O     O_R   0.667037 0.830244 0.588909 -0.246616
O10   O     O_R   0.650234 0.908434 0.456353 -0.398186
N4    N     N_R   0.225001 0.862053 0.609745 0.202372
O11   O     O_R   0.317768 0.782659 0.626001 -0.238688
O12   O     O_R   0.102425 0.879750 0.670418 -0.250369
H10   H     H_    0.352070 0.883829 0.471290 0.124994
N5    N     N_R   0.228633 0.114203 0.615972 0.177962
O13   O     O_R   0.333549 0.115661 0.655367 -0.262388
O14   O     O_R   0.100244 0.152995 0.660036 -0.295865
H11   H     H_    0.588830 0.362137 0.600451 0.155800
H12   H     H_    0.328957 0.361024 0.599161 0.199016
H13   H     H_    0.327814 0.429172 0.218246 0.174398
N6    N     N_R   0.698465 0.486074 0.296464 0.154555
O15   O     O_R   0.728117 0.489061 0.208745 -0.348956
O16   O     O_R   0.697627 0.379974 0.336597 -0.301104
N7    N     N_R   0.994093 0.333116 0.960460 0.140717
O17   O     O_R   0.046992 0.224758 0.934380 -0.225603
O18   O     O_R   0.999776 0.372937 0.039102 -0.313805
N8    N     N_R   0.120370 0.436954 0.786149 0.130030
O19   O     O_R   0.193608 0.334448 0.779225 -0.251959
O20   O     O_R   0.189640 0.540097 0.765498 -0.300839
H14   H     H_    0.655697 0.536519 0.775286 0.210428
N9    N     N_R   0.463677 0.270062 0.131274 0.106781
O21   O     O_R   0.526143 0.221402 0.189263 -0.307446
O22   O     O_R   0.344478 0.221726 0.121740 -0.289041
N10   N     N_R   0.514959 0.701160 0.853654 0.116610
O23   O     O_R   0.630295 0.757732 0.861735 -0.291605
O24   O     O_R   0.450728 0.740234 0.793615 -0.225978

loop_
_geom_bond_atom_site_label_1
_geom_bond_atom_site_label_2
_geom_bond_distance
_ccdc_geom_bond_type
C5    C8    1.414066 A    
C27   C28   1.396059 A    
C9    C10   1.398739 A    
C14   N9    1.438273 S    
C3    C27   1.450543 S    
N9    O21   1.302017 A    
Cu1   Cu2   2.687646 S    
N8    O19   1.299818 A    
C30   H5    1.112043 S    
C6    C21   1.396921 A    
Cu1   O7    1.925930 S    
C16   C17   1.393837 A    
N7    O18   1.300218 A    
O4    C2    1.301743 A    
C13   C19   1.425881 A    
C18   C19   1.415596 A    
N10   O24   1.301470 A    
C19   C22   1.407804 A    
C20   C21   1.391061 A    
O7    C4    1.295983 A    
N3    O10   1.300847 A    
C25   H9    1.083860 S    
C23   C28   1.367272 A    
N4    O12   1.302414 A    
O5    C3    1.299452 A    
C2    C5    1.479754 S    
C1    C24   1.443623 S    
N5    O14   1.301808 A    
C13   C14   1.426522 A    
C35   H7    1.111595 S    
C33   H12   1.079558 S    
C30   N5    1.467285 S    
C9    H14   1.079117 S    
O3    Cu1   1.942545 S    
N9    O22   1.302014 A    
C35   H6    1.106935 S    
C29   H10   1.112373 S    
N2    C34   1.365469 A    
N8    O20   1.301049 A    
C26   N3    1.433574 S    
N7    O17   1.300643 A    
C34   C35   1.490842 S    
C14   C15   1.395274 A    
O3    C2    1.300256 A    
C25   C26   1.397645 A    
N6    O16   1.302031 A    
C22   H13   1.076747 S    
C17   H3    1.084695 S    
N3    O9    1.301368 A    
C31   C34   1.405020 A    
C32   H11   1.081665 S    
O1    C1    1.294549 A    
C5    C9    1.397737 A    
C29   C30   1.540029 S    
C23   C24   1.391145 A    
N1    C32   1.370114 A    
Cu2   O8    1.942545 S    
C7    C8    1.411896 A    
C21   H2    1.079994 S    
N10   O23   1.301634 A    
C26   C27   1.424798 A    
C10   C12   1.426011 A    
N5    O13   1.300645 A    
C7    N7    1.435709 S    
C4    C6    1.465570 S    
C28   C29   1.501421 S    
C36   N6    1.469550 S    
C35   C36   1.516952 S    
C29   N4    1.468099 S    
C36   H8    1.111374 S    
Cu1   O5    1.969246 S    
C11   C15   1.396970 A    
C31   N1    1.363348 A    
C32   C33   1.421943 A    
C16   N10   1.437554 S    
O1    Cu1   1.973256 S    
O2    Cu2   1.969245 S    
Cu1   N2    2.019531 S    
O8    C4    1.299479 A    
O6    C3    1.289191 A    
O4    Cu2   1.925927 S    
C6    C22   1.396748 A    
C20   H4    1.083970 S    
C23   C30   1.503229 S    
C18   C20   1.403269 A    
O2    C1    1.291034 A    
Cu2   N1    2.019100 S    
N6    O15   1.300417 A    
C24   C25   1.405081 A    
C8    N8    1.434996 S    
C31   C36   1.503609 S    
N4    O11   1.300370 A    
C7    C11   1.416570 A    
C10   C11   1.412846 A    
Cu2   O6    1.973256 S    
C33   N2    1.368481 A    
C12   C16   1.431090 A    
C17   C18   1.389132 A    
C12   C13   1.428049 A    
C15   H1    1.082458 S    
