data_mof_unit_68044.cif
_audit_creation_date              2013-03-05T15:43:42-0500
_audit_creation_method            fapswitch 2.2
_symmetry_space_group_name_H-M    P1
_symmetry_Int_Tables_number       1
_space_group_crystal_system       triclinic
_cell_length_a                    14.919048
_cell_length_b                    16.386912
_cell_length_c                    7.095413
_cell_angle_alpha                 90.480047
_cell_angle_beta                  78.1165
_cell_angle_gamma                 90.044975
_cell_volume                      1697.4290215

loop_
_atom_site_label
_atom_site_type_symbol
_atom_site_description
_atom_site_fract_x
_atom_site_fract_y
_atom_site_fract_z
_atom_type_partial_charge
O1    O     O_R   0.337080 0.165770 0.524980 -0.560197
O2    O     O_R   0.662920 0.834230 0.475020 -0.555418
O3    O     O_R   0.662920 0.665770 0.475020 -0.571723
O4    O     O_R   0.337080 0.334230 0.524980 -0.573944
O5    O     O_R   0.348340 0.341430 0.191390 -0.553767
O6    O     O_R   0.651660 0.658570 0.808610 -0.558160
O7    O     O_R   0.651660 0.841430 0.808610 -0.559495
O8    O     O_R   0.348340 0.158570 0.191390 -0.564925
O9    O     O_R   0.165780 0.339950 0.082750 -0.511092
O10   O     O_R   0.834220 0.660050 0.917250 -0.508474
O11   O     O_R   0.834220 0.839950 0.917250 -0.516297
O12   O     O_R   0.165780 0.160050 0.082750 -0.506858
C1    C     C_R   0.368590 0.363392 0.354133 0.836643
C2    C     C_R   0.631792 0.636089 0.645609 0.835129
C3    C     C_R   0.631599 0.863835 0.646589 0.848427
C4    C     C_R   0.368838 0.136413 0.353205 0.830668
O13   O     O_3   0.191540 0.250000 0.407620 -0.233863
O14   O     O_3   0.808460 0.750000 0.592380 -0.242818
V1    V     V_3+5 0.262540 0.250000 0.108780 1.257329
V2    V     V_3+5 0.737460 0.750000 0.891220 1.269312
O15   O     O_R   0.154530 0.164290 0.756910 -0.540887
O16   O     O_R   0.845470 0.835710 0.243090 -0.545667
O17   O     O_R   0.845470 0.664290 0.243090 -0.543570
O18   O     O_R   0.154530 0.335710 0.756910 -0.550913
C5    C     C_R   0.135901 0.131308 0.933409 0.937118
C6    C     C_R   0.869913 0.865271 0.063900 0.887150
C7    C     C_R   0.863282 0.630575 0.066485 0.939510
C8    C     C_R   0.125641 0.361189 0.939360 0.880878
V3    V     V_3+5 0.240320 0.250000 0.616280 1.217635
V4    V     V_3+5 0.759680 0.750000 0.383720 1.225532
O19   O     O_3   0.311330 0.250000 0.867310 -0.291021
O20   O     O_3   0.688670 0.750000 0.132690 -0.283561
C9    C     C_3   0.058172 0.511636 0.071742 0.361464
C10   C     C_3   0.912903 0.470171 0.937246 0.419338
C11   C     C_3   0.934741 0.020938 0.936260 0.368152
C12   C     C_3   0.079212 0.973615 0.066211 0.422332
C13   C     C_3   0.025796 0.554588 0.906141 0.014134
C14   C     C_3   0.943670 0.425601 0.103536 0.107162
C15   C     C_3   0.971238 0.063050 0.100627 0.013703
C16   C     C_3   0.045195 0.930331 0.901410 0.097343
C17   C     C_3   0.926962 0.554068 0.027925 -0.186795
C18   C     C_3   0.045898 0.426527 0.982406 -0.218480
C19   C     C_3   0.069155 0.057413 0.974818 -0.188414
C20   C     C_3   0.944127 0.935009 0.023857 -0.237337
C21   C     C_3   0.958595 0.510297 0.193764 0.121734
C22   C     C_3   0.011835 0.470182 0.815906 0.079118
C23   C     C_3   0.033638 0.014987 0.811544 0.123410
C24   C     C_3   0.980695 0.978016 0.189840 0.083888
C25   C     C_2   0.569623 0.335438 0.424816 0.376464
C26   C     C_2   0.488336 0.543949 0.451383 0.300870
C27   C     C_2   0.424028 0.830936 0.541479 0.361744
C28   C     C_2   0.510683 0.028373 0.561606 0.301829
C29   C     C_2   0.551844 0.408616 0.509047 0.089089
C30   C     C_2   0.550493 0.485446 0.397844 0.142933
C31   C     C_2   0.437637 0.905155 0.465657 0.106724
C32   C     C_2   0.438795 0.978888 0.588076 0.145819
O21   O     O_3   0.427904 0.540261 0.624573 -0.651451
C33   C     C_3   0.339691 0.551918 0.592583 0.217233
H1    H     H_    0.328080 0.517710 0.463408 0.013816
H2    H     H_    0.325739 0.617912 0.578356 0.065344
C34   C     C_3   0.274072 0.518375 0.764711 -0.205460
H3    H     H_    0.282345 0.552507 0.894927 0.143646
H4    H     H_    0.203470 0.524259 0.742902 0.097083
H5    H     H_    0.288867 0.453051 0.784209 0.163696
O22   O     O_3   0.585022 0.323099 0.228230 -0.619620
C35   C     C_3   0.594228 0.238174 0.194684 0.278966
H6    H     H_    0.551994 0.201045 0.311648 -0.022191
H7    H     H_    0.667487 0.221211 0.178228 0.081206
C36   C     C_3   0.562084 0.214807 0.011390 -0.326795
H8    H     H_    0.606686 0.241986 0.883574 0.107320
H9    H     H_    0.563538 0.147391 0.993340 0.080694
H10   H     H_    0.491021 0.236349 0.019803 0.180379
O23   O     O_3   0.583092 0.014373 0.411871 -0.641378
C37   C     C_3   0.656505 0.061599 0.441916 0.225121
H11   H     H_    0.686818 0.032802 0.555571 0.066704
H12   H     H_    0.636760 0.125861 0.484143 0.009993
C38   C     C_3   0.726345 0.061930 0.254786 -0.229455
H13   H     H_    0.692655 0.074635 0.132443 0.143313
H14   H     H_    0.776981 0.110128 0.260737 0.099043
H15   H     H_    0.760541 0.001641 0.230791 0.148967
O24   O     O_3   0.401303 0.818413 0.737361 -0.614440
C39   C     C_3   0.437169 0.741856 0.772321 0.311283
H16   H     H_    0.507566 0.750409 0.795341 0.043136
H17   H     H_    0.439355 0.696939 0.652952 0.011040
C40   C     C_3   0.381176 0.705257 0.953958 -0.315488
H18   H     H_    0.307771 0.704771 0.945576 0.130665
H19   H     H_    0.404999 0.641911 0.968774 0.105833
H20   H     H_    0.390605 0.740597 0.082292 0.114188
I1    I     I_    0.646534 0.510726 0.146181 -0.323538
I2    I     I_    0.503768 0.403803 0.811720 -0.448445
I3    I     I_    0.333632 0.006676 0.823208 -0.316154
I4    I     I_    0.484776 0.909705 0.162718 -0.444520
I5    I     I_    0.062995 0.654782 0.728801 -0.468117
I6    I     I_    0.839331 0.348513 0.258505 -0.477544
I7    I     I_    0.953362 0.168011 0.279967 -0.450296
I8    I     I_    0.141742 0.849032 0.737429 -0.426636
O25   O     O_3   0.138022 0.529516 0.138197 -0.618393
C41   C     C_3   0.139414 0.612284 0.189498 0.269634
H21   H     H_    0.073099 0.633014 0.279715 0.117990
H22   H     H_    0.157012 0.650849 0.059510 0.069981
C42   C     C_3   0.212972 0.621850 0.304755 -0.328168
H23   H     H_    0.280890 0.605330 0.217573 0.094756
H24   H     H_    0.213618 0.684423 0.360904 0.104726
H25   H     H_    0.197446 0.579753 0.427274 0.177485
O26   O     O_3   0.830622 0.456244 0.876168 -0.578323
C43   C     C_3   0.830251 0.380811 0.780393 0.317202
H26   H     H_    0.846901 0.328575 0.864903 0.047963
H27   H     H_    0.879775 0.380392 0.641615 0.133960
C44   C     C_3   0.734311 0.370249 0.744734 -0.258505
H28   H     H_    0.713965 0.426042 0.676176 0.184803
H29   H     H_    0.727641 0.318061 0.649746 0.070246
H30   H     H_    0.687304 0.361189 0.885073 0.202167
O27   O     O_3   0.856526 0.046993 0.872499 -0.613444
C45   C     C_3   0.865288 0.130664 0.828177 0.270736
H31   H     H_    0.934531 0.146392 0.743292 0.108673
H32   H     H_    0.850554 0.168496 0.961253 0.074555
C46   C     C_3   0.796386 0.152192 0.709142 -0.318265
H33   H     H_    0.725934 0.147722 0.795877 0.084811
H34   H     H_    0.811179 0.213952 0.651946 0.105337
H35   H     H_    0.804425 0.109883 0.585734 0.176477
O28   O     O_3   0.160709 0.954899 0.125177 -0.577185
C47   C     C_3   0.155883 0.878813 0.216751 0.320908
H36   H     H_    0.137956 0.828005 0.127718 0.056787
H37   H     H_    0.104448 0.879587 0.353373 0.126669
C48   C     C_3   0.250185 0.863249 0.255844 -0.258081
H38   H     H_    0.271487 0.916138 0.334931 0.181893
H39   H     H_    0.251944 0.808493 0.343184 0.074346
H40   H     H_    0.298831 0.855828 0.116358 0.192827
I9    I     I_    0.887211 0.544271 0.483360 -0.291334
I10   I     I_    0.071363 0.433190 0.522192 -0.339919
I11   I     I_    0.107220 0.042595 0.521536 -0.286604
I12   I     I_    0.908655 0.951621 0.480875 -0.352757

loop_
_geom_bond_atom_site_label_1
_geom_bond_atom_site_label_2
_geom_bond_distance
_ccdc_geom_bond_type
O10   C7    1.319279 A    
C16   C23   1.556032 S    
C35   H7    1.110316 S    
C31   C32   1.484319 S    
C21   I9    2.178728 S    
C42   H23   1.105505 S    
C36   H10   1.107405 S    
C9    C21   1.558081 S    
O23   C37   1.391396 S    
V1    O19   1.718054 S    
C5    C19   1.558141 S    
O25   C41   1.402608 S    
C6    C20   1.576853 S    
C27   C31   1.332468 D    
C38   H13   1.110145 S    
C26   C30   1.331741 D    
C25   O22   1.379375 S    
C9    C18   1.553403 S    
C14   C18   1.589127 S    
C46   H34   1.098766 S    
C38   H15   1.107935 S    
C35   C36   1.521928 S    
C43   H26   1.106452 S    
C33   H2    1.110806 S    
C41   H21   1.113567 S    
O13   V3    1.779137 S    
C36   H9    1.110792 S    
C18   C22   1.558097 S    
O4    C1    1.301352 A    
C34   H4    1.100115 S    
O18   V3    2.014908 S    
C14   C21   1.558539 S    
O9    V1    2.099617 S    
C32   I3    2.088701 S    
O10   V2    2.099619 S    
C37   C38   1.509631 S    
C48   H40   1.106043 S    
C11   O27   1.403584 S    
C10   C22   1.548028 S    
O17   C7    1.340740 A    
C27   O24   1.378177 S    
O14   V2    2.166349 S    
O4    V3    2.008832 S    
C33   C34   1.506690 S    
O7    C3    1.301887 A    
C35   H6    1.117337 S    
C11   C23   1.559036 S    
C42   H24   1.097698 S    
C26   O21   1.368016 S    
C34   H3    1.104509 S    
C10   C17   1.545438 S    
C16   I8    2.119003 S    
C45   H31   1.114575 S    
C38   H14   1.099056 S    
O11   V2    2.095851 S    
O8    V1    2.133921 S    
C37   H11   1.111065 S    
C40   H19   1.110285 S    
O17   V4    2.014909 S    
C12   C16   1.535556 S    
C30   I1    2.090680 S    
C28   O23   1.368209 S    
C44   H30   1.104592 S    
C15   C19   1.549570 S    
O11   C6    1.326305 A    
C33   H1    1.113971 S    
C40   H18   1.108925 S    
O15   V3    2.025138 S    
O24   C39   1.408055 S    
C23   I11   2.174522 S    
O3    V4    2.008833 S    
C11   C15   1.542824 S    
C31   I4    2.121420 S    
O2    C3    1.300708 A    
O6    C2    1.301951 A    
C7    C17   1.561507 S    
C14   I6    2.131475 S    
O1    V3    2.002923 S    
C13   I5    2.081498 S    
O1    C4    1.301585 A    
C11   C20   1.561900 S    
C15   I7    2.114948 S    
O28   C47   1.405732 S    
O3    C2    1.302036 A    
C37   H12   1.115494 S    
O14   V4    1.779137 S    
O7    V2    2.133920 S    
C42   H25   1.100973 S    
C39   H17   1.112843 S    
C48   H38   1.109907 S    
C46   H35   1.099322 S    
C47   H37   1.105513 S    
C41   C42   1.504945 S    
O27   C45   1.409231 S    
V2    O20   1.718054 S    
C40   H20   1.108200 S    
O15   C5    1.343669 A    
O16   V4    2.025136 S    
C10   C14   1.540867 S    
C10   O26   1.401347 S    
O5    C1    1.300275 A    
O18   C8    1.340673 A    
C22   I10   2.171807 S    
C45   H32   1.108672 S    
C29   C30   1.493757 S    
O5    V1    2.125597 S    
C39   C40   1.512369 S    
O6    V2    2.125597 S    
O26   C43   1.406168 S    
C41   H22   1.108489 S    
O12   C5    1.314996 A    
O2    V4    2.002922 S    
C47   C48   1.511232 S    
C44   H29   1.101522 S    
C12   O28   1.399880 S    
C47   H36   1.106456 S    
V3    O19   2.252112 S    
C46   H33   1.105942 S    
C34   H5    1.108682 S    
V4    O20   2.252112 S    
O21   C33   1.394318 S    
C43   H27   1.102647 S    
C25   C29   1.337431 D    
O12   V1    2.095852 S    
C8    C18   1.581725 S    
O13   V1    2.166349 S    
C12   C24   1.550172 S    
C9    O25   1.398510 S    
O22   C35   1.411927 S    
C13   C17   1.547995 S    
C36   H8    1.105165 S    
C9    C13   1.535411 S    
C45   C46   1.502536 S    
C20   C24   1.559307 S    
C16   C20   1.579187 S    
O8    C4    1.302062 A    
C39   H16   1.104265 S    
O16   C6    1.342854 A    
C29   I2    2.121600 S    
C48   H39   1.098137 S    
C17   C21   1.537921 S    
C24   I12   2.169490 S    
C12   C19   1.544017 S    
C13   C22   1.551149 S    
C44   H28   1.110569 S    
C19   C23   1.531335 S    
C28   C32   1.327151 D    
O9    C8    1.331185 A    
C15   C24   1.553758 S    
C43   C44   1.513515 S    
