data_mof_unit_63339.cif
_audit_creation_date              2012-12-10T18:59:14-0500
_audit_creation_method            fapswitch 2.2
_symmetry_space_group_name_H-M    P1
_symmetry_Int_Tables_number       1
_space_group_crystal_system       triclinic
_cell_length_a                    43.950302
_cell_length_b                    30.27997
_cell_length_c                    30.286602
_cell_angle_alpha                 90.000172
_cell_angle_beta                  133.509481
_cell_angle_gamma                 89.998386
_cell_volume                      29232.2236665

loop_
_atom_site_label
_atom_site_type_symbol
_atom_type_description
_atom_site_fract_x
_atom_site_fract_y
_atom_site_fract_z
_atom_type_partial_charge
C1    C     C_R   0.499955 0.999989 0.586285 0.865830
C2    C     C_3   0.724855 0.999737 0.772854 -0.474300
C3    C     C_R   0.495976 0.296940 0.035877 -0.153193
C4    C     C_R   0.003893 0.842697 0.963940 -0.187866
C5    C     C_R   0.996022 0.842709 0.035990 -0.189716
C6    C     C_R   0.503963 0.342704 0.964005 -0.186863
C7    C     C_R   0.496032 0.342704 0.035988 -0.186887
C8    C     C_R   0.999967 0.865811 0.999972 -0.033493
C9    C     C_R   0.499998 0.365812 0.999998 -0.033368
C10   C     C_R   0.999958 0.774274 0.999976 0.121673
C11   C     C_R   0.499995 0.274274 0.999994 0.121780
C12   C     C_R   0.461887 0.203349 0.966475 0.014825
C13   C     C_3   0.775005 0.481253 0.231665 -0.485164
C14   C     C_R   0.538106 0.203348 0.033515 0.014775
C15   C     C_R   0.961856 0.703342 0.966371 0.014954
C16   C     C_R   0.038095 0.703358 0.033630 0.014288
C17   C     C_R   0.462110 0.157498 0.966594 -0.234433
C18   C     C_R   0.537884 0.157497 0.033400 -0.234349
C19   C     C_R   0.962089 0.657491 0.966495 -0.233747
C20   C     C_R   0.037883 0.657506 0.033514 -0.233501
C21   C     C_R   0.499998 0.134493 0.999997 -0.070585
C22   C     C_R   0.999991 0.634494 0.000004 -0.070789
C23   C     C_3   0.274530 0.016714 0.320002 -0.397640
C24   C     C_3   0.224994 0.481462 0.768426 -0.485146
C25   C     C_3   0.725728 0.042309 0.702560 -0.405951
C26   C     C_3   0.774727 0.548250 0.280225 -0.393508
C27   C     C_3   0.225270 0.548220 0.719534 -0.393502
C28   C     C_R   0.499996 0.226355 0.999995 -0.012230
C29   C     C_R   0.999970 0.726355 0.999996 -0.012391
C30   C     C_R   0.029469 0.202854 0.004004 -0.248290
C31   C     C_R   0.970549 0.202878 0.995980 -0.247877
C32   C     C_R   0.525715 0.703178 0.996141 -0.249899
C33   C     C_R   0.474285 0.703180 0.003857 -0.249892
C34   C     C_R   0.030074 0.156914 0.004803 0.172471
C35   C     C_1   0.162908 0.000181 0.162838 -0.056847
C36   C     C_R   0.969946 0.156939 0.995226 0.171120
C37   C     C_R   0.526305 0.657259 0.996731 0.175068
C38   C     C_R   0.473693 0.657262 0.003264 0.175042
C39   C     C_R   0.000001 0.133966 0.000004 -0.096428
C40   C     C_R   0.500000 0.634184 0.999999 -0.102192
C41   C     C_R   0.000005 0.225738 0.999973 0.045914
C42   C     C_R   0.500001 0.725975 0.000001 0.045606
C43   C     C_R   0.461925 0.796798 0.960088 -0.177859
C44   C     C_R   0.538078 0.796795 0.039915 -0.177791
C45   C     C_R   0.962334 0.296730 0.956259 -0.177619
C46   C     C_1   0.837092 0.999729 0.837756 -0.054588
C47   C     C_R   0.037679 0.296727 0.043677 -0.177385
C48   C     C_R   0.461906 0.842539 0.959997 -0.200242
C49   C     C_R   0.538097 0.842537 0.040006 -0.200173
C50   C     C_R   0.962314 0.342493 0.956265 -0.200224
C51   C     C_R   0.037696 0.342490 0.043693 -0.200294
C52   C     C_R   0.500001 0.865593 0.000001 -0.036211
C53   C     C_R   0.000003 0.365555 0.999986 -0.034567
C54   C     C_R   0.500001 0.773896 0.000001 0.150427
C55   C     C_R   0.000007 0.273760 0.999965 0.150447
C56   C     C_3   0.226027 0.012434 0.272954 0.043497
C57   C     C_1   0.662954 0.500232 0.163088 -0.055912
C58   C     C_3   0.774773 0.042143 0.752027 0.049631
C59   C     C_3   0.726180 0.547847 0.235699 0.042976
C60   C     C_3   0.273819 0.547801 0.764090 0.042979
C61   C     C_1   0.125432 0.000148 0.125383 -0.182479
C62   C     C_1   0.874577 0.999939 0.874723 -0.198857
C63   C     C_1   0.625465 0.500199 0.125478 -0.182279
C64   C     C_1   0.374535 0.500196 0.874524 -0.182261
C65   C     C_3   0.291175 0.999755 0.291481 0.216765
C66   C     C_3   0.708854 0.000004 0.708522 0.219997
C67   C     C_3   0.791237 0.500187 0.292201 0.217119
C68   C     C_1   0.337046 0.500228 0.836916 -0.055952
C69   C     C_3   0.208763 0.500180 0.707797 0.217131
C70   C     C_3   0.225014 0.952784 0.215108 -0.505824
C71   C     C_3   0.774940 0.959266 0.749765 -0.509813
C72   C     C_3   0.724941 0.470868 0.263800 -0.506054
C73   C     C_3   0.275063 0.470689 0.736340 -0.506001
C74   C     C_3   0.208634 0.000185 0.208566 0.222864
C75   C     C_3   0.791336 0.999746 0.792497 0.235734
C76   C     C_3   0.708698 0.500178 0.208978 0.222129
C77   C     C_3   0.291301 0.500174 0.791027 0.222089
C78   C     C_3   0.448718 0.908847 0.827681 -0.752737
C79   C     C_1   0.336977 0.000059 0.337083 -0.072698
C80   C     C_3   0.551340 0.908872 0.172376 -0.752390
C81   C     C_3   0.948550 0.408923 0.827471 -0.755905
C82   C     C_3   0.051508 0.408954 0.172590 -0.755795
C83   C     C_1   0.289666 0.919360 0.311986 0.173346
C84   C     C_1   0.709264 0.953003 0.639993 0.170386
C85   C     C_1   0.789803 0.484656 0.372654 0.166179
C86   C     C_1   0.210192 0.484240 0.627416 0.166251
C87   C     C_1   0.568943 0.041671 0.844818 0.150127
C88   C     C_1   0.431041 0.041615 0.155177 0.149224
C89   C     C_1   0.068974 0.541581 0.844835 0.149326
C90   C     C_1   0.663027 0.000151 0.662876 -0.073506
C91   C     C_1   0.930991 0.541526 0.155131 0.149132
C92   C     C_1   0.422266 0.226167 0.931250 0.154213
C93   C     C_1   0.577726 0.226165 0.068739 0.154316
C94   C     C_1   0.922222 0.726152 0.931037 0.154618
C95   C     C_1   0.077720 0.726185 0.068964 0.155555
C96   C     C_3   0.097088 0.119951 0.072627 -0.793889
C97   C     C_3   0.902905 0.120015 0.927592 -0.783553
C98   C     C_3   0.592592 0.620103 0.053396 -0.781329
C99   C     C_3   0.407407 0.620104 0.946588 -0.781175
C100  C     C_3   0.206128 0.093729 0.256874 -0.796976
C101  C     C_1   0.837020 0.500084 0.337533 -0.072173
C102  C     C_3   0.773381 0.112366 0.797800 -0.808682
C103  C     C_3   0.707469 0.586430 0.145008 -0.798609
C104  C     C_3   0.292466 0.586714 0.854561 -0.798515
C105  C     C_3   0.207163 0.056944 0.095847 -0.809859
C106  C     C_3   0.827106 0.959471 0.923196 -0.766343
C107  C     C_3   0.707740 0.423715 0.109200 -0.804621
C108  C     C_3   0.292255 0.424150 0.891136 -0.804695
C109  C     C_R   0.500049 0.999989 0.413720 0.867022
C110  C     C_1   0.162980 0.500078 0.662464 -0.072184
C111  C     C_1   0.374486 0.000069 0.374511 -0.177836
C112  C     C_1   0.625517 0.000087 0.625459 -0.177214
C113  C     C_1   0.874517 0.500024 0.374744 -0.177719
C114  C     C_1   0.125483 0.500020 0.625254 -0.177714
C115  C     C_R   0.499004 0.039916 0.702289 -0.154655
C116  C     C_R   0.497680 0.959755 0.294552 -0.173047
C117  C     C_R   0.002328 0.459765 0.705458 -0.173782
C118  C     C_R   0.997715 0.459761 0.294586 -0.173773
C119  C     C_R   0.498552 0.040022 0.656080 -0.192093
C120  C     C_R   0.999949 0.499989 0.586279 0.867452
C121  C     C_R   0.498192 0.959780 0.340811 -0.189999
C122  C     C_R   0.001817 0.459786 0.659201 -0.191988
C123  C     C_R   0.998227 0.459783 0.340844 -0.191935
C124  C     C_R   0.500084 0.999938 0.634430 -0.033976
C125  C     C_R   0.499931 0.999937 0.365585 -0.033534
C126  C     C_R   0.000065 0.499940 0.634411 -0.033239
C127  C     C_R   0.999934 0.499940 0.365589 -0.033233
C128  C     C_R   0.501858 0.959784 0.659241 -0.191679
C129  C     C_R   0.501437 0.040021 0.343909 -0.191397
C130  C     C_R   0.998544 0.540026 0.656069 -0.189004
C131  C     C_R   0.000051 0.499989 0.413721 0.867460
C132  C     C_R   0.001410 0.540027 0.343886 -0.189065
C133  C     C_R   0.502374 0.959760 0.705503 -0.173696
C134  C     C_R   0.500988 0.039914 0.297703 -0.153674
C135  C     C_R   0.998995 0.539923 0.702276 -0.152162
C136  C     C_R   0.000959 0.539923 0.297678 -0.152133
C137  C     C_R   0.418938 0.000012 0.418930 0.911794
C138  C     C_R   0.581063 0.000013 0.581059 0.913600
C139  C     C_R   0.918949 0.500003 0.418959 0.913867
C140  C     C_R   0.081051 0.500001 0.581040 0.913874
C141  C     C_R   0.501228 0.999814 0.727248 0.131246
C142  C     C_3   0.226122 0.032124 0.189692 0.081730
C143  C     C_R   0.498794 0.999810 0.272775 0.131243
C144  C     C_R   0.001201 0.499821 0.727219 0.131354
C145  C     C_R   0.998797 0.499818 0.272780 0.131383
C146  C     C_R   0.469288 0.977673 0.765377 -0.262362
C147  C     C_R   0.530738 0.977689 0.234647 -0.261276
C148  C     C_R   0.969237 0.477733 0.765323 -0.260525
C149  C     C_R   0.030776 0.477751 0.234690 -0.260483
C150  C     C_R   0.468511 0.976276 0.810529 0.218315
C151  C     C_R   0.531509 0.976290 0.189489 0.217872
C152  C     C_R   0.968464 0.476331 0.810479 0.218384
C153  C     C_3   0.773621 0.998186 0.823085 0.089545
C154  C     C_R   0.031550 0.476350 0.189535 0.218393
C155  C     C_R   0.500335 0.998203 0.866100 -0.083387
C156  C     C_R   0.499668 0.998197 0.133904 -0.083422
C157  C     C_R   0.000327 0.498200 0.866089 -0.083451
C158  C     C_R   0.999673 0.498197 0.133911 -0.083427
C159  C     C_R   0.533105 0.019552 0.876622 -0.286741
C160  C     C_R   0.466886 0.019523 0.123374 -0.286749
C161  C     C_R   0.033124 0.519501 0.876633 -0.286329
C162  C     C_R   0.966861 0.519475 0.123352 -0.286403
C163  C     C_R   0.534077 0.020344 0.831789 0.031562
C164  C     C_3   0.726242 0.481058 0.182086 0.084468
C165  C     C_R   0.465920 0.020315 0.168213 0.031774
C166  C     C_R   0.034086 0.520300 0.831791 0.031406
C167  C     C_R   0.965897 0.520273 0.168192 0.031484
C168  C     C_R   0.501702 0.999602 0.775676 0.018757
C169  C     C_R   0.498313 0.999596 0.224341 0.018349
C170  C     C_R   0.001679 0.499611 0.775649 0.018328
C171  C     C_R   0.998318 0.499606 0.224349 0.018340
C172  C     C_R   0.999988 0.913818 0.999989 0.863854
C173  C     C_R   0.500000 0.413818 1.000000 0.868771
C174  C     C_R   0.081030 0.000084 0.081027 0.907183
C175  C     C_3   0.273758 0.481256 0.818003 0.084511
C176  C     C_R   0.918973 0.000069 0.918980 0.906250
C177  C     C_R   0.581041 0.500115 0.081045 0.902692
C178  C     C_R   0.418958 0.500115 0.918955 0.902685
C179  C     C_R   0.999991 0.086217 0.999992 0.922899
C180  C     C_R   0.500000 0.586294 0.000000 0.910573
C181  C     C_3   0.273883 0.952368 0.264330 -0.136595
C182  C     C_3   0.726218 0.958000 0.702090 -0.135554
C183  C     C_3   0.773820 0.470643 0.313071 -0.134740
C184  C     C_3   0.226184 0.470450 0.687076 -0.134782
C185  C     C_R   0.499999 0.086478 0.999999 0.889044
C186  C     C_3   0.274906 0.031293 0.238781 -0.482352
C187  C     C_R   0.999998 0.586478 0.000001 0.889153
C188  C     C_R   0.500030 0.999371 0.913683 0.899683
C189  C     C_R   0.499970 0.999369 0.086317 0.899730
C190  C     C_R   0.000029 0.499365 0.913681 0.899784
C191  C     C_R   0.999971 0.499365 0.086319 0.899771
C192  C     C_R   0.500000 0.913528 0.000001 0.853386
C193  C     C_R   0.000001 0.413515 0.999998 0.852534
C194  C     C_R   0.003944 0.796932 0.964054 -0.153096
C195  C     C_R   0.995964 0.796945 0.035883 -0.152898
C196  C     C_R   0.504016 0.296940 0.964113 -0.153189
H1    H     H_    0.211937 0.929274 0.226813 0.180321
H2    H     H_    0.787724 0.927978 0.776222 0.179125
H3    H     H_    0.023673 0.410976 0.122826 0.235929
H4    H     H_    0.070016 0.150026 0.991341 0.225373
H5    H     H_    0.114653 0.149177 0.102477 0.229535
H6    H     H_    0.118297 0.099833 0.072800 0.241799
H7    H     H_    0.087121 0.099400 0.091162 0.236903
H8    H     H_    0.930144 0.150095 0.008944 0.224758
H9    H     H_    0.885294 0.149242 0.897766 0.230163
H10   H     H_    0.881764 0.099900 0.927566 0.248848
H11   H     H_    0.912786 0.099461 0.908940 0.234014
H12   H     H_    0.558566 0.650763 0.970050 0.223729
H13   H     H_    0.712979 0.436526 0.249051 0.178753
H14   H     H_    0.611961 0.649127 0.082190 0.230200
H15   H     H_    0.610356 0.599810 0.047039 0.243721
H16   H     H_    0.586536 0.599576 0.077049 0.229474
H17   H     H_    0.441421 0.650769 0.029928 0.223729
H18   H     H_    0.388034 0.649127 0.917789 0.230204
H19   H     H_    0.389644 0.599808 0.952941 0.243665
H20   H     H_    0.413469 0.599580 0.922940 0.229461
H21   H     H_    0.177182 0.041668 0.260846 0.231046
H22   H     H_    0.200999 0.117894 0.278766 0.244699
H23   H     H_    0.180130 0.097754 0.206847 0.229490
H24   H     H_    0.287035 0.436363 0.751250 0.178774
H25   H     H_    0.236634 0.101603 0.271705 0.235191
H26   H     H_    0.815574 0.097392 0.789084 0.227246
H27   H     H_    0.797079 0.133225 0.838403 0.239454
H28   H     H_    0.755511 0.094383 0.805608 0.239018
H29   H     H_    0.752084 0.134387 0.757628 0.239799
H30   H     H_    0.677530 0.593609 0.175779 0.227784
H31   H     H_    0.702658 0.621283 0.130051 0.244628
H32   H     H_    0.681653 0.566616 0.104659 0.226445
H33   H     H_    0.738120 0.575519 0.162299 0.238518
H34   H     H_    0.322471 0.593599 0.823856 0.227779
H35   H     H_    0.215847 0.066077 0.187225 0.157868
H36   H     H_    0.297250 0.621617 0.869329 0.244631
H37   H     H_    0.318277 0.566982 0.895027 0.226378
H38   H     H_    0.261810 0.575849 0.837284 0.238525
H39   H     H_    0.222014 0.992515 0.128164 0.236053
H40   H     H_    0.192783 0.044980 0.050304 0.248102
H41   H     H_    0.238965 0.070043 0.120290 0.241046
H42   H     H_    0.187090 0.083793 0.089161 0.241857
H43   H     H_    0.777298 0.928694 0.839589 0.233081
H44   H     H_    0.825976 0.936530 0.950619 0.240251
H45   H     H_    0.834871 0.992947 0.943530 0.240710
H46   H     H_    0.784604 0.027940 0.852173 0.160365
H47   H     H_    0.852079 0.947909 0.925433 0.246522
H48   H     H_    0.722433 0.412206 0.189634 0.236274
H49   H     H_    0.693519 0.390332 0.092498 0.248472
H50   H     H_    0.739603 0.422799 0.126195 0.238731
H51   H     H_    0.687640 0.447138 0.070423 0.246851
H52   H     H_    0.277548 0.412354 0.810742 0.236265
H53   H     H_    0.306469 0.390773 0.907975 0.248412
H54   H     H_    0.260395 0.423313 0.874155 0.238736
H55   H     H_    0.312366 0.447648 0.929815 0.246882
H56   H     H_    0.715847 0.502562 0.144348 0.160209
H57   H     H_    0.284159 0.502877 0.855653 0.160221
H58   H     H_    0.497541 0.070963 0.718549 0.136328
H59   H     H_    0.496094 0.928641 0.275371 0.137944
H60   H     H_    0.003923 0.428653 0.724652 0.137330
H61   H     H_    0.786936 0.961050 0.727213 0.181702
H62   H     H_    0.996156 0.428646 0.275428 0.137342
H63   H     H_    0.496960 0.071373 0.637361 0.159507
H64   H     H_    0.497058 0.928464 0.356911 0.160270
H65   H     H_    0.002963 0.428469 0.643114 0.159189
H66   H     H_    0.997118 0.428465 0.356968 0.159207
H67   H     H_    0.503015 0.928468 0.643163 0.160427
H68   H     H_    0.503003 0.071374 0.362602 0.159414
H69   H     H_    0.996966 0.571377 0.637362 0.160047
H70   H     H_    0.002951 0.571380 0.362555 0.160021
H71   H     H_    0.503984 0.928647 0.724709 0.138066
H72   H     H_    0.712023 0.483321 0.282761 0.179639
H73   H     H_    0.502428 0.070962 0.281419 0.136343
H74   H     H_    0.997546 0.570971 0.718550 0.136914
H75   H     H_    0.002373 0.570972 0.281369 0.136883
H76   H     H_    0.444767 0.961263 0.722259 0.143644
H77   H     H_    0.555273 0.961296 0.277775 0.145002
H78   H     H_    0.944689 0.461365 0.722181 0.144867
H79   H     H_    0.055335 0.461401 0.277844 0.144904
H80   H     H_    0.557746 0.036020 0.919676 0.168916
H81   H     H_    0.442232 0.035974 0.080311 0.168876
H82   H     H_    0.057791 0.535927 0.919710 0.169072
H83   H     H_    0.287974 0.483006 0.717316 0.179669
H84   H     H_    0.942182 0.535885 0.080264 0.169002
H85   H     H_    0.007021 0.779134 0.936260 0.136682
H86   H     H_    0.992885 0.779156 0.063681 0.136462
H87   H     H_    0.507116 0.279147 0.936342 0.136257
H88   H     H_    0.492875 0.279147 0.063647 0.136241
H89   H     H_    0.007051 0.859886 0.935913 0.159297
H90   H     H_    0.992865 0.859908 0.064013 0.158619
H91   H     H_    0.507145 0.359898 0.936008 0.159159
H92   H     H_    0.492851 0.359898 0.063987 0.159145
H93   H     H_    0.432712 0.139816 0.940719 0.165351
H94   H     H_    0.285026 0.941914 0.242233 0.135766
H95   H     H_    0.567284 0.139814 0.059276 0.165407
H96   H     H_    0.932685 0.639803 0.940535 0.165568
H97   H     H_    0.067294 0.639830 0.059477 0.165736
H98   H     H_    0.052181 0.220728 0.006943 0.139643
H99   H     H_    0.947850 0.220770 0.993055 0.139703
H100  H     H_    0.545539 0.721129 0.993060 0.140577
H101  H     H_    0.454461 0.721133 0.006938 0.140561
H102  H     H_    0.432349 0.779259 0.928683 0.134181
H103  H     H_    0.567654 0.779254 0.071320 0.134234
H104  H     H_    0.933095 0.279245 0.921843 0.132744
H105  H     H_    0.716238 0.928286 0.711043 0.136061
H106  H     H_    0.066918 0.279240 0.078090 0.132854
H107  H     H_    0.432170 0.859766 0.928591 0.158838
H108  H     H_    0.567833 0.859761 0.071411 0.158914
H109  H     H_    0.932928 0.359747 0.921907 0.157408
H110  H     H_    0.067080 0.359743 0.078059 0.157428
H111  H     H_    0.284932 0.051275 0.335822 0.187605
H112  H     H_    0.711716 0.071719 0.704509 0.190507
H113  H     H_    0.785510 0.568352 0.262533 0.188381
H114  H     H_    0.214467 0.568469 0.737096 0.188386
H115  H     H_    0.288442 0.997065 0.361309 0.163407
H116  H     H_    0.784703 0.436107 0.318699 0.135338
H117  H     H_    0.714616 0.043373 0.656636 0.160739
H118  H     H_    0.788430 0.564105 0.323784 0.164176
H119  H     H_    0.211579 0.563920 0.675899 0.164145
H120  H     H_    0.219726 0.983375 0.288328 0.123256
H121  H     H_    0.784639 0.039469 0.726626 0.112457
H122  H     H_    0.719556 0.555009 0.264544 0.122068
H123  H     H_    0.280461 0.554810 0.735236 0.122071
H124  H     H_    0.287453 0.020702 0.218678 0.184809
H125  H     H_    0.711135 0.971010 0.777027 0.184778
H126  H     H_    0.787697 0.447338 0.239472 0.184649
H127  H     H_    0.215311 0.435938 0.681633 0.135347
H128  H     H_    0.212295 0.447576 0.760783 0.184630
H129  H     H_    0.286910 0.065331 0.256629 0.166412
H130  H     H_    0.713518 0.029738 0.779089 0.165134
H131  H     H_    0.786902 0.501542 0.215556 0.167181
H132  H     H_    0.213103 0.501896 0.784439 0.167193
H133  H     H_    0.408199 0.951440 0.755085 0.219559
H134  H     H_    0.456183 0.887365 0.806435 0.227023
H135  H     H_    0.422679 0.893632 0.820681 0.235663
H136  H     H_    0.476565 0.910958 0.877432 0.235588
H137  H     H_    0.591837 0.951492 0.244940 0.220313
H138  H     H_    0.213327 0.940621 0.171090 0.179177
H139  H     H_    0.543892 0.887387 0.193641 0.227107
H140  H     H_    0.577387 0.893672 0.179380 0.235802
H141  H     H_    0.523489 0.910964 0.122624 0.235451
H142  H     H_    0.908106 0.451626 0.754995 0.220444
H143  H     H_    0.956000 0.387456 0.806194 0.227337
H144  H     H_    0.922472 0.393735 0.820393 0.234281
H145  H     H_    0.976385 0.410964 0.877234 0.235951
H146  H     H_    0.091925 0.451684 0.245037 0.220532
H147  H     H_    0.044073 0.387483 0.193881 0.227347
H148  H     H_    0.077597 0.393782 0.179679 0.234319
N1    N     N_2   0.436196 0.952267 0.800140 -0.292005
N2    N     N_1   0.403111 0.058666 0.144751 -0.205131
N3    N     N_1   0.096910 0.558616 0.855266 -0.204344
N4    N     N_1   0.903042 0.558539 0.144685 -0.204603
N5    N     N_1   0.390567 0.244470 0.903072 -0.202689
N6    N     N_1   0.609424 0.244467 0.096916 -0.202599
N7    N     N_1   0.890512 0.744449 0.902772 -0.202689
N8    N     N_1   0.109422 0.744494 0.097230 -0.199458
N9    N     N_2   0.061179 0.133962 0.011082 -0.287621
N10   N     N_2   0.938894 0.134015 0.989096 -0.291348
N11   N     N_2   0.553654 0.634504 0.994634 -0.284659
N12   N     N_2   0.563837 0.952300 0.199887 -0.291853
N13   N     N_2   0.446340 0.634508 0.005352 -0.284688
N14   N     N_2   0.205463 0.049574 0.274528 -0.295616
N15   N     N_2   0.794561 0.082310 0.789165 -0.303875
N16   N     N_2   0.705968 0.583807 0.191213 -0.297837
N17   N     N_2   0.294018 0.583864 0.808421 -0.297847
N18   N     N_2   0.209832 0.020889 0.129766 -0.292140
N19   N     N_2   0.786871 0.959036 0.860821 -0.307251
N20   N     N_2   0.710168 0.436686 0.157552 -0.292827
N21   N     N_2   0.289822 0.436917 0.842722 -0.292817
N22   N     N_2   0.936109 0.452381 0.800048 -0.291300
N23   N     N_2   0.063921 0.452420 0.199984 -0.291247
N24   N     N_1   0.302039 0.893539 0.349326 -0.205131
N25   N     N_1   0.695971 0.949112 0.591370 -0.209365
N26   N     N_1   0.802337 0.495646 0.419312 -0.209680
N27   N     N_1   0.197651 0.495055 0.580699 -0.209577
N28   N     N_1   0.596862 0.058742 0.855238 -0.203415
O1    O     O_R   0.500000 0.963030 0.565470 -0.626412
O2    O     O_R   0.465320 0.999980 0.030770 -0.631499
O3    O     O_R   0.034680 0.499980 0.969230 -0.631295
O4    O     O_R   0.965320 0.499980 0.030770 -0.631373
O5    O     O_R   0.465320 0.934500 0.965310 -0.623554
O6    O     O_R   0.534680 0.934500 0.034690 -0.623496
O7    O     O_R   0.965320 0.434500 0.965310 -0.623059
O8    O     O_R   0.034680 0.434500 0.034690 -0.623052
O9    O     O_R   0.499990 0.036970 0.565490 -0.627401
O10   O     O_R   0.500010 0.036970 0.434510 -0.627357
O11   O     O_R   0.999990 0.536970 0.565490 -0.626483
O12   O     O_R   0.500000 0.963030 0.434530 -0.626334
O13   O     O_R   0.000010 0.536970 0.434510 -0.626507
O14   O     O_R   0.438570 0.963030 0.438570 -0.611840
O15   O     O_R   0.561430 0.963030 0.561430 -0.614614
O16   O     O_R   0.938570 0.463030 0.438570 -0.617006
O17   O     O_R   0.061430 0.463030 0.561430 -0.616998
O18   O     O_R   0.438570 0.036970 0.438590 -0.617778
O19   O     O_R   0.561430 0.036970 0.561410 -0.616949
O20   O     O_R   0.938570 0.536970 0.438590 -0.614978
O21   O     O_R   0.061430 0.536970 0.561410 -0.614985
O22   O     O_R   0.000000 0.934650 0.036980 -0.628668
O23   O     O_R   0.000000 0.463030 0.565470 -0.627563
O24   O     O_R   0.000000 0.934650 0.963020 -0.627632
O25   O     O_R   0.500000 0.434650 0.036980 -0.627040
O26   O     O_R   0.500000 0.434650 0.963020 -0.627031
O27   O     O_R   0.061420 0.000140 0.098400 -0.625762
O28   O     O_R   0.938580 0.000140 0.901600 -0.621605
O29   O     O_R   0.561420 0.500140 0.098400 -0.621743
O30   O     O_R   0.438580 0.500140 0.901600 -0.621739
O31   O     O_R   0.061430 0.000120 0.024480 -0.601801
O32   O     O_R   0.938570 0.000120 0.975520 -0.610045
O33   O     O_R   0.561430 0.500120 0.024480 -0.607427
O34   O     O_R   0.000000 0.463030 0.434530 -0.627553
O35   O     O_R   0.438570 0.500120 0.975520 -0.607405
O36   O     O_R   0.999990 0.065630 0.036960 -0.607911
O37   O     O_R   0.000010 0.065630 0.963040 -0.608227
O38   O     O_R   0.499990 0.565630 0.036960 -0.603613
O39   O     O_R   0.500010 0.565630 0.963040 -0.603610
O40   O     O_R   0.465320 0.065470 0.965350 -0.628613
O41   O     O_R   0.534680 0.065470 0.034650 -0.628540
O42   O     O_R   0.965320 0.565470 0.965350 -0.628511
O43   O     O_R   0.034680 0.565470 0.034650 -0.628360
O44   O     O_R   0.465320 0.999980 0.899860 -0.591119
O45   O     O_R   0.534680 0.999980 0.100140 -0.590980
O46   O     O_R   0.965320 0.499980 0.899860 -0.591031
O47   O     O_R   0.034680 0.499980 0.100140 -0.590940
O48   O     O_R   0.534680 0.999980 0.969230 -0.631370
Zn1   Zn    Zn3+2 0.500000 0.950630 0.500000 0.962437
Zn2   Zn    Zn3+2 0.546310 0.999980 0.046300 0.962710
Zn3   Zn    Zn3+2 0.953690 0.499980 0.953700 0.963065
Zn4   Zn    Zn3+2 0.046310 0.499980 0.046300 0.963461
Zn5   Zn    Zn3+2 0.000000 0.450630 0.500000 0.954313
Zn6   Zn    Zn3+2 0.500000 0.049370 0.500000 0.954560
Zn7   Zn    Zn3+2 0.000000 0.549370 0.500000 0.959627
Zn8   Zn    Zn3+2 0.000000 0.000140 0.049370 0.961506
Zn9   Zn    Zn3+2 0.000000 0.000140 0.950630 0.968935
Zn10  Zn    Zn3+2 0.500000 0.500140 0.049370 0.967321
Zn11  Zn    Zn3+2 0.500000 0.500140 0.950630 0.967343
Zn12  Zn    Zn3+2 0.453690 0.999980 0.953700 0.962271

loop_
_geom_bond_atom_site_label_1
_geom_bond_atom_site_label_2
_ccdc_geom_bond_type
C115  C141  A    
O6    Zn2   S    
C18   C21   A    
C101  C113  T    
C109  O12   A    
C106  H47   S    
C178  O30   A    
C6    C196  A    
C102  H28   S    
C172  O24   A    
C134  H73   S    
C173  O25   A    
C26   H118  S    
C46   C62   T    
H30   N16   S    
H142  N22   S    
C57   C76   S    
C24   C69   S    
C154  C158  A    
C161  H82   S    
C185  O40   A    
O34   Zn5   S    
C103  H31   S    
C184  H127  S    
O43   Zn4   S    
C175  N21   S    
C5    H90   S    
O17   Zn5   S    
C7    H92   S    
C134  C143  A    
C40   C180  S    
C100  H23   S    
O1    Zn1   S    
O24   Zn9   S    
O28   Zn9   S    
C70   C74   S    
C194  H85   S    
C57   C63   T    
C65   C181  S    
C164  N20   S    
C26   C59   S    
O45   Zn2   S    
C33   H101  S    
C66   C182  S    
C56   N14   S    
C20   H97   S    
O44   Zn12  S    
C82   H148  S    
C92   N5    T    
C174  O27   A    
C140  O17   A    
C165  C169  A    
C94   N7    T    
C50   C53   A    
C116  C121  A    
C24   H128  S    
O22   Zn8   S    
C112  C138  S    
C103  N16   S    
C131  O34   A    
C167  C171  A    
C2    H130  S    
C102  H29   S    
C81   H145  S    
C78   H134  S    
C108  H54   S    
C70   H1    S    
C4    C194  A    
C93   N6    T    
C70   H138  S    
C70   C181  S    
C95   N8    T    
C16   C20   A    
C27   H114  S    
O9    Zn6   S    
C60   H123  S    
C1    O9    A    
C38   N13   S    
C19   H96   S    
C192  O6    A    
C181  H94   S    
O16   Zn5   S    
C106  H45   S    
C50   H109  S    
C152  N22   S    
C111  C137  S    
O39   Zn11  S    
C68   C77   S    
C140  O21   A    
O40   Zn12  S    
C141  C168  S    
O13   Zn7   S    
C49   H108  S    
C33   C38   A    
C5    C8    A    
H43   N19   S    
O31   Zn9   S    
C96   H6    S    
C118  H62   S    
C98   H15   S    
H52   N21   S    
C4    H89   S    
C84   C182  S    
C6    H91   S    
C1    C124  S    
C191  O47   A    
C100  H25   S    
C189  O45   A    
C117  H60   S    
C152  C157  A    
H12   N11   S    
C127  C131  S    
O21   Zn7   S    
C3    C11   A    
C121  H64   S    
C180  O38   A    
O46   Zn3   S    
O5    Zn12  S    
C125  C129  A    
C48   C52   A    
C153  N19   S    
C73   C77   S    
C31   C36   A    
C13   H131  S    
O3    Zn4   S    
C56   H120  S    
O4    Zn3   S    
C65   C79   S    
C10   C29   S    
C137  O18   A    
C15   C94   S    
C100  N14   S    
C120  O23   A    
C73   H83   S    
C87   N28   T    
C33   C42   A    
C64   C68   T    
C91   C167  S    
C164  H56   S    
C150  N1    S    
C88   N2    T    
C37   C40   A    
C26   H113  S    
O37   Zn9   S    
C72   H72   S    
C83   C181  S    
C128  H67   S    
C59   H122  S    
C80   H140  S    
O8    Zn4   S    
C130  H69   S    
C154  N23   S    
C183  H116  S    
C113  C139  S    
C30   C41   A    
C9    C173  S    
C114  C140  S    
C97   H10   S    
C129  H68   S    
C105  N18   S    
C110  C114  T    
C14   C93   S    
C27   C69   S    
C156  C189  S    
C104  H38   S    
C100  H22   S    
C146  C150  A    
C46   C75   S    
C133  H71   S    
C30   C34   A    
C155  C159  A    
C34   C39   A    
C45   H104  S    
C156  C160  A    
C117  C144  A    
H34   N17   S    
C193  O8    A    
C58   N15   S    
C60   N17   S    
C188  O44   A    
C51   C53   A    
C147  C151  A    
C117  C122  A    
C121  C125  A    
C69   C110  S    
C75   C153  S    
C123  C127  A    
C72   H13   S    
O20   Zn7   S    
C132  C136  A    
C2    H125  S    
C151  N12   S    
C35   C61   T    
C32   C37   A    
C147  H77   S    
C67   C183  S    
C59   N16   S    
C3    H88   S    
C166  C170  A    
C115  C119  A    
C150  C155  A    
C186  H124  S    
C67   C101  S    
C71   H2    S    
C65   C186  S    
C85   N26   T    
C105  H41   S    
C31   C41   A    
C149  C171  A    
C12   C92   S    
C36   C39   A    
C25   C66   S    
C148  C152  A    
C2    C66   S    
O41   Zn2   S    
C39   C179  S    
O26   Zn11  S    
C71   H61   S    
C23   C65   S    
C58   H121  S    
O48   Zn2   S    
C163  C168  A    
O7    Zn3   S    
C82   H3    S    
C80   N12   S    
O12   Zn1   S    
O32   Zn8   S    
H26   N15   S    
C78   N1    S    
C89   C166  S    
C44   C54   A    
C45   C55   A    
C88   C165  S    
C138  O15   A    
C45   C50   A    
C59   C76   S    
C103  H33   S    
C119  H63   S    
C35   C74   S    
C53   C193  S    
C107  H50   S    
C23   H111  S    
C130  C135  A    
C48   H107  S    
C96   N9    S    
H48   N20   S    
C66   C90   S    
C15   C19   A    
C12   C28   A    
C195  H86   S    
C159  H80   S    
H39   N18   S    
O27   Zn8   S    
C3    C7    A    
C27   C60   S    
C10   C194  A    
O36   Zn8   S    
C120  C126  S    
C99   H20   S    
C126  C130  A    
C123  H66   S    
C144  C170  S    
C37   N11   S    
C81   H144  S    
C78   H135  S    
H137  N12   S    
O19   Zn6   S    
C157  C190  S    
C41   C55   S    
C80   H141  S    
C12   C17   A    
O42   Zn3   S    
H21   N14   S    
C4    C8    A    
C124  C128  A    
C32   H100  S    
C85   C183  S    
O35   Zn10  S    
C106  H44   S    
C86   C184  S    
C6    C9    A    
C31   H99   S    
C179  O36   A    
C15   C29   A    
C118  C145  A    
C173  O26   A    
C56   C74   S    
C61   C174  S    
C192  O5    A    
C23   C56   S    
C11   C196  A    
C185  O41   A    
C47   C51   A    
C103  H32   S    
C131  O13   A    
C98   H16   S    
C73   H24   S    
O33   Zn11  S    
C149  C154  A    
C51   H110  S    
C64   C178  S    
C177  O33   A    
C49   C52   A    
C62   C176  S    
C120  O11   A    
C160  C165  A    
C176  O32   A    
C43   H102  S    
C20   C22   A    
C105  H40   S    
C47   H106  S    
C106  N19   S    
C82   H147  S    
C157  C161  A    
C34   N9    S    
C108  N21   S    
C30   H98   S    
C13   C164  S    
C146  C168  A    
C162  H84   S    
C160  H81   S    
C72   C183  S    
C122  H65   S    
C21   C185  S    
C99   H18   S    
C18   H95   S    
C133  C141  A    
C108  H53   S    
C158  C191  S    
C42   C54   S    
C38   C40   A    
O14   Zn1   S    
C142  H35   S    
C115  H58   S    
C25   H117  S    
C11   C28   S    
C104  N17   S    
O23   Zn5   S    
C136  H75   S    
C118  C123  A    
C187  O42   A    
C17   C21   A    
C132  H70   S    
C129  C134  A    
H17   N13   S    
O29   Zn10  S    
C176  O28   A    
O18   Zn6   S    
C32   C42   A    
C97   H9    S    
C137  O14   A    
C24   C175  S    
C178  O35   A    
C8    C172  S    
C86   N27   T    
C116  H59   S    
C44   C49   A    
C87   C163  S    
C145  C171  S    
C186  H129  S    
C14   C18   A    
C90   C112  T    
C72   C76   S    
C196  H87   S    
C96   H5    S    
C1    O1    A    
C119  C124  A    
C191  O4    A    
C98   H14   S    
C84   N25   T    
C17   H93   S    
C26   C67   S    
C149  H79   S    
C182  H105  S    
C107  H51   S    
C99   N13   S    
C155  C188  S    
C193  O7    A    
C104  H36   S    
O11   Zn7   S    
C142  N18   S    
C80   H139  S    
C138  O19   A    
C24   H132  S    
C52   C192  S    
C22   C187  S    
C127  C132  A    
C43   C54   A    
C148  C170  A    
C105  H42   S    
C23   H115  S    
C43   C48   A    
C174  O31   A    
C136  C145  A    
C5    C195  A    
C82   N23   S    
C74   C142  S    
C25   H112  S    
O2    Zn12  S    
C77   C175  S    
C153  H46   S    
C71   C182  S    
C36   N10   S    
C58   C75   S    
C175  H57   S    
C102  N15   S    
C142  C186  S    
C60   C77   S    
C108  H55   S    
C109  O10   A    
C19   C22   A    
C81   N22   S    
C143  C169  S    
C98   N11   S    
C73   C184  S    
C83   N24   T    
C179  O37   A    
C172  O22   A    
C16   C29   A    
C139  O20   A    
C135  H74   S    
C122  C126  A    
C128  C133  A    
O10   Zn6   S    
C116  C143  A    
O30   Zn11  S    
C97   N10   S    
C44   H103  S    
C97   H11   S    
C190  O46   A    
C109  C125  S    
C135  C144  A    
C188  O48   A    
C2    C153  S    
O47   Zn4   S    
O25   Zn10  S    
C159  C163  A    
C76   C164  S    
C25   C58   S    
C96   H7    S    
C47   C55   A    
C13   C67   S    
C7    C9    A    
C16   C95   S    
C107  H49   S    
C161  C166  A    
C107  N20   S    
C104  H37   S    
H8    N10   S    
C89   N3    T    
C63   C177  S    
C79   C111  T    
H4    N9    S    
C139  O16   A    
C146  H76   S    
H146  N23   S    
H133  N1    S    
C10   C195  A    
C180  O39   A    
C71   C75   S    
C102  H27   S    
C190  O3    A    
C99   H19   S    
C81   H143  S    
C78   H136  S    
C148  H78   S    
C13   H126  S    
C158  C162  A    
C69   C184  S    
C177  O29   A    
C162  C167  A    
C151  C156  A    
O15   Zn1   S    
O38   Zn10  S    
C91   N4    T    
C27   H119  S    
C14   C28   A    
C189  O2    A    
C187  O43   A    
C147  C169  A    
