data_mof_unit_38333.cif
_audit_creation_date              2012-12-11T15:29:24-0500
_audit_creation_method            fapswitch 2.2
_symmetry_space_group_name_H-M    P1
_symmetry_Int_Tables_number       1
_space_group_crystal_system       triclinic
_cell_length_a                    13.489762
_cell_length_b                    13.496601
_cell_length_c                    27.576517
_cell_angle_alpha                 90.564203
_cell_angle_beta                  90.014166
_cell_angle_gamma                 60.030504
_cell_volume                      4349.15393175

loop_
_atom_site_label
_atom_site_type_symbol
_atom_type_description
_atom_site_fract_x
_atom_site_fract_y
_atom_site_fract_z
_atom_type_partial_charge
C1    C     C_R   0.620288 0.101193 0.569898 0.546033
C2    C     C_1   0.631013 0.731936 0.615902 -0.015235
C3    C     C_3   0.745284 0.559868 0.766842 -0.114545
C4    C     C_3   0.678736 0.655634 0.804623 0.061861
C5    C     C_3   0.633814 0.602379 0.737130 -0.090240
C6    C     C_3   0.662507 0.683897 0.709958 0.043253
C7    C     C_3   0.568858 0.697533 0.775323 0.032424
C8    C     C_3   0.595739 0.779962 0.747579 -0.090990
C9    C     C_1   0.687898 0.634544 0.856807 -0.058464
C10   C     C_1   0.649053 0.704908 0.657815 -0.059792
C11   C     C_3   0.063791 0.208348 0.736659 -0.091442
C12   C     C_R   0.599732 0.779247 0.568432 0.545431
C13   C     C_3   0.110681 0.105291 0.771070 0.032142
C14   C     C_1   0.099295 0.199157 0.900620 -0.018200
C15   C     C_1   0.230496 0.137260 0.617243 -0.015444
C16   C     C_3   0.104966 0.269351 0.772550 -0.110729
C17   C     C_3   0.151291 0.165645 0.806437 0.061826
C18   C     C_3   0.222954 0.213523 0.746737 -0.107214
C19   C     C_3   0.181584 0.152523 0.711624 0.043097
C20   C     C_3   0.268903 0.109904 0.781228 -0.115892
C21   C     C_3   0.228240 0.048361 0.745249 -0.089065
C22   C     C_1   0.128182 0.179357 0.858695 -0.058429
C23   C     C_R   0.277865 0.121604 0.569414 0.545839
C24   C     C_1   0.203330 0.145579 0.659335 -0.059654
C25   C     C_3   0.561896 0.268906 0.743111 -0.100981
C26   C     C_3   0.562670 0.183978 0.780815 -0.101933
C27   C     C_1   0.691581 0.206732 0.901354 -0.017484
C28   C     C_1   0.635292 0.133273 0.617855 -0.016325
C29   C     C_3   0.661770 0.270809 0.770110 -0.102231
C30   C     C_3   0.662333 0.185630 0.806951 0.052372
C31   C     C_3   0.749554 0.169023 0.738530 -0.104888
C32   C     C_3   0.650013 0.167350 0.712357 0.053543
C33   C     C_3   0.750283 0.084155 0.776107 -0.103507
C34   C     C_R   0.622015 0.100311 0.431576 0.542028
C35   C     C_3   0.650534 0.082232 0.749214 -0.099425
C36   C     C_1   0.674361 0.195988 0.859273 -0.061194
C37   C     C_1   0.643295 0.152318 0.660016 -0.059423
C38   C     C_R   0.641125 0.720091 0.383603 -0.007914
C39   C     C_R   0.718720 0.739056 0.357172 -0.144698
C40   C     C_R   0.732441 0.716185 0.308029 -0.177278
C41   C     C_R   0.671697 0.670656 0.284764 0.073503
C42   C     C_R   0.603363 0.639026 0.311834 0.247084
C43   C     C_R   0.587232 0.665776 0.361498 -0.124204
C44   C     C_R   0.578556 0.697768 0.204427 -0.075230
C45   C     C_R   0.602104 0.776543 0.430601 0.545260
C46   C     C_R   0.586756 0.678756 0.154622 -0.137000
C47   C     C_R   0.792675 0.598498 0.159180 -0.129136
C48   C     C_R   0.784731 0.614587 0.208896 -0.134135
C49   C     C_R   0.678238 0.660348 0.231966 0.069669
C50   C     C_R   0.694530 0.624613 0.132122 0.020900
C51   C     C_R   0.224686 0.137780 0.383658 0.023896
C52   C     C_R   0.246883 0.041921 0.355254 -0.126447
C53   C     C_R   0.222382 0.053809 0.306135 -0.123404
C54   C     C_R   0.172914 0.162031 0.284895 0.036157
C55   C     C_R   0.142429 0.259058 0.314069 -0.116802
C56   C     C_R   0.278911 0.120110 0.431036 0.541858
C57   C     C_R   0.168992 0.246905 0.363161 -0.126440
C58   C     C_R   0.173599 0.251641 0.206375 -0.121154
C59   C     C_R   0.146813 0.269160 0.157354 -0.130417
C60   C     C_R   0.092742 0.122619 0.158795 -0.124888
C61   C     C_R   0.117561 0.106604 0.207813 -0.120702
C62   C     C_R   0.155097 0.173189 0.232293 0.036476
C63   C     C_R   0.102552 0.207369 0.133666 0.022675
C64   C     C_R   0.641585 0.139942 0.385243 0.022489
C65   C     C_R   0.549560 0.232831 0.362265 -0.124971
C66   C     C_R   0.557236 0.253467 0.313615 -0.117237
C67   C     C_3   0.773793 0.641697 0.738775 -0.107643
C68   C     C_R   0.657667 0.182776 0.287438 0.040351
C69   C     C_R   0.753252 0.096581 0.311515 -0.117607
C70   C     C_R   0.745127 0.074887 0.360113 -0.129234
C71   C     C_R   0.717152 0.098383 0.204629 -0.120498
C72   C     C_R   0.728790 0.110303 0.155296 -0.127914
C73   C     C_R   0.619240 0.316743 0.164907 -0.122953
C74   C     C_R   0.609277 0.304850 0.214332 -0.116380
C75   C     C_R   0.661082 0.195632 0.234769 0.031146
C76   C     C_R   0.682937 0.219593 0.135458 0.021921
C77   C     C_R   0.050198 0.234659 0.948072 0.545698
C78   C     C_3   0.707298 0.737102 0.777313 -0.113661
C79   C     C_R   0.711946 0.561952 0.946462 0.545091
C80   C     C_R   0.722632 0.224107 0.949082 0.545326
C81   C     C_R   0.047664 0.243767 0.086394 0.542069
C82   C     C_R   0.709514 0.571683 0.084455 0.542346
C83   C     C_R   0.719880 0.233507 0.087537 0.541397
C84   C     C_1   0.697128 0.607960 0.898780 -0.018228
Cr1   Cr    Cr6+3 0.417550 0.169090 0.500530 1.020398
Cr2   Cr    Cr6+3 0.669180 0.913420 0.499920 1.020705
Cr3   Cr    Cr6+3 0.413260 0.917540 0.499520 1.021210
Cr4   Cr    Cr6+3 0.909770 0.175810 0.018240 1.019715
Cr5   Cr    Cr6+3 0.913300 0.427650 0.016090 1.019933
Cr6   Cr    Cr6+3 0.657770 0.431010 0.016900 1.022344
H1    H     H_    0.737230 0.792434 0.794221 0.102591
H2    H     H_    0.352919 0.069661 0.799823 0.098806
H3    H     H_    0.269384 0.258606 0.736095 0.108266
H4    H     H_    0.054607 0.360359 0.784253 0.105085
H5    H     H_    0.486091 0.189830 0.798629 0.101387
H6    H     H_    0.484661 0.344996 0.728910 0.103076
H7    H     H_    0.646046 0.004275 0.740021 0.102756
H8    H     H_    0.827507 0.007913 0.790228 0.103572
H9    H     H_    0.825851 0.163419 0.720569 0.102572
H10   H     H_    0.666354 0.348707 0.779327 0.103356
H11   H     H_    0.761695 0.780741 0.373411 0.144902
H12   H     H_    0.858566 0.618155 0.723011 0.108506
H13   H     H_    0.495037 0.737986 0.221631 0.142558
H14   H     H_    0.510045 0.700337 0.134238 0.123412
H15   H     H_    0.785844 0.740162 0.287718 0.106627
H16   H     H_    0.862495 0.586246 0.229539 0.102725
H17   H     H_    0.877119 0.556314 0.142768 0.137656
H18   H     H_    0.529033 0.649086 0.382254 0.110252
H19   H     H_    0.290976 0.956493 0.370058 0.135928
H20   H     H_    0.205939 0.301479 0.224267 0.103451
H21   H     H_    0.155683 0.334529 0.138651 0.125255
H22   H     H_    0.533344 0.870553 0.739217 0.099141
H23   H     H_    0.247452 0.977523 0.284436 0.104251
H24   H     H_    0.101988 0.045974 0.226949 0.103030
H25   H     H_    0.058353 0.073864 0.141536 0.134134
H26   H     H_    0.100884 0.343877 0.298692 0.103987
H27   H     H_    0.150706 0.321962 0.384546 0.124136
H28   H     H_    0.468620 0.284797 0.380792 0.130655
H29   H     H_    0.754547 0.013154 0.219399 0.103929
H30   H     H_    0.777942 0.034383 0.133088 0.123038
H31   H     H_    0.482354 0.320538 0.295929 0.101336
H32   H     H_    0.565881 0.381147 0.236806 0.145493
H33   H     H_    0.584412 0.402134 0.150532 0.143133
H34   H     H_    0.832968 0.043409 0.292334 0.103023
H35   H     H_    0.817672 0.003558 0.377168 0.125247
H36   H     H_    0.603377 0.547313 0.720360 0.101871
H37   H     H_    0.807186 0.469212 0.775298 0.099826
H38   H     H_    0.979676 0.248179 0.718149 0.097553
H39   H     H_    0.278153 0.957516 0.733348 0.103420
O1    O     O_R   0.301780 0.195490 0.553940 -0.507626
O2    O     O_R   0.658840 0.818280 0.449970 -0.504039
O3    O     O_R   0.503160 0.801780 0.445740 -0.521366
O4    O     O_R   0.319320 0.022190 0.450230 -0.504670
O5    O     O_3   0.499990 0.000010 0.499990 -0.244622
O6    O     O_R   0.819250 0.149410 0.965240 -0.508523
O7    O     O_R   0.006940 0.180310 0.968270 -0.494893
O8    O     O_R   0.028420 0.332670 0.963010 -0.506785
O9    O     O_R   0.810130 0.520390 0.966030 -0.494446
O10   O     O_R   0.636050 0.541380 0.962520 -0.508062
O11   O     O_R   0.666480 0.323610 0.968170 -0.493802
O12   O     O_R   0.522450 0.158840 0.550250 -0.494931
O13   O     O_R   0.817280 0.156800 0.072180 -0.519538
O14   O     O_R   0.005110 0.187160 0.067410 -0.504858
O15   O     O_R   0.026450 0.340060 0.069950 -0.522473
O16   O     O_R   0.808300 0.527240 0.065170 -0.506492
O17   O     O_R   0.634070 0.548770 0.069460 -0.519627
O18   O     O_R   0.664650 0.330470 0.067300 -0.503867
O19   O     O_3   0.826940 0.344820 0.017080 -0.244353
O20   O     O_R   0.694460 0.003360 0.553820 -0.506392
O21   O     O_R   0.657750 0.819520 0.549120 -0.494396
O22   O     O_R   0.501990 0.803120 0.552700 -0.507663
O23   O     O_R   0.318230 0.023430 0.549370 -0.493990
O24   O     O_R   0.302950 0.194150 0.446980 -0.519870
O25   O     O_R   0.523540 0.157600 0.451100 -0.504419
O26   O     O_R   0.695630 0.002030 0.446860 -0.522533
O27   O     O_3   0.552234 0.584510 0.289053 -0.730445
H40   H     H_    0.508522 0.567843 0.313369 0.312410
C85   C     C_3   0.452040 0.730078 0.796180 -0.408856
H41   H     H_    0.389039 0.754653 0.766385 0.122125
H42   H     H_    0.457117 0.656123 0.815654 0.138302
H43   H     H_    0.423902 0.803350 0.821786 0.134602
C86   C     C_3   0.047298 0.043299 0.785443 -0.412920
H44   H     H_    0.028756 0.007333 0.752597 0.123624
H45   H     H_    0.100822 0.972794 0.810523 0.135262
H46   H     H_    0.965711 0.104131 0.803837 0.139628

loop_
_geom_bond_atom_site_label_1
_geom_bond_atom_site_label_2
_ccdc_geom_bond_type
C44   C49   A    
C58   C62   A    
Cr5   O19   S    
C66   C68   A    
C23   O23   A    
C73   C74   A    
Cr3   O4    S    
C79   O10   A    
C12   O22   A    
C72   C76   A    
C2    C12   S    
Cr6   O10   S    
C13   C86   S    
C7    C85   S    
C53   C54   A    
C68   C75   S    
Cr5   O16   S    
C20   H2    S    
C11   C19   S    
Cr6   O18   S    
C80   O6    A    
C63   C81   S    
C60   C63   A    
C52   H19   S    
O27   H40   S    
C19   C21   S    
C77   O8    A    
C51   C56   S    
Cr2   O21   S    
C79   C84   S    
Cr5   O8    S    
C3    H37   S    
Cr2   O2    S    
C55   H26   S    
C17   C20   S    
C18   C19   S    
C33   H8    S    
C41   C42   A    
C14   C77   S    
C41   C49   S    
C38   C45   S    
Cr6   O19   S    
C85   H43   S    
C15   C24   T    
C85   H42   S    
C81   O15   A    
C48   H16   S    
C31   C32   S    
C53   H23   S    
C16   C17   S    
C73   H33   S    
Cr2   O5    S    
C5    H36   S    
C1    C28   S    
C59   H21   S    
C65   H28   S    
C31   C33   S    
C1    O20   A    
C51   C57   A    
C77   O7    A    
C31   H9    S    
Cr4   O14   S    
C30   C33   S    
Cr1   O5    S    
C43   H18   S    
C25   C32   S    
C15   C23   S    
Cr3   O22   S    
C8    C78   S    
Cr3   O5    S    
C69   C70   A    
C67   C78   S    
C4    C7    S    
C76   C83   S    
Cr4   O13   S    
C82   O17   A    
C44   H13   S    
C44   C46   A    
C56   O4    A    
C47   C50   A    
C86   H45   S    
C34   O25   A    
C25   C29   S    
C38   C39   A    
C74   C75   A    
C51   C52   A    
C32   C35   S    
C12   O21   A    
C7    C8    S    
Cr4   O7    S    
C27   C80   S    
Cr2   O20   S    
Cr1   O12   S    
C39   C40   A    
C5    C7    S    
C68   C69   A    
C6    C8    S    
C54   C62   S    
C69   H34   S    
C58   C59   A    
C34   O26   A    
C46   H14   S    
C23   O1    A    
C60   C61   A    
Cr3   O3    S    
C42   O27   S    
Cr2   O26   S    
C4    C78   S    
C29   C30   S    
Cr1   O1    S    
C86   H46   S    
C11   C16   S    
C47   C48   A    
C39   H11   S    
C72   H30   S    
C34   C64   S    
Cr4   O19   S    
C66   H31   S    
C13   C21   S    
Cr1   O24   S    
C32   C37   S    
C21   H39   S    
C25   H6    S    
C83   O18   A    
C70   H35   S    
C16   C18   S    
C40   C41   A    
C74   H32   S    
C45   O2    A    
C64   C70   A    
Cr3   O23   S    
C55   C57   A    
C85   H41   S    
C27   C36   T    
C73   C76   A    
C59   C63   A    
C42   C43   A    
C3    C4    S    
C2    C10   T    
C6    C67   S    
C82   O16   A    
C52   C53   A    
C50   C82   S    
C57   H27   S    
C86   H44   S    
C26   H5    S    
C54   C55   A    
C48   C49   A    
C29   H10   S    
C58   H20   S    
C16   H4    S    
C3    C67   S    
Cr4   O6    S    
C56   O24   A    
C3    C5    S    
C6    C10   S    
C83   O13   A    
Cr6   O11   S    
C26   C30   S    
C30   C36   S    
C78   H1    S    
Cr5   O15   S    
C46   C50   A    
C47   H17   S    
C17   C22   S    
C71   H29   S    
C64   C65   A    
C14   C22   T    
C8    H22   S    
C19   C24   S    
C25   C26   S    
C38   C43   A    
Cr6   O17   S    
C80   O11   A    
C71   C75   A    
C11   C13   S    
C5    C6    S    
C28   C37   T    
C33   C35   S    
C11   H38   S    
C18   C20   S    
Cr1   O25   S    
C65   C66   A    
C61   C62   A    
C1    O12   A    
C9    C84   T    
C13   C17   S    
C26   C35   S    
C81   O14   A    
C79   O9    A    
C71   C72   A    
C20   C21   S    
C45   O3    A    
C29   C31   S    
Cr5   O9    S    
C61   H24   S    
C18   H3    S    
C60   H25   S    
C4    C9    S    
C35   H7    S    
C67   H12   S    
C40   H15   S    
