data_mof_unit_20186.cif
_audit_creation_date              2012-10-26T21:11:06-0400
_audit_creation_method            fapswitch 2.2
_symmetry_space_group_name_H-M    P1
_symmetry_Int_Tables_number       1
_space_group_crystal_system       triclinic
_cell_length_a                    10.864785
_cell_length_b                    10.92938
_cell_length_c                    13.155134
_cell_angle_alpha                 91.011703
_cell_angle_beta                  90.084205
_cell_angle_gamma                 89.680297
_cell_volume                      1561.84187263

loop_
_atom_site_label
_atom_site_type_symbol
_atom_type_description
_atom_site_fract_x
_atom_site_fract_y
_atom_site_fract_z
_atom_type_partial_charge
C1    C     C_R   0.500716 0.259243 0.498912 0.556807
C2    C     C_R   0.729971 0.838477 0.658409 -0.148894
C3    C     C_R   0.474002 0.111050 0.305503 0.001454
C4    C     C_R   0.611506 0.885402 0.675749 0.004733
C5    C     C_R   0.576873 0.110112 0.240451 0.110386
C6    C     C_R   0.567055 0.896771 0.776091 0.101892
C7    C     C_R   0.565646 0.154646 0.141198 0.167423
C8    C     C_R   0.645852 0.872077 0.858648 0.166728
C9    C     C_R   0.449850 0.196321 0.105423 0.206929
C10   C     C_R   0.767819 0.831249 0.840283 0.203465
C11   C     C_R   0.483058 0.930961 0.411594 -0.167497
C12   C     C_R   0.507830 0.739935 0.500882 0.554721
C13   C     C_R   0.535979 0.067129 0.586821 -0.161747
C14   C     C_R   0.511097 0.872051 0.501880 -0.008150
C15   C     C_R   0.503941 0.126334 0.497082 -0.008176
C16   C     C_R   0.259772 0.507630 0.499914 0.558694
C17   C     C_R   0.740282 0.493795 0.500125 0.557640
C18   C     C_R   0.544834 0.940144 0.589177 -0.021877
C19   C     C_R   0.483143 0.057239 0.407233 -0.028004
C20   C     C_1   0.499306 0.500926 0.173675 0.122664
C21   C     C_1   0.499400 0.500747 0.826354 0.116867
C22   C     C_1   0.498546 0.501753 0.050716 -0.049028
C23   C     C_R   0.872779 0.495008 0.500765 -0.011506
C24   C     C_1   0.498732 0.501626 0.949315 -0.060607
C25   C     C_R   0.221596 0.806242 0.271995 -0.111874
C26   C     C_R   0.810513 0.172794 0.719297 -0.125962
C27   C     C_R   0.174457 0.739995 0.353089 -0.068799
C28   C     C_R   0.865633 0.242877 0.644345 -0.095228
C29   C     C_R   0.117504 0.626673 0.334839 0.050014
C30   C     C_R   0.881740 0.369023 0.660173 0.046111
C31   C     C_R   0.108841 0.580538 0.234771 -0.091473
C32   C     C_R   0.842621 0.424101 0.751843 -0.061276
C33   C     C_R   0.159012 0.645590 0.154298 -0.105153
C34   C     C_R   0.127148 0.508280 0.499584 -0.007225
C35   C     C_R   0.785773 0.353849 0.825914 -0.108338
C36   C     C_R   0.215153 0.758535 0.172877 -0.110019
C37   C     C_R   0.769481 0.228226 0.809592 -0.117995
C38   C     C_R   0.932419 0.552232 0.420676 -0.161488
C39   C     C_R   0.067301 0.450566 0.579536 -0.153009
C40   C     C_3   0.748832 0.260948 0.091497 -0.315752
C41   C     C_3   0.549956 0.802161 0.012481 -0.305332
C42   C     C_3   0.341577 0.169904 0.943137 -0.293655
C43   C     C_3   0.935705 0.916485 0.938123 -0.286741
C44   C     C_R   0.940217 0.442296 0.580464 -0.044405
C45   C     C_R   0.059643 0.560095 0.419217 -0.038791
C46   C     C_R   0.349977 0.204623 0.174105 0.108874
C47   C     C_R   0.807950 0.811078 0.739682 0.091358
C48   C     C_R   0.362190 0.159829 0.272643 -0.137633
Cu1   Cu    Cu3+1 0.499990 0.499990 0.592680 0.985201
Cu2   Cu    Cu3+1 0.500010 0.500010 0.407320 0.978937
H1    H     H_    0.252443 0.809697 0.110399 0.102675
H2    H     H_    0.854541 0.521160 0.765483 0.131626
H3    H     H_    0.153003 0.609169 0.077412 0.124037
H4    H     H_    0.754216 0.397083 0.895760 0.104280
H5    H     H_    0.879495 0.593651 0.360164 0.129787
H6    H     H_    0.119884 0.408095 0.639726 0.135564
H7    H     H_    0.284253 0.163656 0.323975 0.112353
H8    H     H_    0.764627 0.829598 0.581372 0.109732
H9    H     H_    0.719236 0.114660 0.340341 0.234568
H10   H     H_    0.686237 0.973371 0.292188 0.230414
H11   H     H_    0.384607 0.869469 0.756838 0.245803
H12   H     H_    0.725335 0.173675 0.866710 0.133871
H13   H     H_    0.425793 0.018234 0.766109 0.220723
H14   H     H_    0.721024 0.074943 0.078748 0.286813
H15   H     H_    0.784964 0.265256 0.170548 0.172515
H16   H     H_    0.696771 0.345965 0.075722 0.152659
H17   H     H_    0.828138 0.254757 0.038521 0.130742
H18   H     H_    0.555357 0.980465 0.964588 0.283648
H19   H     H_    0.463489 0.774328 0.973428 0.167504
H20   H     H_    0.527499 0.832354 0.091404 0.139183
H21   H     H_    0.613807 0.722945 0.016362 0.148259
H22   H     H_    0.516219 0.241496 0.961881 0.266065
H23   H     H_    0.466372 0.878297 0.342394 0.131571
H24   H     H_    0.352176 0.191931 0.861541 0.130699
H25   H     H_    0.248296 0.200933 0.965708 0.189378
H26   H     H_    0.349310 0.069372 0.952350 0.153096
H27   H     H_    0.813299 0.787023 0.988903 0.258047
H28   H     H_    0.883476 0.000708 0.959561 0.135657
H29   H     H_    0.989970 0.933599 0.868400 0.171565
H30   H     H_    0.000902 0.894629 0.000416 0.137236
H31   H     H_    0.222142 0.336516 0.195667 0.237593
H32   H     H_    0.165734 0.200494 0.154899 0.210096
H33   H     H_    0.976246 0.837292 0.679773 0.215228
H34   H     H_    0.562086 0.120415 0.653636 0.137077
H35   H     H_    0.926320 0.691915 0.672493 0.230911
H36   H     H_    0.261756 0.895287 0.285699 0.101177
H37   H     H_    0.799132 0.075672 0.707133 0.115726
H38   H     H_    0.179825 0.778041 0.429552 0.094626
H39   H     H_    0.895881 0.199021 0.574172 0.098658
H40   H     H_    0.062936 0.494510 0.219244 0.098078
N1    N     N_1   0.500030 0.500030 0.268070 -0.176747
N2    N     N_3   0.930967 0.769325 0.720055 -0.613877
N3    N     N_1   0.499970 0.499970 0.731930 -0.174159
N4    N     N_3   0.694298 0.065795 0.274501 -0.646108
N5    N     N_3   0.441705 0.931511 0.795367 -0.660244
N6    N     N_2   0.670883 0.155239 0.076848 -0.540407
N7    N     N_2   0.607143 0.901377 0.959511 -0.526144
N8    N     N_2   0.435515 0.232628 0.002080 -0.485457
N9    N     N_2   0.852291 0.815169 0.922027 -0.480378
N10   N     N_3   0.237255 0.262886 0.145407 -0.629178
O1    O     O_R   0.499980 0.319630 0.578260 -0.500214
O2    O     O_R   0.500020 0.680370 0.421740 -0.505665
O3    O     O_R   0.500000 0.319650 0.421740 -0.487209
O4    O     O_R   0.500000 0.680350 0.578260 -0.487731
O5    O     O_R   0.319630 0.500000 0.578260 -0.501374
O6    O     O_R   0.680370 0.500000 0.421740 -0.507876
O7    O     O_R   0.319650 0.500020 0.421740 -0.484551
O8    O     O_R   0.680350 0.499980 0.578260 -0.487179

loop_
_geom_bond_atom_site_label_1
_geom_bond_atom_site_label_2
_ccdc_geom_bond_type
C9    N8    S    
C27   C29   A    
C47   N2    S    
C14   C18   A    
Cu1   O4    S    
C5    N4    S    
C48   H7    S    
H22   N8    S    
C43   H28   S    
C15   C19   A    
H33   N2    S    
C13   H34   S    
C11   C19   A    
C42   H25   S    
C17   C23   S    
C13   C18   A    
C35   C37   A    
C43   N9    S    
C12   O4    A    
C42   N8    S    
Cu1   O1    S    
C11   C14   A    
C43   H29   S    
H13   N5    S    
C3    C48   A    
C33   C36   A    
H18   N7    S    
C32   H2    S    
C38   C45   A    
C16   O7    A    
C16   C34   S    
C38   H5    S    
C26   H37   S    
C40   H17   S    
C31   C33   A    
C3    C19   S    
C28   H39   S    
C1    C15   S    
H9    N4    S    
C1    O3    A    
C41   H21   S    
C4    C18   S    
Cu2   O3    S    
C40   H16   S    
C35   H4    S    
C30   C44   S    
C10   N9    S    
C40   N6    S    
C26   C28   A    
H35   N2    S    
C37   H12   S    
Cu1   O8    S    
C33   H3    S    
C20   N1    T    
C46   C48   A    
C42   H24   S    
C34   C39   A    
C32   C35   A    
H14   N6    S    
C4    C6    A    
C11   H23   S    
C17   O8    A    
C5    C7    A    
C6    C8    A    
C43   H30   S    
C23   C44   A    
C29   C45   S    
C2    C4    A    
C8    N7    S    
C12   O2    A    
C7    N6    S    
C39   H6    S    
C31   H40   S    
C2    H8    S    
C6    N5    S    
C34   C45   A    
C36   H1    S    
C16   O5    A    
C12   C14   S    
Cu2   O2    S    
C40   H15   S    
C13   C15   A    
Cu2   O7    S    
C41   N7    S    
C1    O1    A    
C41   H19   S    
C7    C9    A    
C46   N10   S    
H32   N10   S    
C20   C22   S    
C3    C5    A    
Cu1   O5    S    
H11   N5    S    
C26   C37   A    
C39   C44   A    
H31   N10   S    
C2    C47   A    
C25   C27   A    
C23   C38   A    
C42   H26   S    
C28   C30   A    
C29   C31   A    
C17   O6    A    
C30   C32   A    
C21   N3    T    
C25   H36   S    
H27   N9    S    
C22   C24   T    
C27   H38   S    
C25   C36   A    
Cu2   N1    S    
C9    C46   A    
C8    C10   A    
Cu1   Cu2   S    
C21   C24   S    
C10   C47   A    
Cu2   O6    S    
Cu1   N3    S    
C41   H20   S    
H10   N4    S    
