data_mof_unit_39873.cif
_audit_creation_date              2013-03-05T15:48:45-0500
_audit_creation_method            fapswitch 2.2
_symmetry_space_group_name_H-M    P1
_symmetry_Int_Tables_number       1
_space_group_crystal_system       triclinic
_cell_length_a                    10.749789
_cell_length_b                    12.992025
_cell_length_c                    11.663875
_cell_angle_alpha                 99.829337
_cell_angle_beta                  93.5857
_cell_angle_gamma                 90.414599
_cell_volume                      1601.67402376

loop_
_atom_site_label
_atom_site_type_symbol
_atom_site_description
_atom_site_fract_x
_atom_site_fract_y
_atom_site_fract_z
_atom_type_partial_charge
O1    O     O_R   0.506640 0.354460 0.582000 -0.600805
O2    O     O_R   0.490840 0.341410 0.386200 -0.541075
C1    C     C_R   0.503230 0.299157 0.478450 0.845125
O3    O     O_R   0.325590 0.506510 0.597900 -0.543624
O4    O     O_R   0.309790 0.493450 0.402100 -0.606530
C2    C     C_R   0.259736 0.501827 0.500627 0.790238
Cu1   Cu    Cu3+1 0.509350 0.507730 0.615930 0.997577
Cu2   Cu    Cu3+1 0.490650 0.492270 0.384070 1.010067
O5    O     O_R   0.509160 0.658590 0.613800 -0.578539
O6    O     O_R   0.493360 0.645540 0.418000 -0.587845
O7    O     O_R   0.690210 0.506550 0.597900 -0.605750
O8    O     O_R   0.674410 0.493490 0.402100 -0.539622
C3    C     C_R   0.500244 0.700793 0.521353 0.843973
C4    C     C_R   0.740157 0.502232 0.499536 0.826039
C5    C     C_3   0.072865 0.405275 0.543786 -0.353280
H1    H     H_    0.112302 0.400837 0.633027 0.243484
H2    H     H_    0.103472 0.333740 0.486374 0.172300
C6    C     C_3   0.929319 0.405170 0.540999 -0.426550
H3    H     H_    0.891147 0.333983 0.481965 0.195927
H4    H     H_    0.899421 0.401375 0.629882 0.221571
H5    H     H_    0.906907 0.598343 0.673291 0.210623
C7    C     C_3   0.076527 0.606088 0.577879 0.204934
C8    C     C_3   0.064019 0.500845 0.374609 -0.435103
C9    C     C_3   0.121765 0.503811 0.501137 -0.041443
H6    H     H_    0.102908 0.566468 0.336971 0.229644
H7    H     H_    0.089927 0.427342 0.317607 0.185058
C10   C     C_3   0.877835 0.504524 0.498529 -0.006844
C11   C     C_3   0.932969 0.601730 0.583146 -0.386834
C12   C     C_3   0.921232 0.506318 0.373386 0.230220
H8    H     H_    0.881013 0.437034 0.312420 0.173519
H9    H     H_    0.099721 0.672626 0.533457 0.122608
H10   H     H_    0.892209 0.674644 0.560356 0.185379
C13   C     C_R   0.495071 0.813817 0.533405 -0.122222
C14   C     C_R   0.510544 0.185624 0.465807 -0.191217
C15   C     C_R   0.549553 0.015280 0.354574 -0.197100
C16   C     C_R   0.549966 0.123520 0.363140 0.334923
C17   C     C_R   0.476122 0.138721 0.558967 -0.233003
C18   C     C_R   0.477615 0.030435 0.551457 0.046477
C19   C     C_R   0.515718 0.968838 0.447885 0.059753
C20   C     C_R   0.522813 0.861244 0.439338 -0.195431
C21   C     C_R   0.458041 0.873965 0.636544 -0.212093
C22   C     C_R   0.446002 0.981975 0.645823 0.328404
H11   H     H_    0.552147 0.814401 0.359760 0.172298
H12   H     H_    0.433745 0.836467 0.708459 0.219842
H13   H     H_    0.580717 0.967465 0.276447 0.183036
H14   H     H_    0.449668 0.187700 0.637931 0.217340
N1    N     N_R   0.523430 0.519360 0.790130 -0.202072
N2    N     N_R   0.476570 0.480640 0.209880 -0.215447
C23   C     C_R   0.378321 0.403437 0.022909 0.285284
C24   C     C_R   0.391430 0.412868 0.145152 0.081848
C25   C     C_R   0.551189 0.541166 0.156370 0.055125
C26   C     C_R   0.542519 0.534300 0.033673 -0.003307
C27   C     C_R   0.454886 0.464637 0.965559 -0.031746
C28   C     C_R   0.447251 0.458990 0.842539 0.143725
C29   C     C_R   0.608299 0.586750 0.855833 0.114438
C30   C     C_R   0.619273 0.595538 0.977808 -0.236831
H15   H     H_    0.380964 0.406371 0.787877 0.172133
H16   H     H_    0.667929 0.634152 0.813589 0.134005
H17   H     H_    0.687449 0.649732 0.027997 0.177046
H18   H     H_    0.332812 0.365807 0.188795 0.160760
H19   H     H_    0.617132 0.595316 0.209344 0.181753
Cl1   Cl    Cl    0.869671 0.620276 0.316447 -0.653803
N3    N     N_R   0.399498 0.040052 0.749989 0.131309
O9    O     O_R   0.436189 0.017786 0.851221 -0.276998
O10   O     O_R   0.303751 0.099837 0.742677 -0.299021
N4    N     N_R   0.597712 0.168599 0.270214 0.136109
O11   O     O_R   0.568504 0.126694 0.162295 -0.290750
O12   O     O_R   0.687459 0.238302 0.292725 -0.365161
Cl2   Cl    Cl    0.265049 0.314839 0.946180 -0.508898
N5    N     N_R   0.137995 0.626799 0.695856 0.141519
O13   O     O_R   0.118122 0.566511 0.771481 -0.338498
O14   O     O_R   0.209246 0.709434 0.727560 -0.337971

loop_
_geom_bond_atom_site_label_1
_geom_bond_atom_site_label_2
_geom_bond_distance
_ccdc_geom_bond_type
O1    C1    1.293887 A    
C5    C6    1.541384 S    
N4    O12   1.301643 A    
C29   C30   1.405129 A    
N3    O10   1.301210 A    
C3    C13   1.452847 S    
C17   C18   1.394838 A    
C4    C10   1.480910 S    
C10   C12   1.563772 S    
C14   C17   1.400748 A    
C21   C22   1.396478 A    
O5    C3    1.289278 A    
C15   C19   1.396947 A    
C15   C16   1.392639 A    
C25   H19   1.081110 S    
C30   H17   1.083367 S    
Cu2   O8    1.973081 S    
C24   H18   1.082052 S    
C20   H11   1.085300 S    
N2    C24   1.363036 A    
N4    O11   1.301366 A    
C2    C9    1.483946 S    
Cu1   Cu2   2.672155 S    
C23   Cl2   1.760755 S    
C27   C28   1.421359 A    
C12   Cl1   1.800505 S    
Cu1   O7    1.968471 S    
C12   H8    1.113652 S    
O3    Cu1   1.973083 S    
C23   C27   1.413533 A    
C5    H1    1.110020 S    
C8    C12   1.536376 S    
Cu2   O6    1.962484 S    
C5    C9    1.550182 S    
C21   H12   1.083620 S    
H5    C11   1.112844 S    
O8    C4    1.287758 A    
O6    C3    1.290975 A    
O2    C1    1.289053 A    
C13   C21   1.399901 A    
C7    C9    1.568782 S    
C8    H6    1.113538 S    
O4    C2    1.287447 A    
O7    C4    1.289667 A    
C16   N4    1.436388 S    
C8    H7    1.114350 S    
C13   C20   1.393383 A    
N5    O14   1.301202 A    
C7    H9    1.115295 S    
C8    C9    1.558999 S    
O3    C2    1.291300 A    
C25   C26   1.415754 A    
C15   H13   1.084644 S    
C18   C22   1.415508 A    
C26   C30   1.404675 A    
C11   H10   1.112394 S    
N5    O13   1.301623 A    
C18   C19   1.415677 A    
C26   C27   1.409358 A    
C14   C16   1.415324 A    
C6    H4    1.113285 S    
N1    C29   1.363114 A    
C23   C24   1.408123 A    
C29   H16   1.081823 S    
C10   C11   1.552657 S    
Cu1   O5    1.964385 S    
O4    Cu2   1.968470 S    
C19   C20   1.387337 A    
C6    H3    1.113387 S    
O1    Cu1   1.962484 S    
C7    C11   1.549285 S    
C1    C14   1.460293 S    
N1    C28   1.369850 A    
C17   H14   1.081370 S    
C5    H2    1.113522 S    
C22   N3    1.436604 S    
C7    N5    1.469651 S    
N2    C25   1.368350 A    
O2    Cu2   1.964385 S    
C6    C10   1.553131 S    
N3    O9    1.301333 A    
Cu2   N2    2.007501 S    
C28   H15   1.081161 S    
Cu1   N1    2.007615 S    
