data_mof_unit_20964.cif
_audit_creation_date              2013-03-05T15:47:08-0500
_audit_creation_method            fapswitch 2.2
_symmetry_space_group_name_H-M    P1
_symmetry_Int_Tables_number       1
_space_group_crystal_system       triclinic
_cell_length_a                    10.209968
_cell_length_b                    10.877784
_cell_length_c                    13.628685
_cell_angle_alpha                 91.729472
_cell_angle_beta                  100.015564
_cell_angle_gamma                 96.448163
_cell_volume                      1479.21776736

loop_
_atom_site_label
_atom_site_type_symbol
_atom_site_description
_atom_site_fract_x
_atom_site_fract_y
_atom_site_fract_z
_atom_type_partial_charge
O1    O     O_R   0.935190 0.693030 0.507870 -0.628806
O2    O     O_R   0.064810 0.306970 0.492130 -0.636562
O3    O     O_R   0.142080 0.658430 0.482770 -0.565026
O4    O     O_R   0.857920 0.341570 0.517230 -0.560499
C1    C     C_R   0.054163 0.732237 0.493162 0.835755
C2    C     C_R   0.945665 0.267849 0.506417 0.833523
O5    O     O_R   0.969700 0.527180 0.651960 -0.595834
O6    O     O_R   0.030300 0.472820 0.348040 -0.618880
O7    O     O_R   0.176600 0.492580 0.626860 -0.618668
O8    O     O_R   0.823400 0.507420 0.373140 -0.617478
C3    C     C_R   0.093153 0.511742 0.685717 0.874312
C4    C     C_R   0.906015 0.485424 0.314336 0.873286
Zn1   Zn    Zn3+2 0.861850 0.523100 0.516760 0.997945
Zn2   Zn    Zn3+2 0.138150 0.476900 0.483240 0.967094
C5    C     C_R   0.139956 0.508150 0.792851 -0.059367
C6    C     C_R   0.850437 0.461310 0.208643 -0.057132
C7    C     C_R   0.116441 0.542179 0.964524 -0.204915
C8    C     C_R   0.849871 0.363308 0.047044 -0.194304
C9    C     C_R   0.064043 0.542765 0.863063 -0.192654
C10   C     C_R   0.916778 0.400644 0.143342 -0.212278
C11   C     C_R   0.264413 0.467555 0.824344 -0.254887
C12   C     C_R   0.719565 0.486366 0.176754 -0.241893
C13   C     C_R   0.317585 0.463110 0.925250 0.096653
C14   C     C_R   0.646814 0.439832 0.084679 0.098310
C15   C     C_R   0.243917 0.505404 0.995999 0.176350
C16   C     C_R   0.715064 0.382090 0.017381 0.166451
C17   C     C_R   0.446712 0.426921 0.956797 0.064266
C18   C     C_R   0.509041 0.452908 0.057288 0.074650
C19   C     C_R   0.431309 0.489735 0.127237 -0.215566
C20   C     C_R   0.516042 0.366922 0.891287 -0.224022
C21   C     C_R   0.300057 0.513746 0.096840 -0.245405
C22   C     C_R   0.647636 0.343659 0.921834 -0.220245
H1    H     H_    0.244127 0.543540 0.152129 0.153408
H2    H     H_    0.697458 0.297412 0.869840 0.162260
H3    H     H_    0.675392 0.542567 0.225617 0.157277
H4    H     H_    0.322104 0.445382 0.768620 0.159359
H5    H     H_    0.018556 0.380311 0.167035 0.155410
H6    H     H_    0.966464 0.573148 0.839687 0.170656
H7    H     H_    0.059052 0.573539 0.018208 0.155907
H8    H     H_    0.902411 0.317702 0.996571 0.152514
H9    H     H_    0.468450 0.497825 0.206551 0.153321
H10   H     H_    0.469576 0.333135 0.816724 0.156935
H11   H     H_    0.112971 0.108035 0.534216 0.209436
H12   H     H_    0.885519 0.891315 0.467674 0.215679
C23   C     C_2   0.089461 0.864897 0.492113 0.115121
C24   C     C_2   0.909414 0.135390 0.505813 0.115953
C25   C     C_2   0.988406 0.934442 0.486584 -0.233179
C26   C     C_2   0.010112 0.065356 0.513006 -0.229674
H13   H     H_    0.578184 0.440370 0.420619 0.173943
H14   H     H_    0.417302 0.601884 0.541605 0.172546
N1    N     N_2   0.322180 0.446120 0.460900 -0.044182
N2    N     N_2   0.677820 0.553880 0.539100 -0.027236
C27   C     C_2   0.429527 0.518837 0.499715 -0.067009
C28   C     C_2   0.568533 0.498028 0.484725 -0.029729
N3    N     N_R   0.770565 0.084250 0.490089 0.219490
O9    O     O_R   0.681547 0.135938 0.430167 -0.359509
O10   O     O_R   0.730349 0.000298 0.547769 -0.395553
N4    N     N_R   0.227744 0.916953 0.503249 0.218073
O11   O     O_R   0.320503 0.865390 0.559576 -0.380796
O12   O     O_R   0.262927 0.003146 0.445549 -0.387379
N5    N     N_2   0.670421 0.598054 0.634042 -0.249363
H15   H     H_    0.592671 0.557761 0.666100 0.203439
C29   C     C_3   0.694693 0.731191 0.647567 -0.583821
H16   H     H_    0.691729 0.759350 0.726069 0.208071
H17   H     H_    0.616432 0.773862 0.597375 0.267542
H18   H     H_    0.795025 0.765086 0.631693 0.263775
N6    N     N_2   0.342103 0.332764 0.421904 -0.237252
H19   H     H_    0.334264 0.263837 0.471585 0.275025
C30   C     C_3   0.261180 0.299154 0.325090 -0.600172
H20   H     H_    0.296304 0.216942 0.292280 0.241551
H21   H     H_    0.270671 0.376441 0.274631 0.206322
H22   H     H_    0.154550 0.275645 0.331311 0.247663

loop_
_geom_bond_atom_site_label_1
_geom_bond_atom_site_label_2
_geom_bond_distance
_ccdc_geom_bond_type
C24   N3    1.440520 S    
C15   C21   1.390085 A    
C30   H22   1.108473 S    
C20   C22   1.389494 A    
O7    Zn2   1.926647 S    
C21   H1    1.084158 S    
C16   C22   1.391066 A    
C12   H3    1.078162 S    
C9    H6    1.083148 S    
C13   C17   1.416890 A    
Zn1   N2    2.017263 S    
H11   C26   1.085717 S    
Zn2   N1    2.017263 S    
C8    C16   1.405058 A    
H12   C25   1.085280 S    
C6    C10   1.400327 A    
O6    C4    1.296205 A    
C7    C15   1.403959 A    
O3    C1    1.292128 A    
N3    O9    1.301311 A    
C29   H17   1.110935 S    
C3    C5    1.458317 S    
N4    O11   1.301254 A    
C29   H18   1.108683 S    
C30   H21   1.108547 S    
C19   C21   1.388420 A    
C11   H4    1.076246 S    
N1    N6    1.377915 S    
C27   C28   1.509121 S    
C17   C20   1.418658 A    
O5    C3    1.295804 A    
C10   H5    1.082697 S    
O7    C3    1.296255 A    
C14   C16   1.416740 A    
O2    C2    1.292253 A    
O3    Zn2   1.970767 S    
O8    C4    1.296104 A    
N6    H19   1.031038 S    
O1    C1    1.292707 A    
C12   C14   1.391270 A    
C18   C19   1.417980 A    
C7    C9    1.393665 A    
N2    C28   1.302407 D    
C8    C10   1.395605 A    
N2    N5    1.384019 S    
N3    O10   1.300732 A    
C11   C13   1.392302 A    
N5    H15   1.033044 S    
O2    Zn2   1.930385 S    
C30   H20   1.109948 S    
C23   N4    1.441438 S    
H14   C27   1.084701 S    
O1    Zn1   1.930384 S    
N4    O12   1.301394 A    
H13   C28   1.084959 S    
C24   C26   1.338807 D    
C14   C18   1.415542 A    
C5    C11   1.393440 A    
C13   C15   1.417852 A    
O4    C2    1.291331 A    
C7    H7    1.083482 S    
C23   C25   1.339483 D    
C17   C18   1.411968 A    
N5    C29   1.442282 S    
C8    H8    1.083783 S    
C19   H9    1.078970 S    
C20   H10   1.078604 S    
O6    Zn2   1.971803 S    
O5    Zn1   1.971803 S    
C2    C24   1.446224 S    
N6    C30   1.442602 S    
C25   C26   1.441224 S    
C5    C9    1.399991 A    
C1    C23   1.448690 S    
C4    C6    1.457803 S    
O4    Zn1   1.970767 S    
C6    C12   1.391248 A    
C29   H16   1.110385 S    
N1    C27   1.298117 D    
O8    Zn1   1.926646 S    
C22   H2    1.084105 S    
