data_mof_unit_30095.cif
_audit_creation_date              2012-12-11T15:29:46-0500
_audit_creation_method            fapswitch 2.2
_symmetry_space_group_name_H-M    P1
_symmetry_Int_Tables_number       1
_space_group_crystal_system       triclinic
_cell_length_a                    21.430422
_cell_length_b                    7.244402
_cell_length_c                    14.743327
_cell_angle_alpha                 90.243177
_cell_angle_beta                  74.671242
_cell_angle_gamma                 89.946747
_cell_volume                      2207.45705081

loop_
_atom_site_label
_atom_site_type_symbol
_atom_type_description
_atom_site_fract_x
_atom_site_fract_y
_atom_site_fract_z
_atom_type_partial_charge
O1    O     O_R   0.464160 0.506670 0.130070 -0.535345
O2    O     O_R   0.535840 0.006670 0.869930 -0.534871
O3    O     O_R   0.589710 0.179080 0.006710 -0.547159
O4    O     O_R   0.410290 0.679080 0.993290 -0.547061
C1    C     C_R   0.616274 0.344426 0.001948 0.676573
C2    C     C_R   0.383730 0.844518 0.998004 0.677248
O5    O     O_R   0.467940 0.177220 0.138010 -0.540355
O6    O     O_R   0.532060 0.677220 0.861990 -0.540013
O7    O     O_R   0.413200 0.002810 0.002170 -0.539780
O8    O     O_R   0.586800 0.502810 0.997830 -0.539952
C3    C     C_R   0.455755 0.346075 0.174345 0.688023
C4    C     C_R   0.544235 0.845132 0.825647 0.688723
O9    O     O_3   0.482180 0.337850 0.955280 -0.375621
O10   O     O_3   0.517820 0.837850 0.044720 -0.376378
V1    V     V_3+5 0.503310 0.064600 0.008300 1.388052
V2    V     V_3+5 0.496690 0.564600 0.991700 1.389531
C5    C     C_R   0.574052 0.853418 0.724305 -0.066347
C6    C     C_R   0.426371 0.358927 0.275766 -0.069953
C7    C     C_R   0.929295 0.869038 0.276358 -0.036922
C8    C     C_R   0.071183 0.363840 0.723893 -0.034122
C9    C     C_R   0.562034 0.886385 0.567164 -0.162677
C10   C     C_R   0.436401 0.445010 0.429428 -0.163264
C11   C     C_R   0.534873 0.881397 0.663657 -0.210347
C12   C     C_R   0.463877 0.422151 0.333671 -0.205471
C13   C     C_R   0.641784 0.836582 0.688577 0.130727
C14   C     C_R   0.359706 0.324104 0.313289 0.128869
C15   C     C_R   0.670900 0.865671 0.590845 0.081999
C16   C     C_R   0.329213 0.371681 0.408854 0.082340
C17   C     C_R   0.629293 0.876636 0.530277 0.087746
C18   C     C_R   0.369831 0.419352 0.467526 0.086203
C19   C     C_R   0.739306 0.881071 0.550346 0.076280
C20   C     C_R   0.260492 0.372669 0.449017 0.078195
C21   C     C_R   0.764913 0.870411 0.450504 0.037964
C22   C     C_R   0.234976 0.385368 0.548821 0.037303
C23   C     C_R   0.721150 0.867626 0.393736 -0.172882
C24   C     C_R   0.278235 0.419710 0.604458 -0.181066
C25   C     C_R   0.654882 0.877001 0.433053 -0.175110
C26   C     C_R   0.343919 0.442064 0.564023 -0.176983
C27   C     C_R   0.782353 0.922341 0.605450 -0.144269
C28   C     C_R   0.216420 0.377094 0.392740 -0.145942
C29   C     C_R   0.848661 0.931240 0.566287 -0.226979
C30   C     C_R   0.150082 0.369948 0.432029 -0.228405
C31   C     C_R   0.874777 0.904791 0.470149 0.143366
C32   C     C_R   0.124733 0.363983 0.529152 0.145912
C33   C     C_R   0.833421 0.873522 0.410623 0.078515
C34   C     C_R   0.166682 0.372543 0.589202 0.078648
C35   C     C_R   0.942025 0.917378 0.432473 -0.158315
C36   C     C_R   0.057374 0.355462 0.566816 -0.158408
C37   C     C_R   0.968996 0.902332 0.335915 -0.185872
C38   C     C_R   0.030748 0.356497 0.663764 -0.185347
C39   C     C_R   0.862457 0.850975 0.313174 -0.190103
C40   C     C_R   0.138325 0.369337 0.687408 -0.203341
H1    H     H_    0.623220 0.882384 0.386621 0.131572
H2    H     H_    0.374921 0.476056 0.609115 0.138251
H3    H     H_    0.834669 0.822436 0.263559 0.123763
H4    H     H_    0.166794 0.369668 0.737722 0.135363
H5    H     H_    0.020733 0.918739 0.307448 0.101345
H6    H     H_    0.978666 0.352486 0.691938 0.099560
H7    H     H_    0.879712 0.963257 0.611567 0.122841
H8    H     H_    0.118251 0.372186 0.385802 0.123077
H9    H     H_    0.530336 0.899835 0.521142 0.128411
H10   H     H_    0.467107 0.486904 0.473646 0.128617
H11   H     H_    0.482950 0.894160 0.690882 0.124125
H12   H     H_    0.514874 0.450589 0.304874 0.123743
H13   H     H_    0.736497 0.868380 0.318054 0.149936
H14   H     H_    0.262567 0.440137 0.679455 0.158643
H15   H     H_    0.765827 0.961011 0.678493 0.162099
H16   H     H_    0.231607 0.398131 0.317899 0.161384
H17   H     H_    0.973638 0.943646 0.477602 0.118610
H18   H     H_    0.025229 0.350058 0.521118 0.117717
C41   C     C_3   0.228211 0.767165 0.908226 0.503121
C42   C     C_3   0.771643 0.272945 0.092672 0.507865
H19   H     H_    0.222444 0.847184 0.846635 0.065938
H20   H     H_    0.777531 0.356601 0.153381 0.065846
C43   C     C_3   0.301130 0.756069 0.907442 0.005479
C44   C     C_3   0.698679 0.261998 0.093622 0.006031
H21   H     H_    0.314118 0.607464 0.909682 0.172556
H22   H     H_    0.685406 0.113347 0.093216 0.171719
H23   H     H_    0.179219 0.611674 0.085715 0.183708
H24   H     H_    0.820652 0.106941 0.916793 0.184511
H25   H     H_    0.286384 0.602332 0.083501 0.144492
H26   H     H_    0.713470 0.096883 0.919625 0.145366
C45   C     C_3   0.197758 0.755074 0.085776 -0.317804
C46   C     C_3   0.802171 0.250168 0.915288 -0.316479
C47   C     C_3   0.215548 0.060618 0.002856 -0.406881
C48   C     C_3   0.784718 0.560549 0.994846 -0.409310
C49   C     C_3   0.187630 0.862622 0.999818 -0.012007
C50   C     C_3   0.812384 0.362893 0.000090 -0.013913
H27   H     H_    0.187414 0.135535 0.066730 0.178208
H28   H     H_    0.813034 0.631674 0.930259 0.179071
H29   H     H_    0.211025 0.140736 0.940615 0.176725
H30   H     H_    0.789213 0.644367 0.056277 0.175306
C51   C     C_3   0.312796 0.852315 0.997227 0.013738
C52   C     C_3   0.687215 0.352342 0.002691 0.012179
C53   C     C_3   0.270564 0.748869 0.084313 -0.370505
C54   C     C_3   0.729360 0.243444 0.916896 -0.371009
C55   C     C_3   0.287323 0.054602 0.003888 -0.334195
C56   C     C_3   0.712972 0.554243 0.993653 -0.334375
H31   H     H_    0.316570 0.140249 0.945726 0.155230
H32   H     H_    0.683800 0.643613 0.050712 0.154928
H33   H     H_    0.292185 0.119142 0.070310 0.162865
H34   H     H_    0.708261 0.614490 0.926444 0.164934
H35   H     H_    0.169626 0.822338 0.152002 0.127153
H36   H     H_    0.830301 0.313663 0.848363 0.126345
H37   H     H_    0.277079 0.812268 0.150103 0.152161
H38   H     H_    0.722845 0.302169 0.850343 0.148497
O11   O     O_R   0.913210 0.208550 0.002110 -0.502447
O12   O     O_R   0.086790 0.708550 0.997890 -0.502193
O13   O     O_R   0.032060 0.539960 0.861980 -0.532620
O14   O     O_R   0.967940 0.039960 0.138020 -0.531996
C57   C     C_R   0.043745 0.372200 0.825482 0.707763
C58   C     C_R   0.956344 0.873126 0.174593 0.708886
O15   O     O_R   0.910290 0.538020 0.993280 -0.553008
O16   O     O_R   0.089710 0.038020 0.006720 -0.552883
O17   O     O_R   0.964160 0.712340 0.130090 -0.544247
O18   O     O_R   0.035840 0.212340 0.869910 -0.543287
C59   C     C_R   0.883919 0.370131 0.998254 0.675419
C60   C     C_R   0.116093 0.870007 0.001697 0.674767
O19   O     O_3   0.017820 0.379210 0.044690 -0.378353
O20   O     O_3   0.982180 0.879210 0.955310 -0.378520
V3    V     V_3+5 0.996690 0.652500 0.991710 1.469898
V4    V     V_3+5 0.003310 0.152500 0.008290 1.471477
F1    F     F_    0.205330 0.590454 0.899965 -0.717268
F2    F     F_    0.794296 0.096780 0.102807 -0.713105
N1    N     N_3   0.341777 0.830610 0.819043 -0.698748
H39   H     H_    0.390484 0.812864 0.817110 0.214613
H40   H     H_    0.333105 0.971558 0.814042 0.227232
N2    N     N_3   0.658162 0.342451 0.181075 -0.692999
H41   H     H_    0.609374 0.324929 0.183425 0.215417
H42   H     H_    0.667117 0.483639 0.184365 0.224488
N3    N     N_3   0.679315 0.771888 0.749641 -0.702873
H43   H     H_    0.662061 0.642173 0.775386 0.235163
H44   H     H_    0.673118 0.863089 0.806528 0.205711
N4    N     N_3   0.325047 0.227711 0.256607 -0.700693
H45   H     H_    0.347134 0.099544 0.237261 0.241520
H46   H     H_    0.327818 0.303978 0.195600 0.202774

loop_
_geom_bond_atom_site_label_1
_geom_bond_atom_site_label_2
_ccdc_geom_bond_type
C45   C49   S    
C3    C6    S    
O17   V3    S    
C15   C17   A    
C21   C33   A    
O1    C3    A    
O12   V3    S    
C42   C44   S    
O2    C4    A    
N2    H41   S    
C2    O7    A    
C1    C52   S    
C47   H29   S    
C35   C37   A    
C52   C56   S    
C7    C58   S    
O5    C3    A    
C5    C11   A    
C45   H35   S    
C6    C12   A    
C10   C12   A    
C41   F1    S    
C23   C25   A    
C44   H22   S    
O13   C57   A    
H25   C53   S    
C24   H14   S    
C33   C39   A    
C34   C40   A    
C37   H5    S    
C18   C26   A    
C46   C54   S    
C35   H17   S    
C8    C38   A    
C53   H37   S    
C44   C52   S    
C16   C18   A    
C6    C14   A    
C4    C5    S    
C19   C21   A    
C57   O18   A    
C22   C34   A    
C9    H9    S    
H24   C46   S    
C25   H1    S    
C11   H11   S    
C42   C50   S    
O6    V2    S    
C42   F2    S    
C29   C31   A    
C30   C32   A    
C55   H31   S    
C32   C34   A    
C47   C49   S    
C41   C43   S    
H26   C54   S    
C15   C19   A    
C38   H6    S    
O12   C60   A    
C16   C20   A    
C29   H7    S    
C49   C60   S    
C42   H20   S    
C48   H28   S    
C30   H8    S    
C41   H19   S    
C47   H27   S    
N4    H46   S    
O5    V1    S    
C39   H3    S    
N3    H44   S    
C56   H34   S    
C9    C17   A    
C43   N1    S    
C20   C22   A    
O4    V2    S    
C14   N4    S    
C10   H10   S    
C8    C57   S    
C43   H21   S    
C7    C37   A    
C26   H2    S    
O6    C4    A    
C2    C51   S    
C45   C53   S    
O1    V2    S    
C52   C54   S    
O2    V1    S    
C31   C33   A    
O16   C60   A    
O18   V4    S    
O15   C59   A    
O4    C2    A    
C56   H32   S    
C9    C11   A    
N1    H39   S    
C44   N2    S    
C41   C49   S    
N3    H43   S    
C13   N3    S    
C51   C55   S    
O3    V1    S    
O20   V3    S    
C43   C51   S    
O19   V4    S    
C54   H38   S    
C10   C18   A    
C27   H15   S    
C46   C50   S    
C36   H18   S    
C28   C30   A    
O3    C1    A    
N2    H42   S    
N4    H45   S    
C13   C15   A    
C14   C16   A    
C5    C13   A    
C24   C26   A    
O7    V1    S    
C1    O8    A    
C8    C40   A    
C32   C36   A    
O8    V2    S    
O14   V4    S    
H23   C45   S    
O13   V3    S    
C51   C53   S    
C46   H36   S    
C36   C38   A    
C21   C23   A    
C22   C24   A    
C19   C27   A    
C48   C50   S    
C20   C28   A    
C48   C56   S    
O14   C58   A    
C47   C55   S    
O16   V4    S    
C7    C39   A    
O15   V3    S    
C27   C29   A    
C12   H12   S    
C28   H16   S    
O9    V2    S    
C17   C25   A    
N1    H40   S    
C23   H13   S    
O10   V1    S    
C48   H30   S    
O11   V4    S    
C50   C59   S    
C31   C35   A    
O11   C59   A    
C58   O17   A    
C55   H33   S    
C40   H4    S    
