data_mof_unit_29066.cif
_audit_creation_date              2012-12-10T17:42:35-0500
_audit_creation_method            fapswitch 2.2
_symmetry_space_group_name_H-M    P1
_symmetry_Int_Tables_number       1
_space_group_crystal_system       triclinic
_cell_length_a                    9.951308
_cell_length_b                    10.666224
_cell_length_c                    13.054321
_cell_angle_alpha                 92.644369
_cell_angle_beta                  69.23364
_cell_angle_gamma                 88.730959
_cell_volume                      1293.12500137

loop_
_atom_site_label
_atom_site_type_symbol
_atom_type_description
_atom_site_fract_x
_atom_site_fract_y
_atom_site_fract_z
_atom_type_partial_charge
C1    C     C_R   0.501959 0.739566 0.490873 0.902514
C2    C     C_R   0.366586 0.481153 0.823008 -0.075861
C3    C     C_R   0.252319 0.899888 0.472398 0.499769
C4    C     C_R   0.419644 0.493463 0.704263 0.959082
C5    C     C_R   0.117135 0.963077 0.520330 -0.315705
C6    C     C_R   0.100778 0.069686 0.589730 -0.329243
C7    C     C_R   0.222097 0.123681 0.601931 0.483278
C8    C     C_R   0.360461 0.066761 0.544115 -0.033904
C9    C     C_R   0.370968 0.944310 0.498244 -0.026045
C10   C     C_R   0.500820 0.873655 0.481196 -0.078080
C11   C     C_R   0.625527 0.933645 0.478330 -0.234046
C12   C     C_R   0.433381 0.476595 0.984025 0.022974
C13   C     C_R   0.621644 0.061203 0.495806 -0.231262
C14   C     C_R   0.490527 0.128709 0.525557 -0.027213
C15   C     C_R   0.784776 0.669825 0.640627 -0.148383
C16   C     C_R   0.496026 0.261303 0.510789 0.960939
C17   C     C_R   0.812317 0.756160 0.711186 -0.273085
C18   C     C_R   0.946806 0.758890 0.716334 -0.276685
C19   C     C_R   0.058024 0.675186 0.650193 0.472796
C20   C     C_R   0.035140 0.585174 0.572270 0.096504
C21   C     C_R   0.891392 0.584259 0.570176 0.099033
C22   C     C_R   0.962067 0.419725 0.432989 -0.133651
C23   C     C_R   0.459751 0.434941 0.874326 0.013179
C24   C     C_R   0.104786 0.419897 0.432817 -0.102097
C25   C     C_R   0.580796 0.500088 0.295417 0.846404
C26   C     C_R   0.771117 0.356403 0.015037 -0.167476
C27   C     C_R   0.633096 0.485672 0.176313 -0.178025
C28   C     C_R   0.230490 0.533588 0.887156 -0.202793
C29   C     C_R   0.192279 0.550214 0.000203 -0.185206
C30   C     C_R   0.293754 0.525362 0.048350 -0.071511
C31   C     C_R   0.545055 0.462182 0.026479 0.026015
C32   C     C_R   0.666266 0.381307 0.969014 0.055829
C33   C     C_R   0.679039 0.322892 0.868176 -0.337707
C34   C     C_R   0.576596 0.348174 0.820106 0.459322
C35   C     C_R   0.542055 0.528020 0.122987 0.389661
C36   C     C_R   0.751351 0.404309 0.120529 -0.253896
H1    H     H_    0.823371 0.372438 0.160572 0.169707
H2    H     H_    0.862913 0.293224 0.972594 0.154254
H3    H     H_    0.259220 0.539807 0.136498 0.191261
H4    H     H_    0.179982 0.786007 0.384619 0.328505
H5    H     H_    0.994328 0.112763 0.630673 0.151436
H6    H     H_    0.104510 0.254264 0.706761 0.320924
H7    H     H_    0.184778 0.752223 0.718694 0.301441
H8    H     H_    0.486195 0.683572 0.214968 0.357627
H9    H     H_    0.155134 0.564625 0.849889 0.182019
H10   H     H_    0.086013 0.587873 0.050081 0.154481
H11   H     H_    0.668904 0.224225 0.699097 0.324878
H12   H     H_    0.024028 0.928905 0.504831 0.159448
H13   H     H_    0.726833 0.882226 0.462023 0.174836
H14   H     H_    0.721847 0.106805 0.484135 0.168240
H15   H     H_    0.935902 0.353845 0.378030 0.137298
H16   H     H_    0.676609 0.674487 0.645663 0.220314
H17   H     H_    0.727656 0.820754 0.763527 0.180880
H18   H     H_    0.964361 0.827002 0.774040 0.154772
H19   H     H_    0.768698 0.257045 0.826843 0.134444
H20   H     H_    0.185298 0.354175 0.377755 0.145791
N1    N     N_R   0.856860 0.501200 0.500990 -0.102240
N2    N     N_R   0.142450 0.501280 0.501020 -0.086250
O1    O     O_R   0.385310 0.683220 0.500000 -0.503431
O2    O     O_3   0.207528 0.226856 0.673723 -0.749647
O3    O     O_3   0.185936 0.682196 0.665538 -0.738391
O4    O     O_3   0.453180 0.634440 0.162635 -0.766881
O5    O     O_3   0.581564 0.280826 0.725751 -0.757651
O6    O     O_R   0.614640 0.683250 0.500010 -0.667407
O7    O     O_R   0.328400 0.499950 0.653610 -0.536515
O8    O     O_R   0.557730 0.499970 0.653620 -0.616008
O9    O     O_R   0.385360 0.316750 0.499990 -0.600669
O10   O     O_R   0.614690 0.316780 0.500000 -0.614748
O11   O     O_R   0.442270 0.500030 0.346380 -0.583520
O12   O     O_R   0.671600 0.500050 0.346390 -0.618959
O13   O     O_3   0.273317 0.804491 0.392302 -0.746437
Zn1   Zn    Zn3+2 0.346880 0.499980 0.499990 1.027811
Zn2   Zn    Zn3+2 0.653120 0.500020 0.500010 0.942966

loop_
_geom_bond_atom_site_label_1
_geom_bond_atom_site_label_2
_ccdc_geom_bond_type
C33   H19   S    
O11   Zn1   S    
C2    C4    S    
O6    Zn2   S    
C21   N1    A    
C6    C7    A    
C3    C9    A    
H4    O13   S    
C27   C36   A    
C24   H20   S    
O7    Zn1   S    
C2    C28   A    
C9    C10   A    
C29   H10   S    
C3    O13   S    
C19   C20   A    
O1    Zn1   S    
C23   C34   A    
H8    O4    S    
C32   C33   A    
O12   Zn2   S    
C12   C30   A    
C17   C18   A    
O10   Zn2   S    
C7    C8    A    
C16   O9    A    
C15   H16   S    
C4    O8    A    
C11   C13   A    
C12   C23   A    
N2    Zn1   S    
C29   C30   A    
C22   N1    A    
C16   O10   A    
C5    C6    A    
C26   C36   A    
C34   O5    S    
C19   O3    S    
C30   H3    S    
C33   C34   A    
C35   O4    S    
C22   C24   A    
C1    O1    A    
C12   C31   A    
H11   O5    S    
C4    O7    A    
C5    H12   S    
C31   C35   A    
C28   H9    S    
C22   H15   S    
C25   O11   A    
C10   C11   A    
C18   H18   S    
N1    Zn2   S    
C13   H14   S    
C28   C29   A    
C1    O6    A    
C17   H17   S    
C7    O2    S    
C15   C21   A    
C18   C19   A    
C20   C21   A    
H7    O3    S    
C24   N2    A    
O9    Zn1   S    
H6    O2    S    
C2    C23   A    
C15   C17   A    
C26   C32   A    
C36   H1    S    
C11   H13   S    
C25   O12   A    
C8    C14   A    
C27   C35   A    
C14   C16   S    
C13   C14   A    
O8    Zn2   S    
C20   N2    A    
C6    H5    S    
C26   H2    S    
C1    C10   S    
C31   C32   A    
C8    C9    A    
C3    C5    A    
C25   C27   S    
