data_mof_unit_17232.cif
_audit_creation_date              2012-12-10T20:27:10-0500
_audit_creation_method            fapswitch 2.2
_symmetry_space_group_name_H-M    P1
_symmetry_Int_Tables_number       1
_space_group_crystal_system       triclinic
_cell_length_a                    10.801875
_cell_length_b                    10.686973
_cell_length_c                    9.872953
_cell_angle_alpha                 89.659205
_cell_angle_beta                  104.014325
_cell_angle_gamma                 90.153878
_cell_volume                      1105.78302954

loop_
_atom_site_label
_atom_site_type_symbol
_atom_type_description
_atom_site_fract_x
_atom_site_fract_y
_atom_site_fract_z
_atom_type_partial_charge
C1    C     C_R   0.504078 0.259864 0.501327 0.881223
C2    C     C_R   0.525344 0.128427 0.506963 -0.105696
C3    C     C_R   0.544835 0.065439 0.389428 -0.225559
C4    C     C_R   0.545212 0.936008 0.389080 -0.225360
C5    C     C_R   0.526067 0.871219 0.506241 -0.104780
C6    C     C_R   0.531845 0.934962 0.630120 0.134110
C7    C     C_3   0.447510 0.925911 0.729441 -0.467662
C8    C     C_3   0.446998 0.067604 0.729934 -0.501652
C9    C     C_R   0.390007 0.476700 0.042322 0.166236
C10   C     C_R   0.605342 0.534736 0.099427 -0.133076
C11   C     C_R   0.605404 0.534580 0.955681 -0.133453
C12   C     C_R   0.259062 0.503733 0.441792 0.940278
C13   C     C_R   0.390151 0.477153 0.899698 0.170449
C14   C     C_3   0.310941 0.361853 0.870953 -0.488315
C15   C     C_3   0.312016 0.358802 0.025133 -0.129211
C16   C     C_R   0.504455 0.740000 0.500793 0.876482
C17   C     C_R   0.740993 0.503687 0.558235 0.944971
C18   C     C_2   0.122604 0.518259 0.408894 -0.386019
C19   C     C_2   0.068166 0.544319 0.512770 -0.150086
C20   C     C_2   0.877573 0.518046 0.591296 -0.377293
C21   C     C_2   0.932306 0.544324 0.487387 -0.149370
C22   C     C_R   0.531559 0.062697 0.630602 0.141550
H1    H     H_    0.877267 0.556369 0.380267 0.177140
H2    H     H_    0.497023 0.107359 0.832426 0.202513
H3    H     H_    0.691048 0.561306 0.175506 0.141934
H4    H     H_    0.691179 0.560606 0.924228 0.147718
H5    H     H_    0.215777 0.380554 0.800176 0.205134
H6    H     H_    0.363481 0.283029 0.839048 0.192576
H7    H     H_    0.363259 0.276833 0.082571 0.172771
H8    H     H_    0.123401 0.556305 0.619786 0.181431
H9    H     H_    0.933138 0.505693 0.698179 0.148205
H10   H     H_    0.066864 0.506195 0.302193 0.142819
H11   H     H_    0.550401 0.114919 0.294984 0.170140
H12   H     H_    0.550936 0.887887 0.294520 0.172687
H13   H     H_    0.352588 0.884436 0.681344 0.205468
H14   H     H_    0.497643 0.884236 0.831364 0.205384
H15   H     H_    0.351664 0.108226 0.681916 0.203839
N1    N     N_R   0.499160 0.499140 0.142600 -0.113560
N2    N     N_R   0.499160 0.499180 0.856960 -0.101848
O1    O     O_R   0.500020 0.316790 0.614700 -0.612235
O2    O     O_R   0.500000 0.316760 0.385350 -0.625737
O3    O     O_R   0.317820 0.500020 0.571850 -0.613291
O4    O     O_R   0.317800 0.499980 0.342510 -0.623961
O5    O     O_R   0.500000 0.683240 0.614650 -0.617291
O6    O     O_R   0.499980 0.683210 0.385300 -0.621053
O7    O     O_R   0.682200 0.500020 0.657490 -0.622590
O8    O     O_R   0.682180 0.499980 0.428150 -0.621924
Zn1   Zn    Zn3+2 0.500010 0.500020 0.653140 0.939052
Zn2   Zn    Zn3+2 0.499990 0.499980 0.346860 0.933880
N3    N     N_3   0.183952 0.375881 0.047573 -0.442802
H16   H     H_    0.188539 0.360041 0.153120 0.207589
H17   H     H_    0.152774 0.467926 0.024048 0.188246

loop_
_geom_bond_atom_site_label_1
_geom_bond_atom_site_label_2
_ccdc_geom_bond_type
C16   O6    A    
C2    C22   A    
C1    O2    A    
C8    C22   S    
C6    C7    S    
C8    H2    S    
C14   H5    S    
C7    H14   S    
C16   O5    A    
N3    H17   S    
C11   H4    S    
O6    Zn2   S    
C10   N1    A    
C2    C3    A    
C9    C15   S    
C7    C8    S    
O8    Zn2   S    
N1    Zn2   S    
O3    Zn1   S    
C13   C14   S    
C17   O7    A    
C11   N2    A    
C10   H3    S    
O2    Zn2   S    
C9    N1    A    
C19   C21   S    
C15   H7    S    
C12   O4    A    
O7    Zn1   S    
C21   H1    S    
C5    C6    A    
C4    H12   S    
C13   N2    A    
C18   H10   S    
C10   C11   A    
C3    H11   S    
C3    C4    A    
C6    C22   A    
O5    Zn1   S    
C17   C20   S    
C20   C21   D    
C1    C2    S    
C8    H15   S    
C15   N3    S    
C12   C18   S    
O1    Zn1   S    
C9    C13   A    
C14   C15   S    
C18   C19   D    
C5    C16   S    
C12   O3    A    
N3    H16   S    
C1    O1    A    
C14   H6    S    
C19   H8    S    
C7    H13   S    
O4    Zn2   S    
C17   O8    A    
C4    C5    A    
N2    Zn1   S    
C20   H9    S    
