data_mof_unit_8969.cif
_audit_creation_date              2012-12-10T19:15:23-0500
_audit_creation_method            fapswitch 2.2
_symmetry_space_group_name_H-M    P1
_symmetry_Int_Tables_number       1
_space_group_crystal_system       triclinic
_cell_length_a                    10.621835
_cell_length_b                    9.751886
_cell_length_c                    23.067521
_cell_angle_alpha                 89.999898
_cell_angle_beta                  89.025234
_cell_angle_gamma                 90.273989
_cell_volume                      2389.02816774

loop_
_atom_site_label
_atom_site_type_symbol
_atom_type_description
_atom_site_fract_x
_atom_site_fract_y
_atom_site_fract_z
_atom_type_partial_charge
C1    C     C_R   0.257979 0.499574 0.502740 0.825298
C2    C     C_R   0.294439 0.286034 0.970700 -0.136471
C3    C     C_R   0.293703 0.285934 0.031112 -0.145812
C4    C     C_R   0.330872 0.403526 0.061660 -0.016782
C5    C     C_R   0.363730 0.523913 0.031110 -0.013728
C6    C     C_R   0.400819 0.642528 0.061304 -0.016679
C7    C     C_R   0.432000 0.762553 0.030527 -0.144591
C8    C     C_R   0.431967 0.763006 0.970179 -0.138617
C9    C     C_R   0.340621 0.402689 0.122055 0.510120
C10   C     C_R   0.410961 0.636101 0.121551 0.513210
C11   C     C_R   0.345432 0.593802 0.250092 -0.080318
C12   C     C_R   0.497429 0.500347 0.389117 0.883128
C13   C     C_R   0.376776 0.592100 0.308241 -0.177184
C14   C     C_R   0.470355 0.503061 0.327710 -0.042852
C15   C     C_R   0.532704 0.415926 0.288764 -0.183881
C16   C     C_R   0.502512 0.419044 0.230336 -0.084034
C17   C     C_R   0.408831 0.508044 0.210891 0.283604
C18   C     C_R   0.322350 0.548598 0.749374 -0.027777
C19   C     C_R   0.355772 0.543750 0.690764 -0.271065
C20   C     C_R   0.475227 0.500447 0.672621 -0.165736
C21   C     C_R   0.566271 0.461361 0.712891 -0.104950
C22   C     C_R   0.534420 0.466727 0.772202 0.273965
C23   C     C_R   0.742391 0.499971 0.502072 0.877631
C24   C     C_R   0.413216 0.509831 0.790202 0.152401
C25   C     C_3   0.071096 0.608372 0.547298 -0.388006
C26   C     C_3   0.070665 0.356020 0.523503 -0.406593
C27   C     C_3   0.926619 0.608776 0.547052 -0.392469
C28   C     C_3   0.927219 0.356574 0.523622 -0.377415
C29   C     C_3   0.075698 0.530413 0.442420 -0.409875
C30   C     C_3   0.121694 0.498612 0.504132 0.174899
C31   C     C_3   0.878988 0.499186 0.503803 0.155368
C32   C     C_3   0.931661 0.531269 0.442335 -0.390425
C33   C     C_3   0.386345 0.079987 0.470525 -0.232086
C34   C     C_3   0.383681 0.918601 0.472793 -0.230325
C35   C     C_3   0.615422 0.081792 0.469359 -0.146511
C36   C     C_3   0.612766 0.918815 0.467225 -0.157697
C37   C     C_3   0.498726 0.081124 0.558697 -0.257293
C38   C     C_3   0.503090 0.918941 0.558643 -0.266002
C39   C     C_R   0.500208 0.500022 0.610749 0.916449
C40   C     C_R   0.411196 0.637671 0.879238 0.600684
C41   C     C_R   0.343513 0.403255 0.879388 0.613746
C42   C     C_R   0.332019 0.403839 0.939856 -0.018884
C43   C     C_R   0.364073 0.524199 0.970149 -0.013090
C44   C     C_R   0.401075 0.643350 0.939638 -0.018549
H1    H     H_    0.268525 0.192694 0.948316 0.197821
H2    H     H_    0.288234 0.573102 0.658365 0.178738
H3    H     H_    0.106370 0.712278 0.535079 0.181434
H4    H     H_    0.104561 0.274395 0.493373 0.185925
H5    H     H_    0.104132 0.586080 0.591815 0.186657
H6    H     H_    0.104401 0.330675 0.567662 0.176328
H7    H     H_    0.888947 0.586933 0.591454 0.183760
H8    H     H_    0.890428 0.332376 0.567933 0.204237
H9    H     H_    0.893711 0.712718 0.534538 0.188280
H10   H     H_    0.894444 0.274157 0.494122 0.224761
H11   H     H_    0.112313 0.631964 0.427569 0.172850
H12   H     H_    0.111322 0.451850 0.411251 0.175474
H13   H     H_    0.899960 0.633780 0.428230 0.227615
H14   H     H_    0.896874 0.454788 0.410545 0.192671
H15   H     H_    0.379648 0.115857 0.425145 0.210020
H16   H     H_    0.367393 0.875034 0.429241 0.196584
H17   H     H_    0.267207 0.192494 0.053689 0.195555
H18   H     H_    0.300056 0.119295 0.492684 0.142215
H19   H     H_    0.299900 0.885391 0.498912 0.141939
H20   H     H_    0.580191 0.122119 0.583048 0.200350
H21   H     H_    0.589463 0.883870 0.580775 0.167799
H22   H     H_    0.413003 0.116066 0.582745 0.171462
H23   H     H_    0.422341 0.878090 0.584824 0.178210
H24   H     H_    0.697305 0.109665 0.496677 0.114445
H25   H     H_    0.697511 0.884524 0.491000 0.115753
H26   H     H_    0.459467 0.855412 0.052871 0.197767
H27   H     H_    0.459436 0.856137 0.947604 0.200405
H28   H     H_    0.272992 0.662628 0.235306 0.157573
H29   H     H_    0.326788 0.658847 0.338230 0.154889
H30   H     H_    0.606332 0.348557 0.303154 0.175279
H31   H     H_    0.553093 0.354005 0.199950 0.158456
N1    N     N_R   0.385564 0.517973 0.850840 -0.332343
N2    N     N_R   0.383493 0.516601 0.150380 -0.358343
N3    N     N_3   0.499750 0.138610 0.498760 -0.086719
N4    N     N_3   0.499750 0.861390 0.498760 -0.083799
O1    O     O_R   0.314910 0.616040 0.499990 -0.642363
O2    O     O_R   0.314910 0.383960 0.499990 -0.638972
O3    O     O_R   0.500080 0.616070 0.416130 -0.602225
O4    O     O_R   0.500080 0.383930 0.416130 -0.593428
O5    O     O_R   0.685320 0.616040 0.499970 -0.628926
O6    O     O_R   0.685320 0.383960 0.499970 -0.610365
O7    O     O_R   0.500150 0.616010 0.583820 -0.630692
O8    O     O_R   0.500150 0.383990 0.583820 -0.592839
O9    O     O_2   0.449159 0.749419 0.849029 -0.524640
O10   O     O_2   0.315940 0.288614 0.849295 -0.524092
O11   O     O_2   0.309414 0.288619 0.152270 -0.538456
O12   O     O_2   0.451865 0.746927 0.150957 -0.534098
Zn1   Zn    Zn3+2 0.500150 0.654960 0.499970 0.929417
Zn2   Zn    Zn3+2 0.500150 0.345040 0.499970 0.952290
C45   C     C_2   0.694470 0.419896 0.693337 0.926753
O13   O     O_2   0.707641 0.332810 0.655629 -0.659830
O14   O     O_R   0.800278 0.481561 0.717651 -0.750115
H32   H     H_    0.882130 0.445554 0.700421 0.349807
Br1   Br    Br    0.653378 0.410741 0.829879 -0.385176
C46   C     C_2   0.646526 0.148799 0.411390 0.969922
O15   O     O_2   0.573284 0.142114 0.371201 -0.605673
O16   O     O_R   0.763021 0.213766 0.403221 -0.847145
H33   H     H_    0.775033 0.252008 0.362645 0.326112
C47   C     C_2   0.631506 0.859187 0.406725 0.997942
O17   O     O_2   0.550846 0.870508 0.369869 -0.590948
O18   O     O_R   0.744754 0.794544 0.392500 -0.847498
H34   H     H_    0.747164 0.758895 0.351205 0.342094
C48   C     C_2   0.192706 0.594347 0.766066 0.979148
O19   O     O_2   0.156598 0.592606 0.816660 -0.593661
O20   O     O_R   0.110594 0.639262 0.723293 -0.828527
H35   H     H_    0.025445 0.667491 0.739713 0.377327

loop_
_geom_bond_atom_site_label_1
_geom_bond_atom_site_label_2
_ccdc_geom_bond_type
C41   O10   S    
O16   H33   S    
C22   Br1   S    
C16   H31   S    
C11   C13   A    
C41   C42   A    
C19   C20   A    
C32   H14   S    
C7    H26   S    
C19   H2    S    
C7    C8    A    
C37   C38   S    
C36   C47   S    
C18   C24   A    
C29   C32   S    
C26   H6    S    
C5    C6    A    
C33   N3    S    
C38   N4    S    
N3    Zn2   S    
C1    O2    A    
C15   C16   A    
O4    Zn2   S    
O3    Zn1   S    
C18   C19   A    
C18   C48   S    
C1    C30   S    
O6    Zn2   S    
C31   C32   S    
C33   H18   S    
C48   O19   D    
C39   O8    A    
C25   H3    S    
C26   H4    S    
C5    C43   A    
C33   H15   S    
C21   C22   A    
O14   H32   S    
C34   H16   S    
C48   O20   S    
C32   H13   S    
C35   C46   S    
C10   N2    A    
C27   H7    S    
C3    H17   S    
C2    H1    S    
C23   O5    A    
C27   C31   S    
C20   C39   S    
C28   H10   S    
C11   H28   S    
C24   N1    S    
C29   H11   S    
C40   N1    A    
C12   O4    A    
C35   C36   S    
C23   C31   S    
O1    Zn1   S    
C43   C44   A    
C29   C30   S    
C34   N4    S    
O2    Zn2   S    
C46   O15   D    
C38   H21   S    
C37   H22   S    
C17   N2    S    
C33   C34   S    
C12   O3    A    
C47   O18   S    
C9    N2    A    
C20   C21   A    
C45   O14   S    
N4    Zn1   S    
C46   O16   S    
C12   C14   S    
C10   O12   S    
C26   C30   S    
C23   O6    A    
C22   C24   A    
C42   C43   A    
C3    C4    A    
C37   H20   S    
C36   H25   S    
C37   N3    S    
C25   C30   S    
C11   C17   A    
C8    H27   S    
C28   C31   S    
C8    C44   A    
C13   H29   S    
C4    C5    A    
C36   N4    S    
C9    O11   S    
C6    C10   A    
C27   H9    S    
C6    C7    A    
C29   H12   S    
C25   C27   S    
O18   H34   S    
C35   N3    S    
C26   C28   S    
C40   O9    S    
C2    C3    A    
O7    Zn1   S    
O20   H35   S    
C41   N1    A    
C28   H8    S    
C16   C17   A    
C35   H24   S    
C2    C42   A    
O8    Zn2   S    
C34   H19   S    
C45   O13   D    
C25   H5    S    
C40   C44   A    
C15   H30   S    
C38   H23   S    
C21   C45   S    
C47   O17   D    
C1    O1    A    
C14   C15   A    
O5    Zn1   S    
C39   O7    A    
C4    C9    A    
C13   C14   A    
