data_mof_unit_28250.cif
_audit_creation_date              2012-12-10T20:25:42-0500
_audit_creation_method            fapswitch 2.2
_symmetry_space_group_name_H-M    P1
_symmetry_Int_Tables_number       1
_space_group_crystal_system       triclinic
_cell_length_a                    8.592389
_cell_length_b                    10.724275
_cell_length_c                    9.884521
_cell_angle_alpha                 88.807648
_cell_angle_beta                  97.966592
_cell_angle_gamma                 90.700603
_cell_volume                      901.804512831

loop_
_atom_site_label
_atom_site_type_symbol
_atom_type_description
_atom_site_fract_x
_atom_site_fract_y
_atom_site_fract_z
_atom_type_partial_charge
C1    C     C_R   0.496878 0.260220 0.500568 0.902004
C2    C     C_R   0.583126 0.941074 0.398989 0.225196
C3    C     C_R   0.518494 0.871478 0.500584 -0.083206
C4    C     C_R   0.456032 0.931415 0.604236 -0.031309
C5    C     C_3   0.299961 0.911729 0.655602 0.141970
C6    C     C_3   0.286488 0.054876 0.650716 -0.063278
C7    C     C_R   0.378976 0.446554 0.058545 0.180205
C8    C     C_R   0.613880 0.560762 0.084110 -0.119667
C9    C     C_R   0.614198 0.560515 0.940361 -0.136622
C10   C     C_R   0.376395 0.449212 0.915508 0.167356
C11   C     C_3   0.323350 0.315976 0.908577 -0.027417
C12   C     C_R   0.201434 0.500006 0.464484 0.985463
C13   C     C_3   0.331358 0.313013 0.063626 -0.478081
C14   C     C_R   0.507599 0.739441 0.499616 0.926488
C15   C     C_R   0.798534 0.501669 0.535272 0.950489
C16   C     C_2   0.036603 0.498255 0.444973 -0.394075
C17   C     C_2   0.963205 0.507033 0.553701 -0.327831
C18   C     C_R   0.447127 0.058705 0.604632 -0.011361
C19   C     C_R   0.504727 0.128457 0.502057 -0.098745
C20   C     C_R   0.577966 0.070188 0.402338 -0.297683
H1    H     H_    0.976082 0.488181 0.341488 0.171378
H2    H     H_    0.708151 0.607406 0.896554 0.157727
H3    H     H_    0.411648 0.255019 0.871656 0.135525
H4    H     H_    0.220003 0.299743 0.106655 0.208755
H5    H     H_    0.428143 0.253428 0.114529 0.183368
H6    H     H_    0.023990 0.519671 0.656429 0.199609
H7    H     H_    0.627261 0.124559 0.324572 0.162334
H8    H     H_    0.285216 0.096625 0.751625 0.178529
H9    H     H_    0.707812 0.607331 0.148396 0.152317
N1    N     N_R   0.498950 0.499140 0.142680 -0.107415
N2    N     N_R   0.498950 0.499180 0.857030 -0.127522
O1    O     O_R   0.500020 0.316790 0.614690 -0.629552
O2    O     O_R   0.500000 0.316760 0.385350 -0.632275
O3    O     O_R   0.271760 0.500010 0.587850 -0.621482
O4    O     O_R   0.271740 0.499970 0.358500 -0.624398
O5    O     O_R   0.500000 0.683240 0.614650 -0.639620
O6    O     O_R   0.499980 0.683210 0.385310 -0.576157
O7    O     O_R   0.728260 0.500030 0.641500 -0.632745
O8    O     O_R   0.728240 0.499990 0.412150 -0.624316
Zn1   Zn    Zn3+2 0.500010 0.500020 0.653130 0.934936
Zn2   Zn    Zn3+2 0.499990 0.499980 0.346870 0.952335
N3    N     N_2   0.166968 0.300986 0.831406 -0.293408
H10   H     H_    0.167180 0.315394 0.728071 0.265726
C21   C     C_3   0.030287 0.353055 0.880268 -0.776863
H11   H     H_    0.927359 0.346257 0.799432 0.242665
H12   H     H_    0.050478 0.452578 0.906858 0.237354
H13   H     H_    0.999079 0.298186 0.969007 0.243395
N4    N     N_2   0.641401 0.883128 0.288150 -0.291580
H14   H     H_    0.621889 0.933781 0.197599 0.222050
C22   C     C_3   0.802360 0.843376 0.318440 -0.766000
H15   H     H_    0.881031 0.925630 0.339616 0.251184
H16   H     H_    0.836625 0.795145 0.229005 0.222157
H17   H     H_    0.816556 0.777579 0.407417 0.269400
C23   C     C_2   0.177495 0.842096 0.558117 0.865631
O9    O     O_2   0.069687 0.786652 0.602724 -0.664707
O10   O     O_R   0.187547 0.840999 0.418078 -0.841141
H18   H     H_    0.111090 0.780023 0.367126 0.339770
N5    N     N_2   0.315962 0.857576 0.794609 -0.289082
H19   H     H_    0.297357 0.762333 0.797326 0.258392
C24   C     C_3   0.448114 0.893339 0.894842 -0.786994
H20   H     H_    0.431491 0.852628 0.996112 0.248286
H21   H     H_    0.457413 0.995946 0.905020 0.230953
H22   H     H_    0.559303 0.856637 0.866521 0.247624
N6    N     N_2   0.165145 0.106001 0.547211 -0.315708
H23   H     H_    0.172402 0.084420 0.447058 0.262221
C25   C     C_3   0.006417 0.106717 0.581182 -0.775667
H24   H     H_    0.937940 0.180061 0.519073 0.233322
H25   H     H_    0.005380 0.126092 0.690784 0.265287
H26   H     H_    0.947677 0.015517 0.558820 0.264511

loop_
_geom_bond_atom_site_label_1
_geom_bond_atom_site_label_2
_ccdc_geom_bond_type
C7    C10   A    
C22   H16   S    
N1    Zn2   S    
O4    Zn2   S    
C16   H1    S    
C20   H7    S    
C25   H25   S    
C19   C20   A    
C21   H13   S    
C7    C13   S    
N5    C24   S    
C8    N1    A    
N6    H23   S    
N4    C22   S    
C25   H24   S    
N5    H19   S    
C1    O2    A    
O8    Zn2   S    
C7    N1    A    
C21   H11   S    
C12   O4    A    
O7    Zn1   S    
C4    C5    S    
C11   C13   S    
C15   O8    A    
C16   C17   D    
C3    C14   S    
N3    C21   S    
C5    N5    S    
C15   O7    A    
O3    Zn1   S    
C8    H9    S    
C10   N2    A    
C11   H3    S    
N4    H14   S    
C2    N4    S    
C21   H12   S    
C2    C3    A    
O2    Zn2   S    
O1    Zn1   S    
O6    Zn2   S    
C5    C6    S    
C6    C18   S    
C23   O10   S    
C9    H2    S    
C1    C19   S    
C22   H17   S    
C24   H22   S    
C10   C11   S    
C17   H6    S    
C2    C20   A    
C3    C4    A    
C25   H26   S    
C5    C23   S    
O5    Zn1   S    
O10   H18   S    
C11   N3    S    
C24   H21   S    
C18   C19   A    
N3    H10   S    
C6    N6    S    
C15   C17   S    
C9    N2    A    
C23   O9    D    
C24   H20   S    
C14   O5    A    
C14   O6    A    
C22   H15   S    
N2    Zn1   S    
C12   O3    A    
C4    C18   A    
C1    O1    A    
C6    H8    S    
C12   C16   S    
C13   H4    S    
C8    C9    A    
C13   H5    S    
N6    C25   S    
