data_mof_unit_26948.cif
_audit_creation_date              2012-12-10T16:56:36-0500
_audit_creation_method            fapswitch 2.2
_symmetry_space_group_name_H-M    P1
_symmetry_Int_Tables_number       1
_space_group_crystal_system       triclinic
_cell_length_a                    7.770249
_cell_length_b                    8.57418
_cell_length_c                    15.726916
_cell_angle_alpha                 90.997267
_cell_angle_beta                  85.936138
_cell_angle_gamma                 93.625056
_cell_volume                      1042.96887756

loop_
_atom_site_label
_atom_site_type_symbol
_atom_type_description
_atom_site_fract_x
_atom_site_fract_y
_atom_site_fract_z
_atom_type_partial_charge
C1    C     C_R   0.545755 0.794724 0.497817 0.963184
C2    C     C_3   0.368945 0.403077 0.029139 -0.001666
C3    C     C_1   0.507114 0.501871 0.750464 -0.158421
C4    C     C_1   0.492885 0.498129 0.249536 -0.158422
C5    C     C_3   0.348704 0.549534 0.975473 -0.256832
C6    C     C_3   0.651296 0.450466 0.024527 -0.256832
C7    C     C_3   0.504863 0.502060 0.916535 0.084170
C8    C     C_3   0.495137 0.497940 0.083465 0.084170
C9    C     C_1   0.507919 0.502653 0.825637 -0.030680
C10   C     C_1   0.492081 0.497347 0.174363 -0.030680
C11   C     C_1   0.774771 0.703084 0.937569 0.182746
C12   C     C_R   0.454245 0.205275 0.502183 0.963184
C13   C     C_1   0.225229 0.296916 0.062431 0.182746
C14   C     C_1   0.451890 0.800703 0.066062 0.197928
C15   C     C_1   0.548110 0.199297 0.933938 0.197928
C16   C     C_R   0.502354 0.500643 0.661877 0.903622
C17   C     C_R   0.497646 0.499357 0.338123 0.903622
C18   C     C_2   0.569857 0.958188 0.496560 -0.367966
C19   C     C_2   0.430143 0.041811 0.503440 -0.367966
C20   C     C_3   0.477251 0.643664 0.030523 -0.000563
C21   C     C_3   0.522749 0.356336 0.969477 -0.000563
C22   C     C_3   0.631055 0.596922 0.970861 -0.001666
H1    H     H_    0.774030 0.410012 0.045859 0.167797
H2    H     H_    0.225970 0.589988 0.954141 0.167797
H3    H     H_    0.701835 0.009186 0.489988 0.182353
H4    H     H_    0.298165 0.990814 0.510012 0.182353
H5    H     H_    0.013377 0.381986 0.436385 0.196235
H6    H     H_    0.986623 0.618014 0.563615 0.196235
N1    N     N_2   0.950320 0.457950 0.477300 -0.170853
N2    N     N_2   0.049680 0.542050 0.522700 -0.170853
N3    N     N_1   0.888114 0.786720 0.911359 -0.189795
N4    N     N_1   0.111886 0.213280 0.088641 -0.189795
N5    N     N_1   0.431835 0.924305 0.094257 -0.187387
N6    N     N_1   0.568165 0.075695 0.905743 -0.187387
O1    O     O_R   0.389250 0.738570 0.505570 -0.613057
O2    O     O_R   0.610750 0.261430 0.494430 -0.613057
O3    O     O_R   0.678390 0.711630 0.491020 -0.629990
O4    O     O_R   0.321610 0.288370 0.508980 -0.629990
O5    O     O_R   0.355460 0.513480 0.630490 -0.609012
O6    O     O_R   0.644540 0.486520 0.369510 -0.609012
O7    O     O_R   0.644600 0.486540 0.615950 -0.620800
O8    O     O_R   0.355400 0.513460 0.384050 -0.620800
Zn1   Zn    Zn3+2 0.306940 0.517990 0.509710 0.958986
Zn2   Zn    Zn3+2 0.693060 0.482010 0.490290 0.958986

loop_
_geom_bond_atom_site_label_1
_geom_bond_atom_site_label_2
_ccdc_geom_bond_type
C15   C21   S    
N1    N2    D    
C3    C9    T    
C14   N5    T    
C12   O2    A    
C7    C22   S    
O1    Zn1   S    
C11   C22   S    
C1    O3    A    
C2    C21   S    
H6    N2    S    
C13   N4    T    
C11   N3    T    
O4    Zn1   S    
C5    C20   S    
C5    H2    S    
C1    C18   S    
C8    C20   S    
C18   H3    S    
O3    Zn2   S    
C6    C8    S    
C6    H1    S    
C12   C19   S    
C2    C13   S    
C20   C22   S    
C5    C7    S    
N1    Zn2   S    
C12   O4    A    
O7    Zn2   S    
N2    Zn1   S    
O2    Zn2   S    
C2    C5    S    
H5    N1    S    
O8    Zn1   S    
C4    C17   S    
C16   O5    A    
C4    C10   T    
C6    C22   S    
C14   C20   S    
O6    Zn2   S    
C1    O1    A    
C8    C10   S    
C18   C19   D    
C7    C9    S    
C19   H4    S    
C17   O8    A    
O5    Zn1   S    
C15   N6    T    
C7    C21   S    
C6    C21   S    
C16   O7    A    
C2    C8    S    
C3    C16   S    
C17   O6    A    
