data_mof_unit_53482.cif
_audit_creation_date              2013-03-05T15:44:29-0500
_audit_creation_method            fapswitch 2.2
_symmetry_space_group_name_H-M    P1
_symmetry_Int_Tables_number       1
_space_group_crystal_system       triclinic
_cell_length_a                    19.887348
_cell_length_b                    7.212873
_cell_length_c                    19.869487
_cell_angle_alpha                 90.088458
_cell_angle_beta                  98.222575
_cell_angle_gamma                 89.996388
_cell_volume                      2820.87354411

loop_
_atom_site_label
_atom_site_type_symbol
_atom_site_description
_atom_site_fract_x
_atom_site_fract_y
_atom_site_fract_z
_atom_type_partial_charge
O1    O     O_R   0.673210 0.377390 0.686390 -0.508194
O2    O     O_R   0.326790 0.622610 0.313610 -0.529596
O3    O     O_R   0.826790 0.877390 0.813610 -0.507676
O4    O     O_R   0.173210 0.122610 0.186390 -0.532337
O5    O     O_R   0.810750 0.706450 0.681250 -0.508208
O6    O     O_R   0.189250 0.293550 0.318750 -0.518340
O7    O     O_R   0.689250 0.206450 0.818750 -0.507662
O8    O     O_R   0.310750 0.793550 0.181250 -0.513198
C1    C     C_R   0.831944 0.538553 0.666318 0.870099
C2    C     C_R   0.167921 0.460680 0.333538 0.822265
C3    C     C_R   0.668046 0.038796 0.833685 0.870711
C4    C     C_R   0.331953 0.960624 0.166273 0.828720
O9    O     O_R   0.672750 0.707060 0.678240 -0.523738
O10   O     O_R   0.327250 0.292940 0.321760 -0.559678
O11   O     O_R   0.827250 0.207060 0.821760 -0.524052
O12   O     O_R   0.172750 0.792940 0.178240 -0.562579
O13   O     O_R   0.687800 0.877990 0.810580 -0.566938
O14   O     O_R   0.312200 0.122010 0.189420 -0.547221
O15   O     O_R   0.812200 0.377990 0.689420 -0.567444
O16   O     O_R   0.187800 0.622010 0.310580 -0.551536
C5    C     C_R   0.648356 0.539514 0.661281 0.879727
C6    C     C_R   0.351500 0.460887 0.338689 0.937935
C7    C     C_R   0.851635 0.039666 0.838723 0.878671
C8    C     C_R   0.148617 0.960688 0.161131 0.935769
O17   O     O_3   0.755100 0.544060 0.793420 -0.251605
O18   O     O_3   0.244900 0.455940 0.206580 -0.260918
O19   O     O_3   0.744900 0.044060 0.706580 -0.253250
O20   O     O_3   0.255100 0.955940 0.293420 -0.262749
V1    V     V_3+5 0.749050 0.818670 0.741950 1.341379
V2    V     V_3+5 0.250950 0.181330 0.258050 1.287863
V3    V     V_3+5 0.750950 0.318670 0.758050 1.341879
V4    V     V_3+5 0.249050 0.681330 0.241950 1.291182
C9    C     C_R   0.087041 0.962930 0.108322 -0.234614
C10   C     C_R   0.913362 0.039282 0.891712 -0.235600
C11   C     C_R   0.413214 0.463833 0.391295 -0.226025
C12   C     C_R   0.586610 0.539000 0.608288 -0.236970
C13   C     C_R   0.018609 0.191654 0.942434 0.381235
C14   C     C_R   0.977172 0.824812 0.063039 0.357525
C15   C     C_R   0.481470 0.691868 0.557745 0.379991
C16   C     C_R   0.523065 0.326163 0.436389 0.356107
C17   C     C_R   0.963774 0.176581 0.889779 0.310129
C18   C     C_R   0.033207 0.840750 0.114987 0.324125
C19   C     C_R   0.536276 0.676458 0.610385 0.311713
C20   C     C_R   0.467110 0.342366 0.384335 0.324681
C21   C     C_R   0.918499 0.917302 0.947794 0.319134
C22   C     C_R   0.084657 0.070585 0.048840 0.270082
C23   C     C_R   0.581296 0.416837 0.552096 0.319976
C24   C     C_R   0.415792 0.572487 0.450638 0.270918
C25   C     C_R   0.973622 0.933075 0.002627 -0.156031
C26   C     C_R   0.026146 0.065460 0.997837 -0.175647
C27   C     C_R   0.526414 0.433663 0.497090 -0.154966
C28   C     C_R   0.474033 0.566483 0.501946 -0.176967
C29   C     C_R   0.563225 0.158069 0.878848 0.374794
C30   C     C_R   0.434168 0.831740 0.118593 0.373562
C31   C     C_R   0.938185 0.653223 0.622772 0.373345
C32   C     C_R   0.062183 0.342224 0.377049 0.348703
C33   C     C_R   0.616982 0.029287 0.881524 -0.201069
C34   C     C_R   0.382363 0.966669 0.117692 -0.183397
C35   C     C_R   0.883246 0.527981 0.618745 -0.197259
C36   C     C_R   0.117941 0.465936 0.382483 -0.173477
C37   C     C_R   0.622714 0.889075 0.930377 -0.030301
C38   C     C_R   0.377245 0.107467 0.069173 -0.030811
C39   C     C_R   0.876917 0.389069 0.569198 -0.030136
C40   C     C_R   0.126918 0.595456 0.435225 -0.054640
C41   C     C_R   0.576482 0.873817 0.977450 -0.022184
C42   C     C_R   0.420743 0.114388 0.019404 -0.068052
C43   C     C_R   0.923644 0.372006 0.522654 -0.028173
C44   C     C_R   0.082663 0.603262 0.484369 -0.077690
C45   C     C_R   0.521342 0.999103 0.974001 -0.077382
C46   C     C_R   0.474637 0.984888 0.021590 -0.078571
C47   C     C_R   0.979812 0.494304 0.527268 -0.072787
C48   C     C_R   0.026651 0.480104 0.479683 -0.074112
C49   C     C_R   0.513747 0.140858 0.923767 -0.094424
C50   C     C_R   0.482627 0.844233 0.072315 -0.052483
C51   C     C_R   0.988315 0.633236 0.578671 -0.096494
C52   C     C_R   0.016422 0.346711 0.426304 -0.065963
C53   C     C_R   0.586125 0.739132 0.029301 0.282415
C54   C     C_R   0.412005 0.251563 0.968332 0.279084
C55   C     C_R   0.914211 0.236973 0.470745 0.286722
C56   C     C_R   0.092587 0.735950 0.537138 0.256453
C57   C     C_R   0.539055 0.721534 0.075840 0.374147
C58   C     C_R   0.456451 0.260176 0.919429 0.360766
C59   C     C_R   0.960790 0.221629 0.423926 0.380097
C60   C     C_R   0.047210 0.746819 0.585073 0.358706
H1    H     H_    0.665185 0.794609 0.932346 0.194307
H2    H     H_    0.337484 0.209572 0.069772 0.192751
H3    H     H_    0.833480 0.297734 0.566151 0.191748
H4    H     H_    0.169263 0.690546 0.437388 0.184061
N1    N     N_R   0.145793 0.160188 0.035447 0.104561
O21   O     O_R   0.179676 0.091371 0.989910 -0.282484
O22   O     O_R   0.168052 0.308614 0.068633 -0.303831
N2    N     N_R   0.866087 0.781897 0.949115 0.126226
O23   O     O_R   0.871155 0.622145 0.919740 -0.248395
O24   O     O_R   0.808316 0.830757 0.967275 -0.312448
N3    N     N_R   0.355069 0.665375 0.463259 0.104231
O25   O     O_R   0.318279 0.593684 0.505679 -0.284200
O26   O     O_R   0.335175 0.817003 0.431055 -0.304804
N4    N     N_R   0.633046 0.279374 0.550988 0.127313
O27   O     O_R   0.626127 0.118417 0.578670 -0.248871
O28   O     O_R   0.691755 0.326502 0.534675 -0.316121
O29   O     O_3   0.034353 0.741428 0.174866 -0.607323
C61   C     C_3   0.051155 0.554088 0.164187 0.348203
H5    H     H_    0.080699 0.532177 0.121231 0.068796
H6    H     H_    0.004557 0.468147 0.156564 0.138338
H7    H     H_    0.083001 0.502430 0.210573 0.056072
O30   O     O_3   0.956309 0.313063 0.840267 -0.583239
C62   C     C_3   0.978903 0.243762 0.781068 0.310844
H8    H     H_    0.941121 0.145964 0.754784 0.088942
H9    H     H_    0.029651 0.176022 0.791788 0.060891
H10   H     H_    0.983446 0.361108 0.745975 0.071111
O31   O     O_3   0.466478 0.246393 0.323680 -0.613801
C63   C     C_3   0.453516 0.055929 0.333004 0.336579
H11   H     H_    0.434379 0.021732 0.381585 0.069482
H12   H     H_    0.500249 0.974955 0.329356 0.136752
H13   H     H_    0.414362 0.009125 0.291226 0.061220
O32   O     O_3   0.543686 0.812512 0.660217 -0.583454
C64   C     C_3   0.520669 0.743025 0.719105 0.307057
H14   H     H_    0.558262 0.645055 0.745444 0.090593
H15   H     H_    0.469919 0.675410 0.707976 0.058726
H16   H     H_    0.515968 0.860263 0.754340 0.073599
N5    N     N_R   0.061900 0.350689 0.942406 0.157820
O33   O     O_R   0.055965 0.486664 0.984217 -0.329600
O34   O     O_R   0.098584 0.373532 0.893840 -0.283483
N6    N     N_R   0.922596 0.705375 0.075040 0.129808
O35   O     O_R   0.882685 0.755250 0.118283 -0.210709
O36   O     O_R   0.920847 0.534947 0.053281 -0.293699
N7    N     N_R   0.438001 0.850262 0.558412 0.157199
O37   O     O_R   0.445719 0.990572 0.519206 -0.322477
O38   O     O_R   0.399609 0.868100 0.605824 -0.279669
N8    N     N_R   0.577943 0.208112 0.424116 0.127791
O39   O     O_R   0.619865 0.263626 0.383735 -0.223528
O40   O     O_R   0.578546 0.035140 0.442705 -0.298511
N9    N     N_R   0.560598 0.309206 0.831984 0.096033
O41   O     O_R   0.576923 0.474860 0.854599 -0.343254
O42   O     O_R   0.549646 0.278294 0.766788 -0.410204
N10   N     N_R   0.436681 0.681901 0.166146 0.112767
O43   O     O_R   0.462547 0.707400 0.229364 -0.361540
O44   O     O_R   0.407084 0.525423 0.147647 -0.345420
N11   N     N_R   0.941185 0.804479 0.669804 0.096261
O45   O     O_R   0.928563 0.971717 0.647064 -0.344332
O46   O     O_R   0.950108 0.773599 0.734986 -0.408262
N12   N     N_R   0.049053 0.225335 0.318104 0.087087
O47   O     O_R   0.000099 0.266574 0.269791 -0.316421
O48   O     O_R   0.082063 0.070503 0.315041 -0.343791
N13   N     N_R   0.646105 0.625947 0.037853 0.086193
O49   O     O_R   0.689782 0.640109 0.092981 -0.226536
O50   O     O_R   0.653440 0.495454 0.994208 -0.329866
N14   N     N_R   0.358087 0.385189 0.965409 0.097311
O51   O     O_R   0.371741 0.561456 0.964045 -0.317095
O52   O     O_R   0.295067 0.331010 0.954543 -0.270228
N15   N     N_R   0.856314 0.115517 0.463721 0.103174
O53   O     O_R   0.816049 0.106360 0.406131 -0.206488
O54   O     O_R   0.849286 0.995839 0.511142 -0.323264
N16   N     N_R   0.148259 0.864414 0.542286 0.093018
O55   O     O_R   0.136706 0.041835 0.543837 -0.321360
O56   O     O_R   0.210410 0.804334 0.555342 -0.263865
O57   O     O_3   0.552169 0.596928 0.129350 -0.571256
C65   C     C_3   0.548134 0.411820 0.105325 0.416221
H17   H     H_    0.599909 0.352251 0.108538 0.110007
H18   H     H_    0.521491 0.396195 0.052471 -0.068903
H19   H     H_    0.520229 0.327698 0.138966 0.094071
O58   O     O_3   0.443391 0.389348 0.867813 -0.584854
C66   C     C_3   0.398520 0.309555 0.814105 0.304802
H20   H     H_    0.347800 0.282856 0.829494 0.075141
H21   H     H_    0.419460 0.179110 0.795357 0.037545
H22   H     H_    0.391373 0.408782 0.771075 0.095232
O59   O     O_3   0.949845 0.085160 0.374561 -0.538802
C67   C     C_3   0.978603 0.918184 0.402023 0.346108
H23   H     H_    0.951319 0.864805 0.443043 0.028089
H24   H     H_    0.033504 0.935627 0.421400 0.019943
H25   H     H_    0.974233 0.812047 0.361164 0.118249
O60   O     O_3   0.061321 0.871604 0.638169 -0.582897
C68   C     C_3   0.103471 0.783526 0.691901 0.314742
H26   H     H_    0.154120 0.750493 0.677436 0.073747
H27   H     H_    0.079537 0.655407 0.708841 0.033458
H28   H     H_    0.111537 0.879840 0.735899 0.097604

loop_
_geom_bond_atom_site_label_1
_geom_bond_atom_site_label_2
_geom_bond_distance
_ccdc_geom_bond_type
C34   C38   1.395015 A    
C55   C59   1.407803 A    
O1    C5    1.338609 A    
O29   C61   1.414887 S    
C32   C52   1.428902 A    
C24   N3    1.433907 S    
C31   C35   1.411070 A    
O19   V1    1.769342 S    
O13   V1    1.999903 S    
O3    C7    1.338238 A    
N3    O25   1.300359 A    
C56   C60   1.404729 A    
O15   V3    2.000839 S    
C63   H12   1.108704 S    
N13   O49   1.300872 A    
C5    C12   1.498913 S    
C42   C46   1.417695 A    
C68   H26   1.111999 S    
O7    C3    1.328601 A    
C6    C11   1.494106 S    
C38   H2    1.081852 S    
O57   C65   1.415649 S    
C23   N4    1.431453 S    
C61   H7    1.106104 S    
C9    C18   1.407639 A    
C40   C44   1.406041 A    
O9    V1    2.000157 S    
C66   H21   1.113869 S    
O7    V3    2.010448 S    
N14   O52   1.300952 A    
C14   C18   1.411068 A    
C64   H15   1.114130 S    
O16   V4    2.000839 S    
O4    C8    1.335361 A    
C51   C60   1.420010 A    
C68   H28   1.109327 S    
O30   C62   1.408779 S    
O1    V3    1.992255 S    
C31   N11   1.431095 S    
O32   C64   1.408843 S    
C12   C23   1.413293 A    
O2    V4    1.992258 S    
C33   C37   1.396200 A    
O3    V1    1.991366 S    
C21   N2    1.431440 S    
C65   H19   1.109211 S    
C30   C50   1.426940 A    
C1    O15   1.326414 A    
C67   H25   1.109347 S    
C66   H20   1.111941 S    
C2    O16   1.331073 A    
C46   C50   1.423957 A    
C62   H8    1.105265 S    
C45   C49   1.422856 A    
O14   V2    1.999903 S    
C21   C25   1.435181 A    
N1    O22   1.300496 A    
C16   C20   1.411697 A    
N16   O56   1.300540 A    
C44   C48   1.417342 A    
C4    C34   1.488507 S    
O11   C7    1.327030 A    
C15   C28   1.420915 A    
N15   O53   1.301028 A    
O12   C8    1.328306 A    
C65   H18   1.112125 S    
C9    C22   1.410273 A    
C62   H9    1.114204 S    
C45   C46   1.420859 A    
C10   C17   1.413718 A    
O10   V2    2.000154 S    
C11   C24   1.409613 A    
C52   C59   1.423129 A    
C63   H11   1.115017 S    
N13   O50   1.301110 A    
O5    V1    2.008887 S    
C68   H27   1.113851 S    
C42   C54   1.411235 A    
C39   C43   1.406928 A    
C41   C53   1.410151 A    
C17   O30   1.385699 S    
C38   C42   1.404828 A    
O9    C5    1.327176 A    
C27   C28   1.428504 A    
O8    V4    2.010447 S    
C63   H13   1.106189 S    
C66   H22   1.109310 S    
C57   O57   1.389187 S    
N14   O51   1.301216 A    
N10   O44   1.300900 A    
C64   H16   1.109435 S    
O59   C67   1.409975 S    
C14   C25   1.426278 A    
C29   C33   1.411512 A    
O18   V4    1.767356 S    
C23   C27   1.435163 A    
C58   O58   1.383506 S    
C59   O59   1.383591 S    
O11   V3    2.001651 S    
C32   C36   1.415304 A    
C1    C35   1.488577 S    
C15   N7    1.433834 S    
N8    O40   1.301265 A    
N7    O38   1.300891 A    
O5    C1    1.329232 A    
C22   N1    1.435236 S    
C19   O32   1.385795 S    
C54   C58   1.405412 A    
C53   C57   1.412597 A    
O8    C4    1.325010 A    
C7    C10   1.498600 S    
C30   N10   1.432814 S    
N2    O24   1.300992 A    
N16   O55   1.301259 A    
C29   N9    1.430880 S    
C48   C52   1.423777 A    
C10   C21   1.413050 A    
C61   H6    1.107072 S    
C11   C20   1.406217 A    
N5    O33   1.300594 A    
C37   H1    1.081551 S    
C13   N5    1.434346 S    
C67   H23   1.111048 S    
O6    V2    2.008886 S    
N4    O27   1.301126 A    
N4    O28   1.300943 A    
N9    O41   1.300624 A    
C62   H10   1.109335 S    
N12   O48   1.301153 A    
C50   C57   1.423056 A    
C44   C56   1.411369 A    
C18   O29   1.387128 S    
C53   N13   1.435463 S    
C49   C58   1.420737 A    
O60   C68   1.411435 S    
N6    O36   1.301276 A    
O58   C66   1.411423 S    
C30   C34   1.415477 A    
C55   N15   1.437521 S    
C16   N8    1.432118 S    
C2    C36   1.487132 S    
C3    O13   1.326762 A    
O31   C63   1.415123 S    
C39   H3    1.081139 S    
O17   V3    1.767356 S    
C29   C49   1.425398 A    
N10   O43   1.300281 A    
C60   O60   1.383581 S    
O6    C2    1.324373 A    
C15   C19   1.403052 A    
N11   O45   1.300552 A    
N3    O26   1.300691 A    
C56   N16   1.436075 S    
C54   N14   1.436790 S    
O12   V4    2.001651 S    
C16   C27   1.426350 A    
C22   C26   1.430037 A    
C35   C39   1.396589 A    
C8    C9    1.494440 S    
C36   C40   1.395101 A    
O10   C6    1.328751 A    
O20   V2    1.769340 S    
N8    O39   1.300600 A    
C31   C51   1.425474 A    
C47   C48   1.422590 A    
C3    C33   1.488557 S    
O2    C6    1.334977 A    
C47   C51   1.422476 A    
C13   C26   1.420798 A    
N11   O46   1.301387 A    
C65   H17   1.109107 S    
C41   C45   1.415064 A    
C67   H24   1.111664 S    
N2    O23   1.301254 A    
C43   C47   1.415927 A    
N15   O54   1.301032 A    
C13   C17   1.403184 A    
C61   H5    1.114331 S    
O4    V2    1.991366 S    
N5    O34   1.300927 A    
C32   N12   1.435346 S    
C20   O31   1.387420 S    
C37   C41   1.406628 A    
C24   C28   1.430083 A    
C25   C26   1.428562 A    
C4    O14   1.330731 A    
N9    O42   1.301395 A    
N12   O47   1.300518 A    
C12   C19   1.413651 A    
N1    O21   1.300801 A    
C64   H14   1.105139 S    
C40   H4    1.082159 S    
C43   C55   1.410390 A    
C14   N6    1.432417 S    
N7    O37   1.300502 A    
N6    O35   1.300671 A    
