data_mof_unit_5234.cif
_audit_creation_date              2013-03-05T15:59:15-0500
_audit_creation_method            fapswitch 2.2
_symmetry_space_group_name_H-M    P1
_symmetry_Int_Tables_number       1
_space_group_crystal_system       triclinic
_cell_length_a                    7.133447
_cell_length_b                    21.240057
_cell_length_c                    23.701456
_cell_angle_alpha                 90.092452
_cell_angle_beta                  88.854761
_cell_angle_gamma                 90.792008
_cell_volume                      3590.0582751

loop_
_atom_site_label
_atom_site_type_symbol
_atom_site_description
_atom_site_fract_x
_atom_site_fract_y
_atom_site_fract_z
_atom_type_partial_charge
O1    O     O_R   0.494270 0.443530 0.442350 -0.589135
O2    O     O_R   0.824060 0.436290 0.557250 -0.569303
O3    O     O_R   0.994370 0.556470 0.557650 -0.589616
C1    C     C_R   0.653109 0.421467 0.576094 0.952445
O4    O     O_R   0.823990 0.436120 0.442760 -0.587753
O5    O     O_R   0.994300 0.556300 0.442340 -0.569573
C2    C     C_R   0.656068 0.421230 0.423667 0.970606
O6    O     O_R   0.494350 0.443700 0.557660 -0.580615
O7    O     O_3   0.660800 0.539430 0.500000 -0.269021
V1    V     V_3+5 0.935650 0.492690 0.500000 1.230471
O8    O     O_R   0.324020 0.563710 0.442750 -0.575008
C3    C     C_R   0.157633 0.578599 0.423700 0.944086
O9    O     O_R   0.324090 0.563880 0.557240 -0.586002
C4    C     C_R   0.155302 0.578697 0.576167 0.984202
V2    V     V_3+5 0.435660 0.507310 0.500000 1.232378
O10   O     O_3   0.160640 0.460570 0.500000 -0.275000
C5    C     C_3   0.011350 0.724517 0.791159 -0.002879
C6    C     C_3   0.196405 0.699301 0.766732 -0.058819
C7    C     C_1   0.146244 0.624402 0.621409 -0.264184
C8    C     C_1   0.073202 0.875200 0.877546 -0.209316
C9    C     C_3   0.934713 0.733655 0.730699 -0.224135
C10   C     C_3   0.124338 0.708422 0.706237 0.054297
C11   C     C_3   0.023181 0.801112 0.731030 0.381540
C12   C     C_3   0.093733 0.792192 0.791841 -0.118371
C13   C     C_3   0.208437 0.775888 0.706498 -0.194184
C14   C     C_3   0.279051 0.766532 0.766866 0.259060
C15   C     C_1   0.137976 0.662389 0.659564 0.091318
C16   C     C_1   0.081054 0.837617 0.839076 0.219921
H1    H     H_    0.792040 0.720497 0.716517 0.165215
C17   C     C_3   0.215897 0.818150 0.252619 -0.229605
C18   C     C_3   0.886449 0.780784 0.238982 -0.137629
C19   C     C_3   0.913168 0.736320 0.295159 0.261914
H2    H     H_    0.136879 0.855745 0.274162 0.212290
C20   C     C_1   0.153325 0.624612 0.378519 -0.148308
C21   C     C_3   0.084030 0.789634 0.206263 0.042211
C22   C     C_3   0.262558 0.767475 0.299140 0.165357
C23   C     C_3   0.118841 0.709925 0.293657 -0.055696
C24   C     C_3   0.163674 0.675937 0.235040 -0.278296
C25   C     C_3   0.162392 0.723758 0.183206 0.281607
C26   C     C_1   0.143064 0.662939 0.340622 0.098725
C27   C     C_1   0.070100 0.836619 0.158980 0.080647
C28   C     C_1   0.064781 0.874825 0.120865 -0.237065
H3    H     H_    0.306886 0.656691 0.238885 0.210872
C29   C     C_3   0.425462 0.262232 0.715399 -0.508806
C30   C     C_3   0.761993 0.235624 0.693937 0.213801
C31   C     C_3   0.779655 0.195358 0.750076 -0.278079
H4    H     H_    0.378106 0.247247 0.673375 0.257382
H5    H     H_    0.910509 0.210562 0.770230 0.234070
C32   C     C_1   0.583841 0.123707 0.878219 -0.159619
C33   C     C_3   0.625033 0.292956 0.708236 -0.120619
C34   C     C_3   0.422081 0.206018 0.759597 0.506312
C35   C     C_3   0.612924 0.209399 0.793378 -0.157025
C36   C     C_3   0.650096 0.279004 0.818634 0.103984
C37   C     C_3   0.671951 0.328260 0.766541 0.192477
C38   C     C_1   0.600367 0.161929 0.840316 0.225183
C39   C     C_1   0.626158 0.338581 0.660069 0.205747
C40   C     C_1   0.636947 0.376086 0.621490 -0.183817
H6    H     H_    0.320631 0.297957 0.726240 0.267864
C41   C     C_3   0.454341 0.307139 0.256082 -0.589472
C42   C     C_3   0.799678 0.293596 0.252534 -0.414596
C43   C     C_3   0.787394 0.242465 0.204762 -0.186484
H7    H     H_    0.470107 0.356343 0.240435 0.185120
H8    H     H_    0.929078 0.287241 0.276973 0.189764
H9    H     H_    0.811513 0.341566 0.233852 0.166271
H10   H     H_    0.894503 0.206275 0.212904 0.144556
C44   C     C_1   0.570442 0.123786 0.121257 -0.272025
C45   C     C_3   0.624367 0.290755 0.292531 0.194014
C46   C     C_3   0.433005 0.259123 0.205594 0.134399
C47   C     C_3   0.592578 0.208011 0.207443 0.278210
C48   C     C_3   0.589737 0.172918 0.266121 -0.357482
C49   C     C_3   0.590799 0.222329 0.315506 0.207289
C50   C     C_1   0.578398 0.161651 0.159787 -0.022083
C51   C     C_1   0.639950 0.337307 0.339721 0.029404
C52   C     C_1   0.648502 0.375365 0.378090 -0.235711
H11   H     H_    0.449410 0.221583 0.336492 0.106986
H12   H     H_    0.325330 0.307609 0.283320 0.173118
H13   H     H_    0.719075 0.144175 0.268296 0.186094
O11   O     O_R   0.724990 0.055630 0.941600 -0.577605
O12   O     O_R   0.395220 0.063160 0.056480 -0.593624
O13   O     O_R   0.225040 0.942970 0.056870 -0.575875
C53   C     C_R   0.563102 0.078059 0.075585 0.955046
O14   O     O_R   0.395270 0.063000 0.941990 -0.563671
O15   O     O_R   0.225080 0.942800 0.941570 -0.573897
C54   C     C_R   0.566295 0.077846 0.923170 0.963976
O16   O     O_R   0.724940 0.055790 0.056910 -0.591764
O17   O     O_3   0.558580 0.959880 0.999250 -0.270466
V3    V     V_3+5 0.283680 0.006590 0.999220 1.231216
O18   O     O_R   0.895380 0.935350 0.941950 -0.576182
C55   C     C_R   0.064186 0.920598 0.923012 0.974758
O19   O     O_R   0.895330 0.935520 0.056440 -0.596409
C56   C     C_R   0.061644 0.920678 0.075525 0.948556
V4    V     V_3+5 0.783690 0.991900 0.999180 1.223649
O20   O     O_3   0.058660 0.038680 0.999200 -0.275014
N1    N     N_3   0.290329 0.643429 0.786791 -0.173413
H14   H     H_    0.323740 0.651365 0.828955 0.166769
H15   H     H_    0.417281 0.640172 0.764267 0.124313
N2    N     N_3   0.827602 0.845559 0.254912 -0.212962
H16   H     H_    0.728747 0.849535 0.287187 0.122097
H17   H     H_    0.779071 0.870543 0.220271 0.111821
N3    N     N_3   0.892425 0.775792 0.346675 -0.185867
H18   H     H_    0.752194 0.783133 0.357289 0.141171
H19   H     H_    0.940436 0.752094 0.382068 0.188782
N4    N     N_R   0.781221 0.681432 0.302234 0.215130
O21   O     O_R   0.711425 0.649640 0.260553 -0.419458
O22   O     O_R   0.746936 0.659327 0.352762 -0.432335
N5    N     N_R   0.353581 0.730166 0.158236 0.222956
O23   O     O_R   0.452555 0.679483 0.151824 -0.412037
O24   O     O_R   0.389863 0.775729 0.122817 -0.431058
N6    N     N_3   0.044243 0.699087 0.137547 -0.216964
H20   H     H_    0.037722 0.731977 0.104930 0.132255
H21   H     H_    0.106217 0.659510 0.119159 0.157724
N7    N     N_3   0.377096 0.853237 0.228869 -0.198127
H22   H     H_    0.475883 0.823144 0.212170 0.176926
H23   H     H_    0.438721 0.879850 0.260839 0.131528
N8    N     N_3   0.447252 0.742969 0.288411 -0.181417
H24   H     H_    0.466226 0.708292 0.318581 0.208630
H25   H     H_    0.539802 0.778320 0.298326 0.104238
N9    N     N_3   0.044270 0.620160 0.225298 -0.146870
H26   H     H_    0.104497 0.593569 0.192685 0.131617
H27   H     H_    0.047526 0.590314 0.260236 0.154671
N10   N     N_R   0.403676 0.143737 0.730753 0.248642
O25   O     O_R   0.412697 0.091817 0.759661 -0.350353
O26   O     O_R   0.353099 0.138687 0.678517 -0.327783
N11   N     N_3   0.910324 0.694544 0.838054 -0.185263
H28   H     H_    0.840602 0.654965 0.822103 0.142837
H29   H     H_    0.807976 0.725679 0.852241 0.189330
N12   N     N_R   0.951473 0.254457 0.672808 0.212794
O27   O     O_R   0.064666 0.210166 0.657096 -0.379415
O28   O     O_R   0.992527 0.311365 0.656013 -0.439825
N13   N     N_3   0.677376 0.197099 0.648805 -0.149228
H30   H     H_    0.666782 0.224468 0.612384 0.148625
H31   H     H_    0.762222 0.159348 0.637221 0.198530
N14   N     N_3   0.799321 0.127647 0.738329 -0.137434
H32   H     H_    0.918740 0.121194 0.712870 0.212037
H33   H     H_    0.830760 0.104356 0.775698 0.186466
N15   N     N_R   0.549841 0.383599 0.776990 0.253185
O29   O     O_R   0.418971 0.399909 0.742671 -0.391826
O30   O     O_R   0.596927 0.424071 0.815743 -0.347827
N16   N     N_3   0.864183 0.354287 0.763513 -0.127170
H34   H     H_    0.878078 0.387220 0.730908 0.169652
H35   H     H_    0.962398 0.319397 0.757607 0.194939
N17   N     N_3   0.491148 0.296163 0.855987 -0.130051
H36   H     H_    0.519748 0.337940 0.877659 0.209299
H37   H     H_    0.474255 0.262537 0.887948 0.141543
N18   N     N_R   0.259727 0.211565 0.799004 0.211143
O31   O     O_R   0.195436 0.162489 0.826422 -0.361345
O32   O     O_R   0.184650 0.265649 0.809987 -0.403977
N19   N     N_R   0.461372 0.784418 0.788526 0.228309
O33   O     O_R   0.576041 0.818838 0.758125 -0.386378
O34   O     O_R   0.495004 0.775759 0.841623 -0.432584
N20   N     N_R   0.819137 0.281910 0.854433 0.251683
O35   O     O_R   0.871974 0.335928 0.875338 -0.322403
O36   O     O_R   0.887070 0.231546 0.877040 -0.345459
N21   N     N_3   0.443322 0.293063 0.151089 -0.191245
H38   H     H_    0.317914 0.316411 0.143949 0.103123
H39   H     H_    0.544225 0.329120 0.152029 0.138538
N22   N     N_3   0.828309 0.269264 0.148556 -0.201887
H40   H     H_    0.876089 0.233440 0.121800 0.134449
H41   H     H_    0.936769 0.302696 0.150386 0.116526
N23   N     N_R   0.727907 0.205543 0.358205 0.245676
O37   O     O_R   0.671980 0.195208 0.409991 -0.347394
O38   O     O_R   0.904388 0.198872 0.344861 -0.416216
N24   N     N_3   0.431198 0.128568 0.272751 -0.206233
H42   H     H_    0.436602 0.108419 0.312924 0.174464
H43   H     H_    0.449268 0.091295 0.244383 0.129565
N25   N     N_3   0.313465 0.804461 0.659615 -0.146046
H44   H     H_    0.350774 0.850199 0.671703 0.211433
H45   H     H_    0.437679 0.779415 0.654363 0.166015
N26   N     N_3   0.249312 0.227716 0.209978 -0.210754
H46   H     H_    0.222909 0.211838 0.251035 0.151333
H47   H     H_    0.151529 0.262863 0.205100 0.087967
N27   N     N_R   0.933485 0.856923 0.709066 0.273942
O39   O     O_R   0.876989 0.857539 0.657254 -0.333450
O40   O     O_R   0.913321 0.906739 0.740447 -0.331390
N28   N     N_R   0.261945 0.795919 0.356780 0.232438
O41   O     O_R   0.308310 0.762208 0.400041 -0.394124
O42   O     O_R   0.247326 0.856413 0.364342 -0.375503
N29   N     N_3   0.743359 0.755441 0.201138 -0.167718
H48   H     H_    0.772808 0.710753 0.186722 0.237811
H49   H     H_    0.737033 0.783260 0.164905 0.149296

loop_
_geom_bond_atom_site_label_1
_geom_bond_atom_site_label_2
_geom_bond_distance
_ccdc_geom_bond_type
C25   N5    1.480436 S    
O15   V3    1.969445 S    
C27   C28   1.216820 T    
N22   H40   1.046064 S    
N26   H46   1.043127 S    
C21   C25   1.604941 S    
N24   H42   1.046193 S    
C6    C14   1.537370 S    
C1    O6    1.315929 A    
C48   N24   1.467986 S    
O12   V3    1.982456 S    
N18   O31   1.302388 A    
N28   O42   1.302365 A    
C36   C37   1.623337 S    
C35   C36   1.614615 S    
C49   N23   1.469111 S    
C33   C37   1.610025 S    
C17   C21   1.575509 S    
C42   H8    1.109441 S    
C20   C26   1.217173 T    
C32   C54   1.447145 S    
C22   C23   1.591300 S    
N24   H43   1.045503 S    
N19   O34   1.299686 A    
C36   N17   1.473933 S    
C23   C26   1.510279 S    
C46   N21   1.480436 S    
N6    H21   1.045668 S    
O5    C3    1.319806 A    
C24   C25   1.595562 S    
C45   C49   1.566475 S    
N5    O23   1.302564 A    
C34   N18   1.479099 S    
C43   C47   1.561854 S    
V2    O10   2.186446 S    
C31   C35   1.586472 S    
C39   C40   1.214284 T    
C28   C56   1.452157 S    
C51   C52   1.217630 T    
N9    H26   1.045511 S    
N3    H18   1.040372 S    
C41   C45   1.546931 S    
O8    V2    1.996321 S    
C44   C50   1.217562 T    
C11   N27   1.456677 S    
O18   V4    1.973677 S    
C42   C45   1.554659 S    
C29   H6    1.099270 S    
C46   C47   1.585112 S    
N8    H25   1.023127 S    
C10   C13   1.545863 S    
C1    C40   1.447531 S    
N20   O35   1.302933 A    
C48   C49   1.570902 S    
C45   C51   1.496458 S    
C6    N1    1.455933 S    
C7    C15   1.212082 T    
O7    V1    2.209851 S    
N21   H39   1.044250 S    
C29   H4    1.103149 S    
C11   C13   1.536025 S    
C30   N13   1.479013 S    
N22   H41   1.044396 S    
O1    C2    1.321575 A    
O9    C4    1.318496 A    
C48   H13   1.115439 S    
N25   H45   1.045005 S    
N26   H47   1.036878 S    
C47   C48   1.578590 S    
N7    H23   1.044985 S    
N7    H22   1.030668 S    
N2    H17   1.045658 S    
O16   V4    1.968796 S    
N27   O40   1.300335 A    
N2    H16   1.034144 S    
C2    C52   1.454768 S    
O15   C55   1.318209 A    
C31   H5    1.101257 S    
C5    C12   1.545557 S    
N18   O32   1.297962 A    
C18   N29   1.468337 S    
C34   C35   1.593807 S    
N29   H48   1.031210 S    
N19   O33   1.297850 A    
N15   O30   1.302763 A    
O4    C2    1.323030 A    
O17   V3    2.209889 S    
C8    C16   1.211842 T    
O11   V4    1.978536 S    
C13   C14   1.540437 S    
C32   C38   1.214712 T    
C9    H1    1.110153 S    
C33   C39   1.498490 S    
C24   H3    1.111058 S    
C19   N3    1.486111 S    
C17   N7    1.465042 S    
C42   C43   1.570519 S    
N23   O38   1.301477 A    
C47   C50   1.501289 S    
O2    C1    1.324303 A    
N12   O28   1.300894 A    
C23   C24   1.593420 S    
C43   N22   1.471811 S    
C41   C46   1.579324 S    
C46   N26   1.464066 S    
C5    N11   1.455187 S    
O19   V4    1.996223 S    
C37   N16   1.471865 S    
C25   N6    1.475953 S    
C11   C12   1.548898 S    
C37   N15   1.490115 S    
N3    H19   1.044974 S    
C5    C6    1.533830 S    
N21   H38   1.045683 S    
C19   N4    1.495706 S    
N4    O22   1.304379 A    
C19   C23   1.577562 S    
N1    H15   1.045082 S    
N10   O25   1.302262 A    
O3    C4    1.318293 A    
O1    V2    1.965671 S    
C29   C34   1.589269 S    
O6    V2    1.978086 S    
O14   C54   1.324715 A    
C10   C15   1.477843 S    
C9    C11   1.557688 S    
N14   H32   1.044510 S    
C34   N10   1.493460 S    
N17   H37   1.046034 S    
C30   C31   1.590957 S    
C3    C20   1.452001 S    
N12   O27   1.297505 A    
O2    V1    1.961024 S    
N27   O39   1.300237 A    
N11   H29   1.042228 S    
C29   C33   1.564107 S    
C41   H7    1.112996 S    
C17   H2    1.102587 S    
C6    C10   1.546218 S    
C4    C7    1.446370 S    
C18   C19   1.649333 S    
C12   C16   1.478971 S    
C12   C14   1.543562 S    
N15   O29   1.301294 A    
O5    V1    1.958469 S    
N29   H49   1.045284 S    
N16   H34   1.045507 S    
C35   C38   1.503137 S    
C18   N2    1.489832 S    
C13   N25   1.456265 S    
O13   V3    1.958437 S    
C8    C55   1.445953 S    
O12   C53   1.322921 A    
C17   C22   1.585403 S    
C42   H9    1.113050 S    
N13   H31   1.044368 S    
N23   O37   1.301047 A    
O13   C56   1.320255 A    
O9    V2    1.973757 S    
N13   H30   1.046080 S    
O7    V2    1.736222 S    
O4    V1    1.982477 S    
N28   O41   1.302265 A    
V1    O10   1.752595 S    
N6    H20   1.044934 S    
C44   C53   1.454408 S    
C49   H11   1.115544 S    
N16   H35   1.034267 S    
O19   C56   1.320522 A    
N25   H44   1.044843 S    
N5    O24   1.302021 A    
C30   C33   1.603297 S    
C30   N12   1.482016 S    
O3    V1    1.969486 S    
V3    O20   1.752545 S    
V4    O20   2.186512 S    
C18   C21   1.603956 S    
N20   O36   1.301085 A    
C43   H10   1.111082 S    
N1    H14   1.044880 S    
C21   C27   1.507502 S    
N9    H27   1.044503 S    
N10   O26   1.300316 A    
C24   N9    1.470191 S    
O11   C54   1.315369 A    
O14   V3    1.960827 S    
C14   N19   1.453201 S    
O18   C55   1.318351 A    
C22   N28   1.492831 S    
N4    O21   1.299265 A    
C36   N20   1.488787 S    
N14   H33   1.044924 S    
N17   H36   1.044315 S    
O17   V4    1.735189 S    
C9    C10   1.562306 S    
C22   N8    1.441019 S    
C41   H12   1.113690 S    
C53   O16   1.321526 A    
N8    H24   1.039470 S    
O8    C3    1.320944 A    
N11   H28   1.044959 S    
C31   N14   1.472517 S    
C5    C9    1.557287 S    
