data_mof_unit_59460.cif
_audit_creation_date              2013-03-05T15:48:16-0500
_audit_creation_method            fapswitch 2.2
_symmetry_space_group_name_H-M    P1
_symmetry_Int_Tables_number       1
_space_group_crystal_system       triclinic
_cell_length_a                    11.760077
_cell_length_b                    12.952054
_cell_length_c                    15.755654
_cell_angle_alpha                 93.255414
_cell_angle_beta                  72.956892
_cell_angle_gamma                 98.971932
_cell_volume                      2266.23639766

loop_
_atom_site_label
_atom_site_type_symbol
_atom_site_description
_atom_site_fract_x
_atom_site_fract_y
_atom_site_fract_z
_atom_type_partial_charge
O1    O     O_R   0.419950 0.645670 0.495380 -0.535196
O2    O     O_R   0.580050 0.354330 0.504620 -0.535753
O3    O     O_R   0.611110 0.658410 0.506370 -0.555912
O4    O     O_R   0.388890 0.341590 0.493630 -0.565934
C1    C     C_R   0.518792 0.699768 0.503272 0.918869
C2    C     C_R   0.480986 0.299999 0.496713 0.937989
O5    O     O_R   0.350820 0.490050 0.621260 -0.530362
O6    O     O_R   0.649180 0.509950 0.378740 -0.529707
O7    O     O_R   0.541970 0.502800 0.632250 -0.591586
O8    O     O_R   0.458030 0.497200 0.367750 -0.589612
C3    C     C_R   0.425745 0.492538 0.668506 0.910115
C4    C     C_R   0.574230 0.509471 0.331745 0.920091
Cu1   Cu    Cu3+1 0.386820 0.492450 0.493500 1.110601
Cu2   Cu    Cu3+1 0.613180 0.507550 0.506500 1.114303
C5    C     C_R   0.379092 0.482995 0.766152 -0.154637
C6    C     C_R   0.619699 0.529636 0.235406 -0.160760
C7    C     C_R   0.223197 0.427973 0.902683 0.263834
C8    C     C_R   0.764632 0.613983 0.104888 0.267576
C9    C     C_R   0.260006 0.438403 0.809696 0.275163
C10   C     C_R   0.733456 0.587001 0.195101 0.267768
C11   C     C_R   0.458894 0.517024 0.815973 -0.179030
C12   C     C_R   0.540242 0.498461 0.184969 -0.182144
C13   C     C_R   0.425236 0.506951 0.908654 0.061774
C14   C     C_R   0.564472 0.531425 0.097285 0.059792
C15   C     C_R   0.306385 0.459699 0.951840 -0.029065
C16   C     C_R   0.679393 0.588178 0.056476 -0.025211
C17   C     C_R   0.508868 0.537759 0.958697 0.098942
C18   C     C_R   0.476795 0.510102 0.049621 0.099241
C19   C     C_R   0.356987 0.464817 0.090598 -0.143141
C20   C     C_R   0.622764 0.596849 0.921203 -0.145462
C21   C     C_R   0.274078 0.440958 0.042951 -0.042120
C22   C     C_R   0.705248 0.621964 0.969180 -0.044894
H1    H     H_    0.184767 0.404567 0.078474 0.232355
H2    H     H_    0.789428 0.669610 0.936865 0.226336
H3    H     H_    0.458514 0.448275 0.216758 0.187638
H4    H     H_    0.549611 0.547493 0.779870 0.184002
H5    H     H_    0.322425 0.448641 0.160482 0.171296
H6    H     H_    0.649894 0.628950 0.855493 0.180873
C23   C     C_R   0.474341 0.187211 0.488751 -0.270592
C24   C     C_R   0.520411 0.811320 0.515751 -0.266021
C25   C     C_R   0.492402 0.959382 0.617053 0.309075
C26   C     C_R   0.458845 0.029657 0.399807 0.310080
C27   C     C_R   0.504757 0.853719 0.601603 0.224220
C28   C     C_R   0.450687 0.136220 0.413373 0.213570
C29   C     C_R   0.515333 0.870818 0.445860 0.320540
C30   C     C_R   0.494564 0.131318 0.555370 0.322828
C31   C     C_R   0.489063 0.973835 0.463020 -0.154934
C32   C     C_R   0.491984 0.022023 0.546097 -0.166343
N1    N     N_R   0.216750 0.481110 0.483710 -0.267334
N2    N     N_R   0.783250 0.518890 0.516290 -0.266671
C33   C     C_R   0.933212 0.597995 0.584309 0.274358
C34   C     C_R   0.066715 0.400967 0.416148 0.272075
C35   C     C_R   0.818387 0.589475 0.573481 -0.006058
C36   C     C_R   0.181478 0.409554 0.427217 -0.009388
C37   C     C_R   0.860139 0.453545 0.466385 0.522772
C38   C     C_R   0.140070 0.547076 0.532775 0.524784
C39   C     C_R   0.981407 0.462898 0.469824 -0.198546
C40   C     C_R   0.018533 0.536623 0.530038 -0.196346
H7    H     H_    0.245411 0.361789 0.387024 0.198834
H8    H     H_    0.754459 0.636571 0.614307 0.203497
N3    N     N_R   0.956272 0.663145 0.655595 0.159880
O9    O     O_R   0.953542 0.619653 0.728719 -0.255273
O10   O     O_R   0.945806 0.761803 0.657070 -0.236901
N4    N     N_R   0.043554 0.334490 0.345662 0.164720
O11   O     O_R   0.048853 0.235102 0.347577 -0.214636
O12   O     O_R   0.052296 0.376222 0.270422 -0.279014
N5    N     N_R   0.817006 0.619940 0.245207 0.168362
O13   O     O_R   0.794200 0.690945 0.307187 -0.272373
O14   O     O_R   0.922368 0.589622 0.221173 -0.224756
N6    N     N_R   0.177111 0.399601 0.760192 0.168319
O15   O     O_R   0.197651 0.320787 0.705702 -0.269714
O16   O     O_R   0.073906 0.433277 0.778284 -0.217296
N7    N     N_R   0.103073 0.379392 0.946089 0.151388
O17   O     O_R   0.030198 0.430951 0.005424 -0.248350
O18   O     O_R   0.064111 0.285714 0.922677 -0.206857
N8    N     N_R   0.880568 0.672634 0.064379 0.151319
O19   O     O_R   0.954527 0.635023 0.995414 -0.240860
O20   O     O_R   0.915124 0.760975 0.099366 -0.198622
N9    N     N_R   0.526624 0.187274 0.628445 0.158527
O21   O     O_R   0.455300 0.247200 0.679714 -0.321843
O22   O     O_R   0.631734 0.184935 0.639224 -0.244589
N10   N     N_R   0.549935 0.830260 0.356474 0.144577
O23   O     O_R   0.643425 0.877711 0.298112 -0.233808
O24   O     O_R   0.489978 0.745793 0.333285 -0.317772
N11   N     N_R   0.422319 0.193349 0.348637 0.144850
O25   O     O_R   0.321624 0.165902 0.329134 -0.248775
O26   O     O_R   0.501046 0.267661 0.304275 -0.348330
N12   N     N_R   0.493562 0.787752 0.674645 0.135665
O27   O     O_R   0.586782 0.750505 0.681763 -0.353742
O28   O     O_R   0.392905 0.772256 0.737957 -0.243449
N13   N     N_R   0.467268 0.998637 0.706709 0.190281
O29   O     O_R   0.364777 0.031048 0.744631 -0.214784
O30   O     O_R   0.538501 0.988348 0.754215 -0.198825
N14   N     N_R   0.427878 0.977561 0.324998 0.190577
O31   O     O_R   0.336003 0.903801 0.337769 -0.225840
O32   O     O_R   0.482937 0.010861 0.244902 -0.191393
N15   N     N_R   0.187024 0.634074 0.578731 0.149606
O33   O     O_R   0.197729 0.622671 0.657319 -0.249452
O34   O     O_R   0.202637 0.727735 0.547424 -0.285825
N16   N     N_R   0.814050 0.369516 0.417194 0.150170
O35   O     O_R   0.795260 0.274483 0.446282 -0.277604
O36   O     O_R   0.810111 0.384586 0.337305 -0.249992

loop_
_geom_bond_atom_site_label_1
_geom_bond_atom_site_label_2
_geom_bond_distance
_ccdc_geom_bond_type
C15   C21   1.398253 A    
C16   C22   1.399065 A    
C25   C27   1.398845 A    
N7    O17   1.300898 A    
C10   N5    1.434003 S    
C29   N10   1.439326 S    
C33   N3    1.430596 S    
N15   O33   1.299522 A    
C11   H4    1.075137 S    
N11   O25   1.301029 A    
C5    C9    1.412470 A    
C12   H3    1.075682 S    
O1    C1    1.295515 A    
C27   N12   1.435101 S    
C18   C19   1.413517 A    
C14   C16   1.419400 A    
C30   N9    1.437857 S    
N1    C36   1.351328 A    
C20   H6    1.077225 S    
O4    Cu1   1.958015 S    
N3    O10   1.300982 A    
C22   H2    1.081562 S    
C3    C5    1.479477 S    
C24   C27   1.402265 A    
C4    C6    1.477765 S    
C8    C16   1.418842 A    
C37   N16   1.430175 S    
C6    C12   1.396000 A    
C21   H1    1.081450 S    
N6    O15   1.301249 A    
C13   C17   1.429907 A    
C6    C10   1.410877 A    
N11   O26   1.300483 A    
Cu1   Cu2   2.705400 S    
C17   C20   1.413002 A    
C7    N7    1.436857 S    
N7    O18   1.301164 A    
O2    C2    1.298976 A    
C26   C28   1.398439 A    
C38   N15   1.430558 S    
N15   O34   1.301546 A    
C35   H8    1.079834 S    
C34   C36   1.397569 A    
C36   H7    1.081914 S    
C29   C31   1.409780 A    
C24   C29   1.399757 A    
C30   C32   1.411348 A    
N2    C35   1.351061 A    
N5    O13   1.301052 A    
N8    O19   1.300970 A    
O4    C2    1.296674 A    
C34   N4    1.429833 S    
N13   O29   1.301212 A    
N9    O22   1.301162 A    
C33   C35   1.396833 A    
N4    O12   1.300786 A    
O5    C3    1.305546 A    
O7    Cu2   1.911992 S    
N13   O30   1.301327 A    
C31   C32   1.425111 A    
C5    C11   1.398095 A    
O6    C4    1.305956 A    
N16   O36   1.299808 A    
N14   O31   1.301155 A    
C33   C40   1.427732 A    
N14   O32   1.301364 A    
O7    C3    1.306308 A    
O3    Cu2   1.958016 S    
O8    C4    1.304816 A    
C23   C30   1.403100 A    
Cu1   N1    2.032769 S    
C25   N13   1.435902 S    
N12   O28   1.301171 A    
N10   O24   1.300982 A    
C37   C39   1.429028 A    
C12   C14   1.403702 A    
O1    Cu1   1.962116 S    
C28   N11   1.435705 S    
O6    Cu2   1.932768 S    
C26   N14   1.435904 S    
C14   C18   1.429992 A    
N8    O20   1.301097 A    
O3    C1    1.297463 A    
O8    Cu1   1.911993 S    
C23   C28   1.404028 A    
N1    C38   1.377472 A    
N2    C37   1.377871 A    
C7    C15   1.417170 A    
N4    O11   1.300928 A    
C11   C13   1.404542 A    
C19   C21   1.385066 A    
C20   C22   1.386220 A    
C39   C40   1.418584 A    
Cu2   N2    2.032768 S    
N16   O35   1.301448 A    
C7    C9    1.408749 A    
C25   C32   1.419705 A    
C38   C40   1.427642 A    
C8    C10   1.409892 A    
C26   C31   1.417865 A    
C13   C15   1.419188 A    
N3    O9    1.300805 A    
O2    Cu2   1.962115 S    
C34   C39   1.428883 A    
N9    O21   1.301218 A    
O5    Cu1   1.932767 S    
N12   O27   1.300110 A    
N10   O23   1.301096 A    
C1    C24   1.444955 S    
C19   H5    1.076452 S    
C17   C18   1.422054 A    
C2    C23   1.450933 S    
C9    N6    1.435136 S    
N6    O16   1.301065 A    
N5    O14   1.301038 A    
C8    N8    1.437105 S    
