data_mof_unit_49159.cif
_audit_creation_date              2012-12-10T17:16:34-0500
_audit_creation_method            fapswitch 2.2
_symmetry_space_group_name_H-M    P1
_symmetry_Int_Tables_number       1
_space_group_crystal_system       triclinic
_cell_length_a                    10.107908
_cell_length_b                    10.662349
_cell_length_c                    10.778387
_cell_angle_alpha                 89.626528
_cell_angle_beta                  95.397257
_cell_angle_gamma                 82.794359
_cell_volume                      1147.1494487

loop_
_atom_site_label
_atom_site_type_symbol
_atom_type_description
_atom_site_fract_x
_atom_site_fract_y
_atom_site_fract_z
_atom_type_partial_charge
C1    C     C_R   0.443714 0.504407 0.267238 0.936215
C2    C     C_R   0.506916 0.739059 0.513481 0.880748
C3    C     C_R   0.670982 0.096384 0.340510 -0.203170
C4    C     C_R   0.328364 0.904113 0.658390 -0.203322
C5    C     C_R   0.791228 0.026495 0.315880 -0.256962
C6    C     C_R   0.208003 0.974028 0.682708 -0.256774
C7    C     C_R   0.835235 0.910877 0.379701 0.568836
C8    C     C_R   0.164065 0.089537 0.618657 0.567107
C9    C     C_R   0.748197 0.862303 0.455598 -0.230424
C10   C     C_R   0.251277 0.137959 0.542859 -0.231284
C11   C     C_R   0.619325 0.926780 0.470893 -0.003102
C12   C     C_R   0.555995 0.487339 0.732794 0.936977
C13   C     C_R   0.380203 0.073451 0.527903 -0.002240
C14   C     C_R   0.589372 0.050957 0.425917 0.071422
C15   C     C_R   0.410137 0.949343 0.573007 0.069990
C16   C     C_R   0.519845 0.872539 0.530416 -0.190356
C17   C     C_R   0.479811 0.127707 0.468696 -0.186739
C18   C     C_3   0.941619 0.092236 0.663855 -0.354512
C19   C     C_3   0.057727 0.908457 0.334902 -0.354633
C20   C     C_3   0.938233 0.470097 0.728239 -0.281577
C21   C     C_3   0.061426 0.529949 0.271722 -0.281459
C22   C     C_2   0.411382 0.493562 0.135003 -0.373944
C23   C     C_2   0.587166 0.466465 0.865140 -0.382158
C24   C     C_2   0.509849 0.450075 0.066600 -0.157556
C25   C     C_2   0.486350 0.454237 0.933757 -0.145185
C26   C     C_2   0.068956 0.501035 0.480864 0.453644
C27   C     C_2   0.931021 0.499018 0.519117 0.454820
C28   C     C_R   0.493015 0.261021 0.486290 0.873955
H1    H     H_    0.641633 0.186299 0.291978 0.163150
H2    H     H_    0.309934 0.522854 0.093334 0.138693
H3    H     H_    0.871989 0.400870 0.371344 0.151673
H4    H     H_    0.128031 0.599045 0.628707 0.152717
H5    H     H_    0.953882 0.071537 0.765725 0.165910
H6    H     H_    0.939883 0.003751 0.609987 0.181844
H7    H     H_    0.842716 0.149761 0.641995 0.211815
H8    H     H_    0.059202 0.996689 0.389197 0.182063
H9    H     H_    0.045857 0.929669 0.233134 0.165978
H10   H     H_    0.156601 0.850910 0.356865 0.211242
H11   H     H_    0.906479 0.514173 0.815351 0.168789
H12   H     H_    0.357658 0.814341 0.707168 0.166961
H13   H     H_    0.049015 0.446906 0.740811 0.136964
H14   H     H_    0.892059 0.381027 0.716332 0.213404
H15   H     H_    0.950677 0.553609 0.259715 0.140196
H16   H     H_    0.092346 0.485583 0.184470 0.168926
H17   H     H_    0.108091 0.618784 0.283209 0.213233
H18   H     H_    0.850029 0.065055 0.249646 0.140740
H19   H     H_    0.149095 0.935550 0.748898 0.141562
H20   H     H_    0.787054 0.776654 0.507501 0.215851
H21   H     H_    0.212634 0.223581 0.490810 0.216487
H22   H     H_    0.383261 0.457954 0.892847 0.185390
H23   H     H_    0.611730 0.421052 0.107681 0.180989
H24   H     H_    0.689874 0.463067 0.906617 0.140719
N1    N     N_2   0.157300 0.551390 0.551120 -0.221692
N2    N     N_2   0.842700 0.448610 0.448880 -0.221063
O1    O     O_R   0.568940 0.489660 0.307530 -0.628941
O2    O     O_3   0.957158 0.837094 0.367301 -0.640086
O3    O     O_3   0.895220 0.556211 0.627948 -0.620895
O4    O     O_3   0.104723 0.443896 0.371999 -0.621120
O5    O     O_R   0.431060 0.510340 0.692470 -0.630869
O6    O     O_R   0.348880 0.522640 0.340350 -0.573598
O7    O     O_R   0.651120 0.477360 0.659650 -0.573282
O8    O     O_R   0.610030 0.300280 0.483580 -0.620593
O9    O     O_R   0.389970 0.699720 0.516420 -0.617670
O10   O     O_R   0.389970 0.333270 0.516400 -0.599787
O11   O     O_R   0.610030 0.666730 0.483600 -0.596312
O12   O     O_3   0.042046 0.163349 0.630636 -0.640541
Zn1   Zn    Zn3+2 0.646940 0.477980 0.478080 0.966885
Zn2   Zn    Zn3+2 0.353060 0.522020 0.521920 0.965954

loop_
_geom_bond_atom_site_label_1
_geom_bond_atom_site_label_2
_ccdc_geom_bond_type
C19   O2    S    
O1    Zn1   S    
C24   C25   S    
C5    C7    A    
C8    O12   S    
C19   H10   S    
O5    Zn2   S    
C18   O12   S    
C21   H16   S    
C2    C16   S    
C11   C16   A    
O7    Zn1   S    
C20   H14   S    
C14   C17   A    
C13   C17   A    
C2    O11   A    
C7    C9    A    
C24   H23   S    
C23   C25   D    
C20   H13   S    
C23   H24   S    
C27   N2    D    
C21   O4    S    
H3    N2    S    
C22   H2    S    
C12   O5    A    
C27   O3    S    
C12   O7    A    
C9    C11   A    
C12   C23   S    
C26   C27   S    
C10   H21   S    
C3    C14   A    
C7    O2    S    
C18   H6    S    
C28   O10   A    
C8    C10   A    
C18   H5    S    
C21   H17   S    
C19   H8    S    
C13   C15   A    
C4    C15   A    
C1    O1    A    
C11   C14   A    
C22   C24   D    
O8    Zn1   S    
C6    H19   S    
C20   H11   S    
C15   C16   A    
C26   N1    D    
O10   Zn2   S    
H4    N1    S    
C1    C22   S    
C5    H18   S    
C2    O9    A    
O6    Zn2   S    
C9    H20   S    
C4    C6    A    
C18   H7    S    
C1    O6    A    
C3    H1    S    
N1    Zn2   S    
C25   H22   S    
C6    C8    A    
N2    Zn1   S    
C19   H9    S    
C3    C5    A    
C20   O3    S    
O9    Zn2   S    
C17   C28   S    
C26   O4    S    
C21   H15   S    
C4    H12   S    
O11   Zn1   S    
C10   C13   A    
C28   O8    A    
