data_mof_unit_11484.cif
_audit_creation_date              2013-03-05T16:48:18-0500
_audit_creation_method            fapswitch 2.2
_symmetry_space_group_name_H-M    P1
_symmetry_Int_Tables_number       1
_space_group_crystal_system       triclinic
_cell_length_a                    23.178599
_cell_length_b                    8.957567
_cell_length_c                    8.097963
_cell_angle_alpha                 89.736979
_cell_angle_beta                  90.165857
_cell_angle_gamma                 89.474536
_cell_volume                      1681.23461079

loop_
_atom_site_label
_atom_site_type_symbol
_atom_site_description
_atom_site_fract_x
_atom_site_fract_y
_atom_site_fract_z
_atom_type_partial_charge
O1    O     O_R   0.500000 0.285350 0.636850 -0.622243
O2    O     O_R   0.500000 0.714650 0.363150 -0.635385
O3    O     O_R   0.500000 0.714650 0.636850 -0.604944
O4    O     O_R   0.500000 0.285350 0.363150 -0.614780
H1    H     H_    0.948798 0.251327 0.909891 0.195496
H2    H     H_    0.054642 0.463221 0.109568 0.199423
H3    H     H_    0.949967 0.479630 0.111837 0.191216
H4    H     H_    0.053804 0.251579 0.912542 0.193964
C1    C     C_R   0.499458 0.217931 0.500244 0.968157
C2    C     C_R   0.500046 0.782101 0.499764 0.916465
O5    O     O_R   0.416160 0.500000 0.636910 -0.606786
O6    O     O_R   0.583840 0.500000 0.363090 -0.584167
O7    O     O_R   0.583840 0.500000 0.636910 -0.591132
O8    O     O_R   0.416160 0.500000 0.363090 -0.642687
C3    C     C_R   0.210952 0.405491 0.523381 -0.006237
C4    C     C_R   0.791330 0.410449 0.520307 -0.031401
C5    C     C_R   0.388987 0.500032 0.499709 1.045743
C6    C     C_R   0.611155 0.497420 0.500255 1.012782
Zn1   Zn    Zn3+2 0.500000 0.500000 0.682780 1.024491
Zn2   Zn    Zn3+2 0.500000 0.500000 0.317220 1.002396
C7    C     C_R   0.287555 0.588551 0.524433 0.334816
C8    C     C_R   0.696946 0.355930 0.407058 0.352074
C9    C     C_R   0.309359 0.323841 0.480459 0.315707
C10   C     C_R   0.708342 0.557637 0.606671 0.329006
C11   C     C_R   0.327617 0.471931 0.499048 -0.393748
C12   C     C_R   0.673292 0.472377 0.502096 -0.411114
C13   C     C_R   0.881548 0.426297 0.374813 0.602337
C14   C     C_R   0.122250 0.337752 0.659639 0.606716
C15   C     C_R   0.880710 0.337245 0.653783 0.555416
C16   C     C_R   0.122511 0.393460 0.370611 0.555800
N1    N     N_R   0.852572 0.390162 0.516281 -0.300001
N2    N     N_R   0.150794 0.373847 0.517645 -0.288801
C17   C     C_R   0.940935 0.326999 0.655593 -0.035670
C18   C     C_R   0.062351 0.394070 0.365939 -0.031022
C19   C     C_R   0.941472 0.410904 0.368104 -0.046879
C20   C     C_R   0.062152 0.324423 0.657911 -0.042687
C21   C     C_R   0.971394 0.364638 0.511303 -0.018501
C22   C     C_R   0.032002 0.359663 0.511332 -0.008351
C23   C     C_R   0.971326 0.282598 0.798148 -0.164264
C24   C     C_R   0.032065 0.434149 0.221917 -0.177137
C25   C     C_R   0.972116 0.444210 0.223487 -0.169620
C26   C     C_R   0.031469 0.282903 0.799813 -0.173359
C27   C     C_1   0.499371 0.065142 0.500373 -0.187922
C28   C     C_1   0.499629 0.934893 0.499660 -0.197443
C29   C     C_R   0.228678 0.554893 0.533634 0.422106
C30   C     C_R   0.755906 0.323363 0.417392 0.420262
C31   C     C_R   0.251145 0.289352 0.504474 0.409558
C32   C     C_R   0.767647 0.524566 0.618650 0.390739
N3    N     N_1   0.500000 0.500000 0.073640 -0.026676
N4    N     N_1   0.500000 0.500000 0.926360 -0.025161
O9    O     O_2   0.852359 0.478510 0.241868 -0.568736
O10   O     O_2   0.151708 0.319010 0.802192 -0.549796
O11   O     O_2   0.850425 0.294754 0.787744 -0.556980
O12   O     O_2   0.152678 0.415704 0.230421 -0.558270
O13   O     O_3   0.188013 0.665111 0.565917 -0.579940
C33   C     C_3   0.177278 0.749917 0.421389 -0.234678
H5    H     H_    0.176955 0.681963 0.306698 0.177828
H6    H     H_    0.209243 0.840337 0.408719 0.213225
H7    H     H_    0.134099 0.803453 0.432440 0.189436
O14   O     O_3   0.778674 0.214214 0.314897 -0.536358
C34   C     C_3   0.801591 0.094485 0.409577 -0.252012
H8    H     H_    0.794740 0.989380 0.340605 0.184971
H9    H     H_    0.780806 0.080779 0.532782 0.135261
H10   H     H_    0.848834 0.107559 0.425025 0.175954
O15   O     O_3   0.232509 0.143149 0.502466 -0.610298
C35   C     C_3   0.248645 0.073851 0.653048 -0.194950
H11   H     H_    0.238427 0.143880 0.762506 0.180674
H12   H     H_    0.295295 0.044598 0.653834 0.214089
H13   H     H_    0.224175 0.968890 0.666999 0.224814
O16   O     O_3   0.804621 0.613943 0.708960 -0.613789
C36   C     C_3   0.791824 0.604788 0.879173 -0.062790
H14   H     H_    0.775841 0.493037 0.918467 0.197953
H15   H     H_    0.760327 0.693123 0.914064 0.185289
H16   H     H_    0.832057 0.626064 0.949386 0.196100
O17   O     O_3   0.305068 0.734250 0.548269 -0.588321
C37   C     C_3   0.327112 0.793463 0.399278 -0.316120
H17   H     H_    0.310821 0.737810 0.285436 0.146659
H18   H     H_    0.374928 0.790099 0.401579 0.177766
H19   H     H_    0.313770 0.911888 0.390437 0.226085
O18   O     O_3   0.662549 0.277801 0.298058 -0.534695
C38   C     C_3   0.645043 0.143981 0.374464 -0.241667
H20   H     H_    0.610999 0.092770 0.297295 0.189918
H21   H     H_    0.626485 0.163247 0.499409 0.109406
H22   H     H_    0.681436 0.063042 0.382105 0.163677
O19   O     O_3   0.349109 0.211666 0.448361 -0.606701
C39   C     C_3   0.349976 0.187033 0.276382 -0.265663
H23   H     H_    0.362053 0.289455 0.206909 0.182504
H24   H     H_    0.307651 0.145765 0.231213 0.181315
H25   H     H_    0.383003 0.100175 0.249382 0.175459
O20   O     O_3   0.684527 0.672994 0.697561 -0.574309
C40   C     C_3   0.686252 0.804546 0.601655 -0.287681
H26   H     H_    0.659194 0.794688 0.488530 0.135229
H27   H     H_    0.731295 0.833617 0.568060 0.175788
H28   H     H_    0.668399 0.897932 0.675726 0.187801

loop_
_geom_bond_atom_site_label_1
_geom_bond_atom_site_label_2
_geom_bond_distance
_ccdc_geom_bond_type
C35   H12   1.110245 S    
O13   C33   1.412606 S    
C20   C26   1.403663 A    
C6    C12   1.455613 S    
C37   H19   1.104181 S    
C3    C31   1.399340 A    
C27   C28   1.166714 T    
C4    C32   1.407198 A    
C38   H20   1.109070 S    
C3    N2    1.426111 S    
O19   C39   1.411226 S    
C4    N1    1.429911 S    
C16   O12   1.350000 S    
O5    Zn1   1.977422 S    
C17   C23   1.404625 A    
O7    C6    1.276721 A    
C18   C24   1.403101 A    
C32   O16   1.387303 S    
C19   C21   1.408239 A    
C21   C22   1.405117 A    
C37   H18   1.108535 S    
C39   H24   1.112965 S    
C35   H13   1.107977 S    
C15   C17   1.398132 A    
C33   H5    1.112847 S    
C34   H9    1.115949 S    
O3    Zn1   1.956708 S    
O16   C36   1.412945 S    
C9    C11   1.404706 A    
C35   H11   1.113040 S    
O8    C5    1.274636 A    
C38   H21   1.114141 S    
C13   O9    1.349387 S    
C23   C26   1.394082 A    
C7    C29   1.402411 A    
C1    C27   1.368637 S    
O1    Zn1   1.960062 S    
C16   C18   1.394781 A    
O2    Zn2   1.960061 S    
C10   C32   1.406476 A    
O8    Zn2   1.979535 S    
C14   N2    1.367242 A    
O1    C1    1.262854 A    
C37   H17   1.116537 S    
C4    C30   1.411034 A    
C40   H26   1.113001 S    
C36   H15   1.109761 S    
O7    Zn1   1.979532 S    
C39   H23   1.112413 S    
C13   C19   1.395773 A    
C13   N1    1.368677 A    
C17   C21   1.408155 A    
O14   C34   1.414179 S    
C34   H10   1.109107 S    
O17   C37   1.414487 S    
Zn2   N3    1.972502 S    
C40   H27   1.112593 S    
O6    Zn2   1.977420 S    
C29   O13   1.385009 S    
C24   C25   1.391718 A    
C8    C30   1.396966 A    
O15   C35   1.413614 S    
H1    C23   1.083066 S    
C9    O19   1.383096 S    
H2    C24   1.082807 S    
C3    C29   1.406273 A    
O2    C2    1.262967 A    
C38   H22   1.108646 S    
C7    C11   1.407495 A    
O5    C5    1.275556 A    
C30   O14   1.387025 S    
C18   C22   1.407657 A    
C10   C12   1.404906 A    
H4    C26   1.082745 S    
O18   C38   1.409933 S    
C39   H25   1.109402 S    
C10   O20   1.383138 S    
C36   H16   1.109247 S    
C7    O17   1.384525 S    
C33   H7    1.109855 S    
C5    C11   1.446847 S    
C9    C31   1.400886 A    
C20   C22   1.408791 A    
C8    O18   1.384339 S    
C36   H14   1.115830 S    
C15   N1    1.369370 A    
O3    C2    1.261461 A    
C40   H28   1.109268 S    
C16   N2    1.367398 A    
C14   O10   1.348537 S    
Zn1   N4    1.972502 S    
O20   C40   1.409256 S    
C15   O11   1.349055 S    
C2    C28   1.368581 S    
C33   H6    1.107315 S    
H3    C25   1.083230 S    
C34   H8    1.109342 S    
C19   C25   1.403740 A    
O4    Zn2   1.956709 S    
C14   C20   1.399216 A    
N3    N4    1.192667 T    
C8    C12   1.407209 A    
O6    C6    1.276944 A    
O4    C1    1.261522 A    
C31   O15   1.382938 S    
