data_mof_unit_12009.cif
_audit_creation_date              2012-12-11T17:25:01-0500
_audit_creation_method            fapswitch 2.2
_symmetry_space_group_name_H-M    P1
_symmetry_Int_Tables_number       1
_space_group_crystal_system       triclinic
_cell_length_a                    6.943994
_cell_length_b                    20.461421
_cell_length_c                    24.538009
_cell_angle_alpha                 90.142603
_cell_angle_beta                  90.175612
_cell_angle_gamma                 89.381434
_cell_volume                      3486.22802664

loop_
_atom_site_label
_atom_site_type_symbol
_atom_type_description
_atom_site_fract_x
_atom_site_fract_y
_atom_site_fract_z
_atom_type_partial_charge
O1    O     O_R   0.507280 0.423750 0.460310 -0.535932
O2    O     O_R   0.171030 0.555650 0.437630 -0.536768
O3    O     O_R   0.004080 0.576250 0.539690 -0.538408
C1    C     C_R   0.339362 0.575572 0.421712 0.715286
O4    O     O_R   0.177330 0.422980 0.453960 -0.539659
O5    O     O_R   0.010420 0.442640 0.556140 -0.533452
C2    C     C_R   0.347072 0.399039 0.443120 0.700891
O6    O     O_R   0.500930 0.557360 0.443860 -0.535831
O7    O     O_3   0.340310 0.506600 0.533500 -0.363593
V1    V     V_3+5 0.064140 0.498780 0.493780 1.401147
O8    O     O_R   0.680890 0.444350 0.562370 -0.533660
C3    C     C_R   0.850480 0.424644 0.578343 0.723010
O9    O     O_R   0.674590 0.577020 0.546040 -0.539978
C4    C     C_R   0.842374 0.601149 0.556718 0.701068
V2    V     V_3+5 0.564550 0.501220 0.506220 1.411134
O10   O     O_3   0.838250 0.493400 0.466500 -0.366092
C5    C     C_R   0.977947 0.837068 0.911433 -0.099035
C6    C     C_R   0.846413 0.662560 0.588808 -0.068071
C7    C     C_R   0.058542 0.720955 0.906908 0.412084
C8    C     C_R   0.055675 0.781072 0.934829 -0.245491
C9    C     C_R   0.916391 0.835147 0.857157 -0.211952
C10   C     C_R   0.933175 0.777099 0.825004 0.020874
C11   C     C_R   0.993308 0.717864 0.851436 0.008783
C12   C     C_R   0.894446 0.776802 0.767353 0.080482
C13   C     C_R   0.905602 0.717132 0.736985 0.034130
C14   C     C_R   0.945681 0.659170 0.765545 -0.204957
C15   C     C_R   0.984833 0.657637 0.821747 0.067841
C16   C     C_R   0.851192 0.834930 0.738576 -0.175757
C17   C     C_R   0.817459 0.834723 0.682829 -0.198531
C18   C     C_R   0.827536 0.776988 0.652731 0.117449
C19   C     C_R   0.873101 0.717093 0.678797 0.093775
C20   C     C_R   0.792366 0.779405 0.596420 -0.187804
C21   C     C_R   0.799946 0.722908 0.564186 0.074174
C22   C     C_R   0.883862 0.660043 0.645232 -0.246389
H1    H     H_    0.918646 0.612424 0.661256 0.098070
H2    H     H_    0.784426 0.880763 0.662902 0.122809
H3    H     H_    0.116764 0.784700 0.975335 0.105960
H4    H     H_    0.859795 0.880377 0.841156 0.106605
H5    H     H_    0.946770 0.613775 0.744077 0.121246
H6    H     H_    0.845321 0.882313 0.757595 0.120338
H7    H     H_    0.758335 0.825904 0.577348 0.111150
H8    H     H_    0.634539 0.233017 0.813139 0.131933
C23   C     C_R   0.738149 0.287691 0.744251 0.417320
C24   C     C_R   0.894136 0.298338 0.708739 0.017632
C25   C     C_R   0.068615 0.264715 0.717906 -0.209142
H9    H     H_    0.190553 0.272710 0.691398 0.176781
C26   C     C_R   0.087292 0.220264 0.761173 -0.143904
H10   H     H_    0.223350 0.194909 0.767365 0.138777
C27   C     C_R   0.931150 0.208212 0.795758 0.069183
C28   C     C_R   0.756750 0.242000 0.786943 -0.242807
C29   C     C_1   0.876335 0.343234 0.662886 0.000513
C30   C     C_1   0.948968 0.161044 0.839955 -0.032149
C31   C     C_1   0.961859 0.121888 0.877057 -0.195781
C32   C     C_1   0.862973 0.380457 0.624472 -0.190098
H11   H     H_    0.690642 0.719807 0.307211 0.131075
C33   C     C_R   0.589046 0.777068 0.239420 -0.236989
H12   H     H_    0.728446 0.798885 0.232812 0.178061
C34   C     C_R   0.432704 0.793727 0.205593 0.045331
C35   C     C_R   0.253530 0.763642 0.214367 0.431082
C36   C     C_R   0.231239 0.719985 0.258626 -0.266384
H13   H     H_    0.091569 0.699108 0.266755 0.119819
C37   C     C_R   0.387992 0.703636 0.292413 0.092081
C38   C     C_R   0.567267 0.732096 0.282085 -0.166695
C39   C     C_1   0.457176 0.840623 0.161297 0.010822
C40   C     C_1   0.365380 0.658101 0.337705 -0.042791
C41   C     C_1   0.350011 0.620367 0.375776 -0.200490
C42   C     C_1   0.473747 0.879172 0.123859 -0.176076
C43   C     C_R   0.464231 0.161263 0.089613 -0.116742
C44   C     C_R   0.362412 0.337830 0.411134 -0.077240
C45   C     C_R   0.407729 0.277651 0.093630 -0.126832
C46   C     C_R   0.418886 0.219999 0.063807 -0.276324
C47   C     C_R   0.492046 0.159691 0.146585 0.346404
C48   C     C_R   0.450250 0.216734 0.178955 -0.077844
C49   C     C_R   0.424964 0.277078 0.150735 0.008057
C50   C     C_R   0.434898 0.217156 0.237523 0.058480
C51   C     C_R   0.410906 0.277951 0.265859 0.004255
C52   C     C_R   0.431258 0.335943 0.236343 -0.314646
C53   C     C_R   0.421144 0.336516 0.179530 0.410482
C54   C     C_R   0.439281 0.159548 0.269110 -0.162894
C55   C     C_R   0.453188 0.162295 0.325586 -0.225833
C56   C     C_R   0.434392 0.221742 0.353056 0.126027
C57   C     C_R   0.386619 0.279244 0.323838 0.087757
C58   C     C_R   0.459574 0.223917 0.409607 -0.175230
C59   C     C_R   0.436651 0.282572 0.437613 -0.198305
C60   C     C_R   0.317705 0.334608 0.354565 0.000538
H14   H     H_    0.468884 0.284180 0.480836 0.120568
H15   H     H_    0.473520 0.117198 0.348085 0.127156
H16   H     H_    0.381852 0.322804 0.071706 0.167047
H17   H     H_    0.398794 0.221543 0.020012 0.129180
H18   H     H_    0.453762 0.381745 0.257415 0.136835
H19   H     H_    0.434515 0.111369 0.251748 0.189829
H20   H     H_    0.503723 0.180617 0.431937 0.120992
O11   O     O_R   0.323320 0.942780 0.056240 -0.530966
O12   O     O_R   0.647300 0.077050 0.046060 -0.539648
O13   O     O_R   0.813840 0.057330 0.943840 -0.536529
C61   C     C_R   0.477665 0.101216 0.056519 0.760728
O14   O     O_R   0.653250 0.944380 0.062400 -0.536500
O15   O     O_R   0.819830 0.923720 0.960300 -0.536615
C62   C     C_R   0.484833 0.924529 0.078347 0.742683
O16   O     O_R   0.317330 0.076390 0.039790 -0.541053
O17   O     O_3   0.483830 0.993470 0.966560 -0.370427
V3    V     V_3+5 0.760140 0.001210 0.006210 1.426868
O18   O     O_R   0.149290 0.922840 0.953850 -0.537811
C63   C     C_R   0.981373 0.898925 0.942890 0.715106
O19   O     O_R   0.143340 0.055500 0.937510 -0.539578
C64   C     C_R   0.973877 0.075804 0.921939 0.719320
V4    V     V_3+5 0.259690 0.998600 0.993650 1.430747
O20   O     O_3   0.986130 0.006520 0.033440 -0.366886
C65   C     C_3   0.009711 0.591426 0.850219 -0.288180
C66   C     C_3   0.950340 0.529919 0.818155 -0.377841
C67   C     C_3   0.961964 0.469039 0.853964 -0.785008
H21   H     H_    0.110133 0.462436 0.870399 0.235484
H22   H     H_    0.858858 0.473236 0.888348 0.230531
H23   H     H_    0.925227 0.425226 0.829427 0.211760
H24   H     H_    0.800021 0.535585 0.802984 0.203984
H25   H     H_    0.048753 0.522119 0.783062 0.198102
H26   H     H_    0.163440 0.584940 0.861883 0.219315
H27   H     H_    0.918228 0.592686 0.887259 0.199569
O21   O     O_3   0.563073 0.318714 0.735505 -0.556413
C68   C     C_3   0.558192 0.376657 0.766825 0.089461
H28   H     H_    0.672809 0.410760 0.753501 0.120942
H29   H     H_    0.576551 0.365878 0.811064 0.116796
C69   C     C_3   0.364328 0.410688 0.758994 -0.713590
H30   H     H_    0.246933 0.379077 0.774015 0.229003
H31   H     H_    0.361852 0.457296 0.782259 0.178101
H32   H     H_    0.339884 0.421443 0.715151 0.224875
O22   O     O_3   0.098611 0.780430 0.181383 -0.555543
C70   C     C_3   0.037601 0.724875 0.151962 0.082640
H33   H     H_    0.954491 0.691837 0.178811 0.123759
H34   H     H_    0.161609 0.697365 0.133858 0.109806
C71   C     C_3   0.906652 0.746749 0.105552 -0.717174
H35   H     H_    0.986720 0.778648 0.077141 0.211361
H36   H     H_    0.853492 0.703436 0.082965 0.164238
H37   H     H_    0.781342 0.774293 0.121927 0.230979
O23   O     O_3   0.426420 0.395171 0.151344 -0.556283
C72   C     C_3   0.262791 0.433749 0.164435 0.092369
H38   H     H_    0.278280 0.455744 0.205679 0.117387
H39   H     H_    0.127856 0.404669 0.162641 0.120507
C73   C     C_3   0.244215 0.489136 0.123537 -0.718606
H40   H     H_    0.226252 0.468877 0.081815 0.223857
H41   H     H_    0.116742 0.520062 0.133610 0.171876
H42   H     H_    0.375018 0.519884 0.124750 0.224461
C74   C     C_3   0.167667 0.382398 0.331715 -0.392201
C75   C     C_3   0.964136 0.364717 0.350905 -0.257082
C76   C     C_3   0.817095 0.416637 0.333448 -0.740591
H43   H     H_    0.854736 0.464888 0.351114 0.232684
H44   H     H_    0.812300 0.420465 0.288312 0.216532
H45   H     H_    0.672178 0.403133 0.348171 0.212687
H46   H     H_    0.922762 0.316990 0.332766 0.190677
H47   H     H_    0.958161 0.359408 0.395813 0.212152
H48   H     H_    0.204410 0.433135 0.343856 0.162805
H49   H     H_    0.158285 0.381894 0.286909 0.173783
O24   O     O_3   0.566346 0.102734 0.168734 -0.577633
C77   C     C_3   0.767263 0.109905 0.175475 0.070829
H50   H     H_    0.799334 0.148034 0.206574 0.131137
H51   H     H_    0.837976 0.123181 0.136356 0.133742
C78   C     C_3   0.854084 0.045419 0.194732 -0.672228
H52   H     H_    0.826439 0.006526 0.164111 0.229973
H53   H     H_    0.012077 0.050498 0.200189 0.179996
H54   H     H_    0.789258 0.031224 0.234240 0.213519
C79   C     C_3   0.759046 0.728442 0.503679 -0.378577
C80   C     C_3   0.946788 0.729213 0.470941 -0.298408
C81   C     C_3   0.906083 0.730056 0.409838 -0.766205
H55   H     H_    0.831675 0.684538 0.397472 0.228497
H56   H     H_    0.814845 0.773039 0.398980 0.229083
H57   H     H_    0.043699 0.733156 0.387170 0.224968
H58   H     H_    0.030359 0.773365 0.482041 0.193625
H59   H     H_    0.036378 0.685424 0.480482 0.200309
H60   H     H_    0.666379 0.687585 0.490013 0.178795
H61   H     H_    0.676488 0.774163 0.495011 0.171114
O25   O     O_3   0.151518 0.667743 0.930827 -0.565263
C82   C     C_3   0.073194 0.653832 0.982668 0.063835
H62   H     H_    0.912960 0.658577 0.982851 0.116691
H63   H     H_    0.135834 0.686615 0.014030 0.136921
C83   C     C_3   0.126023 0.584122 0.998624 -0.738992
H64   H     H_    0.285052 0.578118 0.000590 0.230875
H65   H     H_    0.064480 0.573292 0.039249 0.183262
H66   H     H_    0.067124 0.548898 0.968606 0.220956

loop_
_geom_bond_atom_site_label_1
_geom_bond_atom_site_label_2
_ccdc_geom_bond_type
O17   V4    S    
C1    C41   S    
O25   C82   S    
C13   C19   A    
O17   V3    S    
C82   H62   S    
C48   C49   A    
C4    C6    S    
C7    C11   A    
C7    C8    A    
C1    O6    A    
C71   H37   S    
C45   H16   S    
C70   H33   S    
C60   C74   S    
C56   C57   A    
C65   H26   S    
O23   C72   S    
C26   C27   A    
C52   C53   A    
C68   H28   S    
C58   H20   S    
O19   V4    S    
C17   H2    S    
C14   C15   A    
C78   H52   S    
C58   C59   A    
C16   C17   A    
C81   H56   S    
C5    C63   S    
C7    O25   S    
C55   H15   S    
O5    C3    A    
C18   C19   A    
C73   H42   S    
C14   H5    S    
C69   H31   S    
C16   H6    S    
C35   O22   S    
V2    O10   S    
C5    C8    A    
C33   H12   S    
C36   C37   A    
C22   H1    S    
C66   C67   S    
C75   H47   S    
C76   H44   S    
O8    V2    S    
C31   C64   S    
C9    H4    S    
C67   H21   S    
C82   H63   S    
H11   C38   S    
C45   C49   A    
V4    O20   S    
V3    O20   S    
C45   C46   A    
O1    V2    S    
C11   C15   A    
C53   O23   S    
O11   C62   A    
C54   H19   S    
O14   V3    S    
C37   C40   S    
C68   C69   S    
C42   C62   S    
C79   H60   S    
C74   H48   S    
C35   C36   A    
C78   H53   S    
O9    C4    A    
C48   C50   A    
C72   C73   S    
C56   C58   A    
C68   H29   S    
C65   H27   S    
C76   H43   S    
C83   H66   S    
C25   C26   A    
C34   C39   S    
C52   H18   S    
C19   C22   A    
C39   C42   T    
C44   C59   A    
C69   H30   S    
C81   H57   S    
C12   C13   A    
C77   C78   S    
C83   H65   S    
O14   C62   A    
C51   C57   A    
O4    C2    A    
C55   C56   A    
C69   H32   S    
C13   C14   A    
O15   V3    S    
C5    C9    A    
C80   H58   S    
C36   H13   S    
O2    C1    A    
C50   C51   A    
C2    C44   S    
C17   C18   A    
O13   C64   A    
C26   H10   S    
C46   H17   S    
C43   C47   A    
C27   C30   S    
C37   C38   A    
C33   C38   A    
C67   H22   S    
C43   C61   S    
C51   C52   A    
O21   C68   S    
O12   C61   A    
C6    C22   A    
O12   V3    S    
C77   H50   S    
O3    C4    A    
H8    C28   S    
C80   H59   S    
C79   H61   S    
C24   C29   S    
C72   H39   S    
C74   H49   S    
C27   C28   A    
C78   H54   S    
O9    V2    S    
C23   C24   A    
C10   C12   A    
C20   H7    S    
O22   C70   S    
O2    V1    S    
C70   C71   S    
C66   H25   S    
C76   H45   S    
C44   C60   A    
C30   C31   T    
C82   C83   S    
C80   C81   S    
O7    V1    S    
O16   V4    S    
C47   O24   S    
C75   H46   S    
O1    C2    A    
C77   H51   S    
C24   C25   A    
C12   C16   A    
C59   H14   S    
C47   C48   A    
C71   H36   S    
C70   H34   S    
O5    V1    S    
C73   H40   S    
O13   V3    S    
C23   C28   A    
O6    V2    S    
C57   C60   A    
O19   C64   A    
C75   C76   S    
C29   C32   T    
C20   C21   A    
C74   C75   S    
C34   C35   A    
O4    V1    S    
C83   H64   S    
V1    O10   S    
C65   C66   S    
O11   V4    S    
C18   C20   A    
C8    H3    S    
C73   H41   S    
C79   C80   S    
C43   C46   A    
O15   C63   A    
C61   O16   A    
C33   C34   A    
C67   H23   S    
O7    V2    S    
C6    C21   A    
C81   H55   S    
C54   C55   A    
C25   H9    S    
C21   C79   S    
C15   C65   S    
C40   C41   T    
C49   C53   A    
O18   C63   A    
O3    V1    S    
C10   C11   A    
C72   H38   S    
O18   V4    S    
O24   C77   S    
C9    C10   A    
C50   C54   A    
C66   H24   S    
C3    C32   S    
C71   H35   S    
O8    C3    A    
C23   O21   S    
