data_mof_unit_8658.cif
_audit_creation_date              2012-12-10T19:45:48-0500
_audit_creation_method            fapswitch 2.2
_symmetry_space_group_name_H-M    P1
_symmetry_Int_Tables_number       1
_space_group_crystal_system       triclinic
_cell_length_a                    10.865947
_cell_length_b                    14.787668
_cell_length_c                    14.832214
_cell_angle_alpha                 64.918027
_cell_angle_beta                  105.317388
_cell_angle_gamma                 104.000111
_cell_volume                      2058.69412134

loop_
_atom_site_label
_atom_site_type_symbol
_atom_type_description
_atom_site_fract_x
_atom_site_fract_y
_atom_site_fract_z
_atom_type_partial_charge
C1    C     C_R   0.479581 0.119776 0.312334 0.846459
C2    C     C_R   0.522741 0.880458 0.687707 0.817805
C3    C     C_R   0.871329 0.001560 0.497367 -0.058662
C4    C     C_R   0.129140 0.992070 0.509103 -0.070126
C5    C     C_R   0.903914 0.971964 0.428901 0.006476
C6    C     C_R   0.096362 0.018597 0.579572 0.013050
C7    C     C_R   0.466879 0.188059 0.204972 -0.069024
C8    C     C_R   0.542538 0.812909 0.795184 -0.058625
C9    C     C_R   0.412939 0.217630 0.026932 -0.120819
C10   C     C_R   0.622332 0.783619 0.972155 -0.190867
C11   C     C_R   0.425099 0.151220 0.127770 -0.190090
C12   C     C_R   0.600507 0.849943 0.871350 -0.181620
C13   C     C_R   0.497188 0.292368 0.180101 -0.178733
C14   C     C_R   0.506897 0.708882 0.820919 -0.178073
C15   C     C_R   0.489875 0.361300 0.078932 0.085647
C16   C     C_R   0.533842 0.639834 0.921408 0.105525
C17   C     C_R   0.445193 0.322027 0.001897 0.168355
C18   C     C_R   0.589350 0.679118 0.997735 0.156469
C19   C     C_R   0.524397 0.467657 0.052248 0.071424
C20   C     C_R   0.506072 0.533357 0.948037 0.072528
C21   C     C_R   0.463760 0.490454 0.873862 -0.170224
C22   C     C_R   0.578879 0.510467 0.125963 -0.160945
C23   C     C_R   0.263040 0.996437 0.504811 0.840458
C24   C     C_R   0.737476 0.001517 0.498018 0.813332
C25   C     C_R   0.434059 0.386952 0.900604 -0.153184
C26   C     C_R   0.611566 0.613985 0.098807 -0.183287
C27   C     C_R   0.650154 0.254929 0.703456 0.282726
C28   C     C_R   0.302362 0.718530 0.315559 0.263436
C29   C     C_R   0.660443 0.194795 0.654019 0.507390
C30   C     C_R   0.324579 0.798703 0.350981 0.436699
C31   C     C_R   0.528215 0.289580 0.505107 0.027348
C32   C     C_R   0.470155 0.709586 0.498043 0.006559
C33   C     C_R   0.532619 0.362894 0.545655 -0.050296
C34   C     C_R   0.457277 0.629254 0.464915 -0.048400
C35   C     C_R   0.600189 0.345948 0.644889 -0.114225
C36   C     C_R   0.376154 0.638089 0.370360 -0.109148
C37   C     C_R   0.475330 0.453401 0.490460 -0.039665
C38   C     C_R   0.516113 0.537700 0.523257 -0.047765
C39   C     C_R   0.609537 0.522985 0.614455 0.349982
C40   C     C_R   0.382378 0.464526 0.401417 0.280623
C41   C     C_R   0.633211 0.425325 0.678944 -0.123294
C42   C     C_R   0.358718 0.559882 0.335983 -0.140108
C43   C     C_R   0.337413 0.963619 0.825847 -0.105171
C44   C     C_R   0.668803 0.019077 0.180039 -0.123909
C45   C     C_R   0.257616 0.953778 0.738568 -0.155062
C46   C     C_R   0.747946 0.033268 0.265624 -0.124084
C47   C     C_R   0.190766 0.032827 0.666923 0.090849
C48   C     C_R   0.809829 0.954182 0.343031 0.095864
C49   C     C_R   0.205222 0.121620 0.684137 -0.043191
C50   C     C_R   0.791234 0.861085 0.333184 -0.016411
C51   C     C_R   0.288397 0.132302 0.769930 -0.119651
C52   C     C_R   0.708103 0.846147 0.249322 -0.106460
C53   C     C_R   0.354006 0.053089 0.841006 -0.053740
C54   C     C_R   0.647012 0.925208 0.172664 -0.132124
C55   C     C_R   0.967406 0.022285 0.572840 -0.142225
C56   C     C_R   0.031998 0.964592 0.438139 -0.180321
Cu1   Cu    Cu3+1 0.466270 0.918260 0.475690 1.039907
Cu2   Cu    Cu3+1 0.533730 0.081740 0.524310 1.064870
H1    H     H_    0.416224 0.060250 0.908601 0.165297
H2    H     H_    0.584618 0.914359 0.106727 0.141639
H3    H     H_    0.455489 0.534415 0.793791 0.155700
H4    H     H_    0.601198 0.466405 0.205831 0.146799
H5    H     H_    0.696499 0.416104 0.750989 0.252433
H6    H     H_    0.309545 0.565631 0.261156 0.253111
H7    H     H_    0.244819 0.883528 0.728383 0.115316
H8    H     H_    0.764254 0.106608 0.270063 0.131883
H9    H     H_    0.941922 0.036283 0.630411 0.216609
H10   H     H_    0.055481 0.940622 0.386624 0.223427
H11   H     H_    0.456237 0.683789 0.760904 0.150386
H12   H     H_    0.524873 0.317852 0.241461 0.160478
H13   H     H_    0.627154 0.930052 0.853200 0.231983
H14   H     H_    0.403897 0.071177 0.145223 0.211856
N1    N     N_R   0.584450 0.204570 0.560790 -0.267308
N2    N     N_R   0.415550 0.795430 0.439210 -0.271574
O1    O     O_R   0.455540 0.022090 0.338120 -0.529546
O2    O     O_R   0.544460 0.977910 0.661880 -0.551456
O3    O     O_R   0.512510 0.160150 0.379180 -0.596582
O4    O     O_R   0.487490 0.839850 0.620820 -0.601974
O5    O     O_R   0.291160 0.930970 0.479480 -0.535874
O6    O     O_R   0.708840 0.069030 0.520520 -0.506639
O7    O     O_R   0.348130 0.069020 0.520540 -0.542985
O8    O     O_R   0.651870 0.930980 0.479460 -0.558237
H15   H     H_    0.379274 0.187242 0.968422 0.153907
H16   H     H_    0.665813 0.813999 0.030124 0.149441
H17   H     H_    0.520255 0.703885 0.572091 0.220642
H18   H     H_    0.485770 0.301346 0.427850 0.201796
S1    S     S_3+6 0.218374 0.893395 0.279322 0.051414
O9    O     O_2   0.229264 0.928574 0.170261 -0.276797
O10   O     O_2   0.084740 0.838814 0.294166 -0.280100
O11   O     O_3   0.226943 0.000165 0.295627 -0.539807
H19   H     H_    0.166390 0.040069 0.237415 0.367228
S2    S     S_3+6 0.810555 0.150673 0.686371 0.042880
O12   O     O_2   0.868861 0.195078 0.592620 -0.311155
O13   O     O_2   0.904026 0.185676 0.763994 -0.239914
O14   O     O_3   0.790963 0.023947 0.731807 -0.557237
H20   H     H_    0.863274 0.003818 0.789562 0.366675
S3    S     S_3+6 0.694510 0.214333 0.837755 0.009775
O15   O     O_2   0.823419 0.271284 0.865627 -0.210571
O16   O     O_2   0.595252 0.235105 0.877534 -0.372721
O17   O     O_3   0.702422 0.089943 0.891161 -0.545608
H21   H     H_    0.728095 0.074279 0.964813 0.371989
S4    S     S_3+6 0.177779 0.708591 0.207212 0.066583
O18   O     O_2   0.246867 0.721610 0.125994 -0.312511
O19   O     O_2   0.102406 0.604097 0.240923 -0.263945
O20   O     O_3   0.064572 0.785319 0.151145 -0.400385
H22   H     H_    0.012850 0.766334 0.094208 0.370673
S5    S     S_3+6 0.726622 0.619261 0.642896 -0.027755
O21   O     O_2   0.742483 0.713090 0.549547 -0.326867
O22   O     O_2   0.688247 0.643303 0.719589 -0.328481
O23   O     O_3   0.869666 0.576698 0.693333 -0.496435
H23   H     H_    0.929623 0.632506 0.708954 0.383053
S6    S     S_3+6 0.264831 0.365121 0.378256 0.005063
O24   O     O_2   0.293978 0.344939 0.295457 -0.278536
O25   O     O_2   0.260384 0.269568 0.471378 -0.320933
O26   O     O_3   0.117793 0.400585 0.339211 -0.431333
H24   H     H_    0.099468 0.406428 0.398359 0.365708
H25   H     H_    0.384643 0.901234 0.882720 0.155579
H26   H     H_    0.626130 0.081315 0.118461 0.165485
H27   H     H_    0.151440 0.182182 0.631574 0.197903
H28   H     H_    0.842168 0.800502 0.389820 0.186032
H29   H     H_    0.300135 0.201280 0.782142 0.148914
H30   H     H_    0.693057 0.773912 0.242849 0.135878
H31   H     H_    0.402054 0.357531 0.841210 0.157369
H32   H     H_    0.654238 0.643282 0.157713 0.148112

loop_
_geom_bond_atom_site_label_1
_geom_bond_atom_site_label_2
_ccdc_geom_bond_type
S1    O9    D    
C27   C29   A    
C1    O3    A    
Cu1   O5    S    
C5    C56   A    
C36   C42   A    
C19   C20   A    
C18   C26   A    
C6    C55   A    
S6    O25   D    
S3    O15   D    
C53   H1    S    
Cu2   O2    S    
C39   C41   A    
C54   H2    S    
C39   S5    S    
C50   H28   S    
C46   H8    S    
C37   C40   A    
C32   N2    A    
C38   C39   A    
C30   N2    A    
C31   N1    A    
C29   N1    A    
C13   H12   S    
O26   H24   S    
S4    O20   S    
C24   O8    A    
O23   H23   S    
S2    O12   D    
Cu2   O3    S    
C24   O6    A    
C3    C55   A    
C43   C53   A    
O14   H20   S    
C52   C54   A    
C49   C51   A    
C50   C52   A    
S5    O21   D    
C31   C33   A    
C21   H3    S    
C16   C20   A    
C40   C42   A    
C31   H18   S    
C1    C7    S    
C4    C56   A    
S5    O22   D    
C3    C24   S    
C26   H32   S    
S6    O24   D    
S3    O16   D    
C44   C46   A    
C7    C11   A    
Cu1   Cu2   S    
C45   C47   A    
C5    C48   S    
C46   C48   A    
C6    C47   S    
C1    O1    A    
C19   C22   A    
C4    C6    A    
Cu2   O7    S    
C4    C23   S    
C11   H14   S    
C27   C35   A    
C56   H10   S    
S2    O14   S    
C33   C37   A    
C51   C53   A    
C32   C34   A    
Cu1   N2    S    
C15   C19   A    
C37   C38   A    
C2    O4    A    
C28   S4    S    
C22   H4    S    
C25   H31   S    
C55   H9    S    
C44   H26   S    
C8    C12   A    
S2    O13   D    
S4    O19   D    
C48   C50   A    
C43   C45   A    
C10   C12   A    
C9    H15   S    
C9    C17   A    
C12   H13   S    
C43   H25   S    
C9    C11   A    
C45   H7    S    
C51   H29   S    
C14   H11   S    
C14   C16   A    
C41   H5    S    
C42   H6    S    
S3    O17   S    
C2    O2    A    
C15   C17   A    
C21   C25   A    
C27   S3    S    
C8    C14   A    
C23   O7    A    
C34   C38   A    
Cu1   O4    S    
C2    C8    S    
C3    C5    A    
C52   H30   S    
Cu2   O6    S    
C47   C49   A    
O20   H22   S    
C17   C25   A    
Cu1   O1    S    
C13   C15   A    
C28   C30   A    
C40   S6    S    
C33   C35   A    
O11   H19   S    
C49   H27   S    
C10   C18   A    
C32   H17   S    
C10   H16   S    
O17   H21   S    
S5    O23   S    
C34   C36   A    
S6    O26   S    
S4    O18   D    
C35   C41   A    
C44   C54   A    
C7    C13   A    
C20   C21   A    
C28   C36   A    
C16   C18   A    
C22   C26   A    
S1    O11   S    
S1    O10   D    
Cu1   O8    S    
C23   O5    A    
C30   S1    S    
C29   S2    S    
Cu2   N1    S    
