data_mof_unit_64833.cif
_audit_creation_date              2012-12-10T19:32:00-0500
_audit_creation_method            fapswitch 2.2
_symmetry_space_group_name_H-M    P1
_symmetry_Int_Tables_number       1
_space_group_crystal_system       triclinic
_cell_length_a                    18.799078
_cell_length_b                    18.650328
_cell_length_c                    18.717886
_cell_angle_alpha                 109.24681
_cell_angle_beta                  109.794499
_cell_angle_gamma                 109.420234
_cell_volume                      5048.85914462

loop_
_atom_site_label
_atom_site_type_symbol
_atom_type_description
_atom_site_fract_x
_atom_site_fract_y
_atom_site_fract_z
_atom_type_partial_charge
C1    C     C_R   0.379864 0.379972 0.499606 0.946653
C2    C     C_3   0.809154 0.498334 0.806674 0.038729
C3    C     C_3   0.799482 0.577920 0.850633 -0.540813
C4    C     C_3   0.719751 0.412897 0.759048 -0.337505
C5    C     C_R   0.321288 0.246897 0.506631 -0.149008
C6    C     C_R   0.312544 0.314562 0.497650 -0.211141
C7    C     C_R   0.236513 0.318201 0.488728 0.638818
C8    C     C_R   0.171799 0.253275 0.488626 -0.244148
C9    C     C_R   0.184480 0.186585 0.499906 -0.164480
C10   C     C_R   0.260644 0.186478 0.509456 -0.066449
C11   C     C_3   0.310086 0.139443 0.521967 0.477982
C12   C     C_R   0.622080 0.501579 0.620994 0.843796
C13   C     C_3   0.380279 0.209553 0.519748 0.511361
C14   C     C_R   0.309654 0.487407 0.236098 0.023561
C15   C     C_R   0.311320 0.497995 0.313435 -0.158740
C16   C     C_R   0.245368 0.509276 0.326551 -0.248508
C17   C     C_R   0.180106 0.509168 0.261678 0.624134
C18   C     C_R   0.182589 0.500317 0.184956 -0.244603
C19   C     C_R   0.248975 0.490338 0.175379 -0.037019
C20   C     C_3   0.285820 0.478213 0.116252 0.506987
C21   C     C_3   0.356076 0.475698 0.186340 -0.489694
C22   C     C_R   0.762037 0.685162 0.511572 0.097402
C23   C     C_R   0.619592 0.620436 0.499753 0.901023
C24   C     C_R   0.686757 0.688131 0.502867 -0.180789
C25   C     C_R   0.681210 0.762508 0.507270 -0.298586
C26   C     C_R   0.745286 0.826981 0.507143 0.616415
C27   C     C_R   0.815689 0.817505 0.505092 -0.238775
C28   C     C_R   0.826424 0.749855 0.513737 0.070293
C29   C     C_3   0.844159 0.686192 0.460166 -0.461353
C30   C     C_3   0.772761 0.614666 0.457592 -0.424847
C31   C     C_R   0.997436 0.379965 0.877645 1.017185
C32   C     C_R   0.876667 0.497981 0.874461 0.891826
C33   C     C_R   0.997740 0.620424 0.117453 0.888275
C34   C     C_R   0.379026 0.499564 0.379201 0.934325
C35   C     C_R   0.117654 0.499970 0.118028 0.961197
C36   C     C_R   0.999895 0.120343 0.619438 0.989773
C37   C     C_R   0.119755 0.120137 0.499978 0.955857
C38   C     C_R   0.000231 0.879778 0.380168 0.878773
C39   C     C_R   0.880145 0.880082 0.500415 0.918620
C40   C     C_R   0.996978 0.242842 0.816038 0.063613
C41   C     C_R   0.996382 0.314796 0.810742 -0.328946
C42   C     C_R   0.997950 0.323556 0.739197 0.567504
C43   C     C_R   0.999135 0.259218 0.675208 0.530052
C44   C     C_R   0.001042 0.187666 0.684308 -0.323357
C45   C     C_3   0.765436 0.510158 0.669234 -0.447243
C46   C     C_R   0.001049 0.182869 0.756398 0.059122
C47   C     C_3   0.001001 0.129412 0.800473 -0.410819
C48   C     C_3   0.997504 0.199050 0.869722 -0.388987
C49   C     C_R   0.924728 0.693910 0.167498 0.088025
C50   C     C_R   0.999689 0.687922 0.183387 -0.082572
C51   C     C_R   0.079281 0.753753 0.259988 -0.168442
C52   C     C_R   0.080205 0.817779 0.325610 -0.143352
C53   C     C_R   0.001846 0.816760 0.312770 -0.112036
C54   C     C_R   0.926000 0.758275 0.231309 0.157439
C55   C     C_3   0.836638 0.698072 0.209688 -0.484506
C56   C     C_3   0.835349 0.506494 0.738131 0.522042
C57   C     C_3   0.835436 0.626909 0.139248 -0.472442
C58   C     C_3   0.727662 0.578936 0.781234 -0.374483
C59   C     C_3   0.650052 0.414069 0.687772 -0.406593
C60   C     C_3   0.690020 0.501650 0.688699 0.090065
H1    H     H_    0.698388 0.406952 0.806512 0.180575
H2    H     H_    0.782606 0.574458 0.901444 0.192882
H3    H     H_    0.113079 0.255788 0.481101 0.215217
H4    H     H_    0.331095 0.141216 0.585913 0.011500
H5    H     H_    0.443353 0.253985 0.582552 -0.038431
H6    H     H_    0.243964 0.517326 0.386003 0.219016
H7    H     H_    0.740482 0.456496 0.602840 0.235007
H8    H     H_    0.352602 0.410899 0.164795 0.240655
H9    H     H_    0.422400 0.533292 0.220161 0.156656
H10   H     H_    0.625457 0.768336 0.506263 0.190667
H11   H     H_    0.827539 0.681054 0.395083 0.187399
H12   H     H_    0.910243 0.696651 0.498080 0.221703
H13   H     H_    0.714586 0.568026 0.390944 0.215015
H14   H     H_    0.797613 0.583778 0.493967 0.208123
H15   H     H_    0.940582 0.064165 0.760669 0.205132
H16   H     H_    0.063270 0.128634 0.825867 0.218637
H17   H     H_    0.935363 0.173852 0.870437 0.204754
H18   H     H_    0.058032 0.238997 0.934934 0.243320
H19   H     H_    0.141001 0.866303 0.386474 0.205940
H20   H     H_    0.898822 0.567583 0.770672 0.102128
H21   H     H_    0.788788 0.717864 0.182787 0.214035
H22   H     H_    0.834875 0.572819 0.152403 0.228265
H23   H     H_    0.786921 0.605638 0.071689 0.196560
H24   H     H_    0.755127 0.642621 0.782682 0.183255
H25   H     H_    0.594286 0.405840 0.699428 0.154389
H26   H     H_    0.725618 0.354294 0.729100 0.217801
O1    O     O_R   0.408690 0.356690 0.448570 -0.577304
O2    O     O_R   0.049530 0.460080 0.906210 -0.568065
O3    O     O_R   0.853510 0.448360 0.905260 -0.642579
O4    O     O_R   0.956950 0.551730 0.905200 -0.620386
O5    O     O_R   0.945130 0.540000 0.088470 -0.611216
O6    O     O_R   0.048570 0.643360 0.088400 -0.626604
O7    O     O_R   0.037700 0.448350 0.089480 -0.579520
O8    O     O_R   0.141150 0.551720 0.089410 -0.643242
O9    O     O_R   0.051500 0.091600 0.643170 -0.637636
O10   O     O_R   0.947510 0.091650 0.539220 -0.557282
O11   O     O_R   0.143610 0.091630 0.552030 -0.628649
O12   O     O_R   0.408080 0.460090 0.551420 -0.594215
O13   O     O_R   0.039620 0.091690 0.448080 -0.610935
O14   O     O_R   0.052490 0.908450 0.460880 -0.618548
O15   O     O_R   0.948500 0.908500 0.356930 -0.625374
O16   O     O_R   0.960380 0.908410 0.552020 -0.632010
O17   O     O_R   0.856390 0.908470 0.448070 -0.580340
O18   O     O_R   0.592400 0.448300 0.540680 -0.618788
O19   O     O_R   0.591790 0.551700 0.643540 -0.638649
O20   O     O_R   0.591920 0.539910 0.448580 -0.629056
O21   O     O_R   0.591310 0.643310 0.551430 -0.623826
O22   O     O_R   0.408210 0.448300 0.356460 -0.617452
O23   O     O_R   0.407600 0.551700 0.459320 -0.615171
O24   O     O_R   0.946090 0.356720 0.906270 -0.637961
Zn1   Zn    Zn3+2 0.500410 0.430960 0.431320 1.023998
Zn2   Zn    Zn3+2 0.499590 0.569040 0.568680 1.003760
Zn3   Zn    Zn3+2 0.928260 0.431020 0.997380 1.007200
Zn4   Zn    Zn3+2 0.066400 0.569060 0.997290 1.035143
Zn5   Zn    Zn3+2 0.069430 0.000010 0.569450 0.986528
Zn6   Zn    Zn3+2 0.930570 0.000090 0.430650 1.064306
H27   H     H_    0.795066 0.573275 0.670165 0.119624
H28   H     H_    0.675032 0.573519 0.797504 0.200132
F1    F     F_    0.224419 0.382891 0.478778 -0.642085
F2    F     F_    0.267619 0.056636 0.449996 -0.602181
F3    F     F_    0.388072 0.176207 0.446631 -0.569109
F4    F     F_    0.116575 0.519690 0.274593 -0.642598
F5    F     F_    0.230171 0.398114 0.039583 -0.658716
H29   H     H_    0.310594 0.535308 0.106699 0.083291
F6    F     F_    0.737509 0.896687 0.506737 -0.645309
F7    F     F_    0.844962 0.436059 0.697772 -0.613396
F8    F     F_    0.996798 0.392734 0.730580 -0.561212
F9    F     F_    0.000051 0.267552 0.606077 -0.599882
H30   H     H_    0.139283 0.752878 0.270652 0.171607
H31   H     H_    0.836681 0.685321 0.263686 0.192081
H32   H     H_    0.862233 0.640072 0.883952 0.186046
H33   H     H_    0.624403 0.357740 0.622755 0.214767

loop_
_geom_bond_atom_site_label_1
_geom_bond_atom_site_label_2
_ccdc_geom_bond_type
C1    O1    A    
C45   C60   S    
O21   Zn2   S    
C19   C20   S    
C37   O11   A    
O8    Zn4   S    
C7    C8    A    
C13   H5    S    
C53   C54   A    
C40   C46   A    
C26   C27   A    
C3    H32   S    
C14   C21   S    
C28   C29   S    
C47   H16   S    
C12   O18   A    
C38   O15   A    
C33   O5    A    
C5    C6    A    
C30   H14   S    
C3    H2    S    
O1    Zn1   S    
C58   C60   S    
C15   C16   A    
C58   H28   S    
C49   C57   S    
C2    C32   S    
C18   C19   A    
C41   C42   A    
C48   H18   S    
C20   F5    S    
O16   Zn5   S    
C54   C55   S    
C32   O4    A    
C47   C48   S    
C45   C56   S    
O9    Zn5   S    
C8    C9    A    
C45   H7    S    
C23   C24   S    
C57   H23   S    
C56   F7    S    
C55   H21   S    
C52   H19   S    
C31   C41   S    
C9    C10   A    
C15   C34   S    
C5    C13   S    
C29   H12   S    
C59   C60   S    
C22   C28   A    
O14   Zn5   S    
C11   F2    S    
C44   C46   A    
C17   C18   A    
O20   Zn1   S    
C35   O7    A    
C51   H30   S    
O3    Zn3   S    
C59   H33   S    
O12   Zn2   S    
C51   C52   A    
C7    F1    S    
C24   C25   A    
C38   O14   A    
C11   H4    S    
O23   Zn2   S    
C27   C39   S    
O13   Zn6   S    
C30   H13   S    
C16   C17   A    
C33   C50   S    
C23   O20   A    
C4    H1    S    
O5    Zn3   S    
C21   H9    S    
C26   F6    S    
C48   H17   S    
C1    O12   A    
C2    C4    S    
C43   C44   A    
C59   H25   S    
C29   C30   S    
C58   H24   S    
C13   F3    S    
C36   O10   A    
C32   O3    A    
C55   H31   S    
C23   O21   A    
C9    C37   S    
C50   C51   A    
O7    Zn3   S    
O24   Zn3   S    
C42   F8    S    
C40   C41   A    
O19   Zn2   S    
C55   C57   S    
C21   H8    S    
C22   C24   A    
C33   O6    A    
C16   H6    S    
C42   C43   A    
C37   O13   A    
C52   C53   A    
C39   O16   A    
C18   C35   S    
C35   O8    A    
C45   H27   S    
C40   C48   S    
C46   C47   S    
O15   Zn6   S    
C31   O2    A    
C22   C30   S    
C14   C15   A    
C14   C19   A    
C43   F9    S    
O18   Zn1   S    
C39   O17   A    
C6    C7    A    
O11   Zn5   S    
C1    C6    S    
C56   H20   S    
O22   Zn1   S    
C34   O22   A    
C2    C3    S    
C25   C26   A    
C47   H15   S    
C5    C10   A    
C2    C56   S    
C11   C13   S    
C36   O9    A    
C12   O19   A    
C38   C53   S    
C4    C59   S    
C31   O24   A    
O17   Zn6   S    
O4    Zn4   S    
O2    Zn4   S    
C20   H29   S    
C36   C44   S    
C10   C11   S    
C8    H3    S    
C12   C60   S    
C3    C58   S    
C17   F4    S    
C4    H26   S    
C20   C21   S    
C49   C50   A    
C27   C28   A    
C34   O23   A    
C57   H22   S    
O10   Zn6   S    
C25   H10   S    
O6    Zn4   S    
C49   C54   A    
C29   H11   S    
