data_mof_unit_44932.cif
_audit_creation_date              2012-12-10T17:12:40-0500
_audit_creation_method            fapswitch 2.2
_symmetry_space_group_name_H-M    P1
_symmetry_Int_Tables_number       1
_space_group_crystal_system       triclinic
_cell_length_a                    23.016446
_cell_length_b                    10.678308
_cell_length_c                    10.069481
_cell_angle_alpha                 90.053363
_cell_angle_beta                  90.159039
_cell_angle_gamma                 90.589682
_cell_volume                      2474.70206115

loop_
_atom_site_label
_atom_site_type_symbol
_atom_type_description
_atom_site_fract_x
_atom_site_fract_y
_atom_site_fract_z
_atom_type_partial_charge
C1    C     C_R   0.508550 0.264240 0.500964 0.913997
C2    C     C_R   0.967678 0.406591 0.244400 0.452767
C3    C     C_R   0.028111 0.408689 0.247125 -0.138994
C4    C     C_R   0.058555 0.387662 0.365442 -0.094648
C5    C     C_R   0.028280 0.356147 0.482362 -0.060700
C6    C     C_R   0.059081 0.333635 0.601992 -0.134770
C7    C     C_R   0.027626 0.304176 0.719207 0.456313
C8    C     C_R   0.967322 0.293852 0.714324 -0.129307
C9    C     C_R   0.118800 0.402913 0.370857 0.545945
C10   C     C_R   0.120168 0.342054 0.599073 0.526401
C11   C     C_R   0.227251 0.530856 0.539009 0.059903
C12   C     C_R   0.389242 0.497394 0.499812 0.884729
C13   C     C_R   0.286862 0.560406 0.541604 0.363570
C14   C     C_R   0.327230 0.469744 0.499038 -0.380383
C15   C     C_R   0.308011 0.349785 0.455636 0.372124
C16   C     C_R   0.248917 0.321616 0.451614 0.506055
C17   C     C_R   0.208517 0.411787 0.493285 -0.013191
C18   C     C_R   0.744197 0.310214 0.446292 0.462558
C19   C     C_R   0.686615 0.349876 0.447411 -0.403766
C20   C     C_R   0.672199 0.467358 0.498832 -0.120099
C21   C     C_R   0.715567 0.549498 0.548188 -0.030832
C22   C     C_R   0.774244 0.511414 0.541285 0.384427
C23   C     C_R   0.498457 0.737477 0.499594 0.809103
C24   C     C_R   0.787512 0.391165 0.493872 0.207206
C25   C     C_2   0.534866 0.928933 0.415488 -0.336109
C26   C     C_2   0.496595 0.871133 0.495237 0.271092
C27   C     C_2   0.534090 0.064395 0.400421 0.471106
C28   C     C_2   0.531525 0.137641 0.509312 -0.023890
C29   C     C_2   0.462296 0.555115 0.925211 -0.127734
C30   C     C_2   0.471982 0.577045 0.071210 -0.079535
C31   C     C_R   0.610842 0.498239 0.499968 0.885584
C32   C     C_R   0.876114 0.324371 0.597002 0.638940
C33   C     C_R   0.875070 0.375556 0.366135 0.602759
C34   C     C_R   0.936216 0.376672 0.361453 -0.135258
C35   C     C_R   0.967062 0.349807 0.479982 -0.062071
C36   C     C_R   0.936731 0.319717 0.597251 -0.113571
H1    H     H_    0.652591 0.288202 0.409889 0.157971
H2    H     H_    0.564670 0.875976 0.353985 0.125200
H3    H     H_    0.422484 0.587954 0.879848 0.174472
H4    H     H_    0.542541 0.509437 0.887105 0.181631
H5    H     H_    0.450855 0.656807 0.116183 0.154339
H6    H     H_    0.051055 0.432725 0.156654 0.214298
H7    H     H_    0.944332 0.272095 0.805356 0.230523
N1    N     N_R   0.847135 0.356718 0.484067 -0.308540
N2    N     N_R   0.147754 0.383324 0.487221 -0.343236
N3    N     N_2   0.500610 0.501330 0.852150 -0.197164
N4    N     N_2   0.500630 0.501360 0.147810 -0.107586
O1    O     O_R   0.499990 0.319060 0.613040 -0.626393
O2    O     O_2   0.843351 0.395365 0.255469 -0.508321
O3    O     O_2   0.148386 0.438967 0.261553 -0.539594
O4    O     O_2   0.152182 0.308801 0.705462 -0.525199
O5    O     O_R   0.500010 0.319100 0.386900 -0.602450
O6    O     O_R   0.416150 0.499940 0.613100 -0.597200
O7    O     O_R   0.416160 0.499980 0.386960 -0.592668
O8    O     O_R   0.499990 0.680900 0.613100 -0.616308
O9    O     O_R   0.500010 0.680940 0.386960 -0.617485
O10   O     O_R   0.583840 0.500020 0.613040 -0.636430
O11   O     O_R   0.583850 0.500060 0.386900 -0.610107
O12   O     O_2   0.846194 0.300905 0.709544 -0.530281
Zn1   Zn    Zn3+2 0.499990 0.499970 0.650990 0.929941
Zn2   Zn    Zn3+2 0.500010 0.500030 0.349010 0.950639
O13   O     O_3   0.941156 0.438363 0.126821 -0.697799
H8    H     H_    0.916916 0.512356 0.146106 0.363885
C37   C     C_3   0.699583 0.676958 0.602747 -0.422379
C38   C     C_3   0.693315 0.771593 0.489316 -0.362376
C39   C     C_3   0.686469 0.903856 0.542966 -0.852597
H9    H     H_    0.651906 0.905025 0.619104 0.258193
H10   H     H_    0.727821 0.937360 0.588433 0.288669
H11   H     H_    0.674352 0.967851 0.460899 0.245517
H12   H     H_    0.732113 0.769496 0.423858 0.241257
H13   H     H_    0.654506 0.746722 0.428482 0.220268
H14   H     H_    0.658366 0.671260 0.659465 0.213892
H15   H     H_    0.732270 0.710231 0.676409 0.230735
O14   O     O_3   0.820211 0.588504 0.577597 -0.757564
H16   H     H_    0.809788 0.676615 0.560534 0.345549
O15   O     O_3   0.454938 0.936638 0.564938 -0.758290
H17   H     H_    0.430337 0.875652 0.614069 0.340006
O16   O     O_3   0.530598 0.114801 0.274641 -0.804246
H18   H     H_    0.532805 0.045721 0.208999 0.332224
C40   C     C_3   0.553151 0.094331 0.646400 -0.430499
C41   C     C_3   0.608184 0.166507 0.689543 -0.405775
C42   C     C_3   0.628242 0.126892 0.827708 -0.821017
H19   H     H_    0.594516 0.149145 0.902471 0.254186
H20   H     H_    0.637128 0.024913 0.830243 0.258660
H21   H     H_    0.668770 0.178523 0.854198 0.274011
H22   H     H_    0.643590 0.148651 0.617563 0.234406
H23   H     H_    0.600334 0.268647 0.691646 0.260582
H24   H     H_    0.518171 0.107674 0.720698 0.251148
H25   H     H_    0.563862 0.993801 0.649411 0.219065
C43   C     C_3   0.511297 0.372471 0.104318 -0.155266
C44   C     C_3   0.454257 0.295559 0.089716 -0.252435
C45   C     C_3   0.459470 0.193492 0.984335 -0.863665
H26   H     H_    0.466059 0.236618 0.885150 0.274284
H27   H     H_    0.496461 0.131210 0.006699 0.256174
H28   H     H_    0.418918 0.136323 0.981518 0.273860
H29   H     H_    0.442472 0.251800 0.185905 0.276357
H30   H     H_    0.417350 0.356123 0.061336 0.219740
H31   H     H_    0.539252 0.364740 0.016723 0.129039
H32   H     H_    0.540007 0.327776 0.177506 0.235746
O17   O     O_3   0.053683 0.290241 0.841385 -0.694381
H33   H     H_    0.078516 0.365439 0.855833 0.361755
C46   C     C_3   0.183768 0.628917 0.582335 -0.303026
C47   C     C_3   0.181286 0.638905 0.734210 -0.331759
C48   C     C_3   0.135811 0.733232 0.777992 -0.812261
H34   H     H_    0.146282 0.827503 0.737486 0.283184
H35   H     H_    0.091979 0.703458 0.742966 0.258591
H36   H     H_    0.135246 0.738981 0.888092 0.268885
H37   H     H_    0.170106 0.546176 0.777522 0.250353
H38   H     H_    0.224313 0.668737 0.774072 0.271218
H39   H     H_    0.195985 0.721214 0.539023 0.245293
H40   H     H_    0.139550 0.607545 0.543824 0.181419
O18   O     O_3   0.303405 0.679228 0.583617 -0.752780
H41   H     H_    0.345635 0.692639 0.572298 0.334208
O19   O     O_3   0.345424 0.256000 0.416692 -0.677892
H42   H     H_    0.385061 0.273523 0.450009 0.336348
O20   O     O_3   0.232568 0.203501 0.407731 -0.666790
H43   H     H_    0.190014 0.192030 0.414754 0.342950
O21   O     O_3   0.759582 0.194385 0.397477 -0.730056
H44   H     H_    0.724218 0.150674 0.364230 0.331421

loop_
_geom_bond_atom_site_label_1
_geom_bond_atom_site_label_2
_ccdc_geom_bond_type
C39   H10   S    
C3    H6    S    
C9    N2    A    
C19   C20   A    
C8    H7    S    
C27   O16   S    
C48   H35   S    
O19   H42   S    
C23   O9    A    
H4    N3    S    
C29   C30   S    
C18   C24   A    
C32   C36   A    
C31   O11   A    
C17   N2    S    
C18   C19   A    
C13   O18   S    
O5    Zn2   S    
C5    C6    A    
C39   H11   S    
C33   O2    S    
C38   H12   S    
O20   H43   S    
C34   C35   A    
C8    C36   A    
C23   C26   S    
C40   H25   S    
O21   H44   S    
C48   H34   S    
C21   C37   S    
C19   H1    S    
C44   H29   S    
C35   C36   A    
C16   C17   A    
C1    C28   S    
C26   O15   S    
C37   H15   S    
C30   H5    S    
C47   H37   S    
C18   O21   S    
C41   H22   S    
O8    Zn1   S    
C2    C34   A    
O11   Zn2   S    
C39   H9    S    
C13   C14   A    
C46   H40   S    
C10   O4    S    
C16   O20   S    
O18   H41   S    
O6    Zn1   S    
O1    Zn1   S    
C7    O17   S    
C30   N4    D    
C7    C8    A    
O15   H17   S    
O14   H16   S    
C44   C45   S    
O16   H18   S    
C40   C41   S    
O10   Zn1   S    
C25   C26   D    
C38   H13   S    
C45   H28   S    
C41   C42   S    
N4    Zn2   S    
O13   H8    S    
C25   H2    S    
C29   H3    S    
C10   N2    A    
C45   H27   S    
C33   C34   A    
C32   N1    A    
C15   O19   S    
C44   H30   S    
C41   H23   S    
C12   C14   S    
C38   C39   S    
C42   H20   S    
C24   N1    S    
N4    C43   S    
C22   C24   A    
C46   H39   S    
C22   O14   S    
C3    C4    A    
C43   H32   S    
C47   C48   S    
C11   C17   A    
N3    Zn1   S    
C14   C15   A    
C33   N1    A    
C9    O3    S    
C12   O6    A    
C4    C5    A    
C6    C10   A    
C1    O1    A    
C23   O8    A    
C6    C7    A    
O7    Zn2   S    
C25   C27   S    
C42   H21   S    
C29   N3    D    
C47   H38   S    
C37   C38   S    
C31   O10   A    
C2    C3    A    
C40   H24   S    
C11   C13   A    
C43   C44   S    
C5    C35   A    
C45   H26   S    
C11   C46   S    
C37   H14   S    
C46   C47   S    
C28   C40   S    
C1    O5    A    
C2    O13   S    
C20   C21   A    
C42   H19   S    
C27   C28   D    
O9    Zn2   S    
O17   H33   S    
C32   O12   S    
C4    C9    A    
C21   C22   A    
C43   H31   S    
C48   H36   S    
C12   O7    A    
C15   C16   A    
C20   C31   S    
