data_mof_unit_51447.cif
_audit_creation_date              2012-12-10T18:31:56-0500
_audit_creation_method            fapswitch 2.2
_symmetry_space_group_name_H-M    P1
_symmetry_Int_Tables_number       1
_space_group_crystal_system       triclinic
_cell_length_a                    10.674612
_cell_length_b                    14.966432
_cell_length_c                    15.438376
_cell_angle_alpha                 82.662064
_cell_angle_beta                  89.647216
_cell_angle_gamma                 103.634012
_cell_volume                      2375.63279165

loop_
_atom_site_label
_atom_site_type_symbol
_atom_type_description
_atom_site_fract_x
_atom_site_fract_y
_atom_site_fract_z
_atom_type_partial_charge
C1    C     C_R   0.477790 0.442186 0.662218 0.857835
C2    C     C_3   0.121733 0.501027 0.498564 -0.018097
C3    C     C_3   0.045448 0.415420 0.457940 -0.499866
C4    C     C_3   0.104116 0.590434 0.440362 0.406168
C5    C     C_R   0.441954 0.408641 0.754228 -0.060122
C6    C     C_R   0.503001 0.591685 0.245964 -0.038371
C7    C     C_R   0.349953 0.286951 0.871594 -0.207757
C8    C     C_R   0.392117 0.314415 0.784408 -0.194555
C9    C     C_R   0.446801 0.474606 0.811004 -0.272623
C10   C     C_R   0.399822 0.449254 0.897218 0.094080
C11   C     C_R   0.355617 0.353645 0.928606 0.179130
C12   C     C_R   0.741882 0.500239 0.498878 0.889436
C13   C     C_R   0.405783 0.516634 0.954458 0.068420
C14   C     C_R   0.392168 0.486847 0.045190 0.069900
C15   C     C_R   0.341340 0.391459 0.074890 -0.230595
C16   C     C_R   0.320935 0.326117 0.016828 -0.241574
C17   C     C_R   0.428193 0.612681 0.924308 -0.234635
C18   C     C_R   0.454636 0.677974 0.982224 -0.240593
C19   C     C_R   0.464433 0.649406 0.070845 0.180379
C20   C     C_R   0.433843 0.553410 0.102767 0.091411
C21   C     C_R   0.508235 0.715333 0.127636 -0.218999
C22   C     C_R   0.527455 0.686569 0.215008 -0.228935
C23   C     C_R   0.514865 0.557807 0.337846 0.867692
C24   C     C_R   0.456676 0.526396 0.189852 -0.245558
C25   C     C_R   0.669295 0.836360 0.650334 -0.323256
C26   C     C_R   0.650395 0.750577 0.621000 0.011166
C27   C     C_R   0.515110 0.793961 0.510034 -0.066060
C28   C     C_R   0.530466 0.882546 0.536208 -0.002743
C29   C     C_R   0.608658 0.902462 0.608597 0.181573
C30   C     C_R   0.471644 0.951242 0.493397 0.086951
C31   C     C_R   0.494524 0.039928 0.523110 0.075577
C32   C     C_R   0.567207 0.054686 0.598428 -0.263734
C33   C     C_R   0.624296 0.987476 0.639554 -0.214203
C34   C     C_R   0.258135 0.499972 0.499706 0.930243
C35   C     C_R   0.391631 0.934505 0.421642 -0.247746
C36   C     C_R   0.339422 0.003249 0.378234 -0.217926
C37   C     C_R   0.366701 0.091481 0.403441 0.190268
C38   C     C_R   0.444587 0.111115 0.476021 -0.011489
C39   C     C_R   0.318039 0.160933 0.355744 -0.325157
C40   C     C_R   0.349352 0.249739 0.378962 0.008458
C41   C     C_R   0.472328 0.202768 0.496231 -0.084498
C42   C     C_3   0.925018 0.501263 0.591205 -0.444333
C43   C     C_3   0.066393 0.493889 0.594436 -0.077210
C44   C     C_3   0.900945 0.411239 0.460731 0.419402
C45   C     C_3   0.957929 0.589697 0.438455 -0.146582
C46   C     C_3   0.878620 0.500178 0.496421 -0.020830
H1    H     H_    0.863897 0.442503 0.635719 0.200032
H2    H     H_    0.865428 0.411628 0.392815 0.080593
H3    H     H_    0.079277 0.417866 0.389112 0.188155
H4    H     H_    0.283695 0.253492 0.041730 0.141864
H5    H     H_    0.443472 0.453974 0.214343 0.153696
H6    H     H_    0.561342 0.738235 0.258059 0.156147
H7    H     H_    0.473899 0.751065 0.956961 0.145058
H8    H     H_    0.314291 0.213739 0.894658 0.134281
H9    H     H_    0.385753 0.262302 0.740925 0.157750
H10   H     H_    0.491676 0.546075 0.787630 0.161680
H11   H     H_    0.913657 0.566069 0.615394 0.184755
H12   H     H_    0.314583 0.365804 0.142662 0.141108
H13   H     H_    0.424015 0.638943 0.856173 0.151686
H14   H     H_    0.529950 0.788892 0.104086 0.136281
H15   H     H_    0.681348 0.002294 0.696147 0.146132
H16   H     H_    0.532737 0.225355 0.548558 0.152889
H17   H     H_    0.313111 0.304384 0.342438 0.128716
H18   H     H_    0.279219 0.987642 0.323202 0.138008
H19   H     H_    0.729195 0.850459 0.705756 0.143007
H20   H     H_    0.693950 0.697847 0.653901 0.131079
H21   H     H_    0.455890 0.771218 0.457496 0.113714
H22   H     H_    0.582248 0.117797 0.627596 0.149954
H23   H     H_    0.367144 0.868901 0.396763 0.125511
H24   H     H_    0.257782 0.146946 0.300464 0.138532
H25   H     H_    0.066986 0.423609 0.628363 0.195686
H26   H     H_    0.062714 0.350572 0.494602 0.209438
H27   H     H_    0.945985 0.651027 0.468822 0.156167
H28   H     H_    0.153918 0.651421 0.472361 0.065505
N1    N     N_R   0.573860 0.731700 0.552730 -0.099330
N2    N     N_R   0.426060 0.268290 0.447230 -0.100413
O1    O     O_R   0.462770 0.383110 0.605620 -0.616331
O2    O     O_R   0.510160 0.531900 0.639510 -0.629361
O3    O     O_R   0.661510 0.425600 0.483070 -0.582143
O4    O     O_R   0.708900 0.574390 0.516960 -0.632340
O5    O     O_R   0.489840 0.468100 0.360490 -0.627135
O6    O     O_R   0.537230 0.616890 0.394380 -0.626570
O7    O     O_R   0.291100 0.425610 0.483040 -0.630683
O8    O     O_R   0.338490 0.574400 0.516930 -0.628054
Zn1   Zn    Zn3+2 0.468350 0.400660 0.477370 0.946089
Zn2   Zn    Zn3+2 0.531650 0.599340 0.522630 0.923994
O9    O     O_3   0.156601 0.593097 0.354691 -0.602614
C47   C     C_3   0.232385 0.682164 0.323128 -0.338400
H29   H     H_    0.325420 0.695048 0.356332 0.174959
H30   H     H_    0.181621 0.737700 0.331239 0.144395
H31   H     H_    0.253522 0.685017 0.252281 0.210252
C48   C     C_3   0.143730 0.563155 0.651903 -0.910888
H32   H     H_    0.238691 0.547867 0.666746 0.262028
H33   H     H_    0.157940 0.635885 0.620487 0.248043
H34   H     H_    0.091299 0.556105 0.715747 0.247979
O10   O     O_3   0.835449 0.329713 0.515696 -0.590849
C49   C     C_3   0.806353 0.253403 0.467851 -0.329325
H35   H     H_    0.892981 0.244573 0.432664 0.150001
H36   H     H_    0.729894 0.260769 0.420796 0.178202
H37   H     H_    0.770010 0.189397 0.514082 0.199941
C50   C     C_3   0.908012 0.603396 0.344803 -0.823409
H38   H     H_    0.923928 0.549447 0.305842 0.258815
H39   H     H_    0.803709 0.601996 0.346145 0.216299
H40   H     H_    0.958486 0.672301 0.310400 0.249383

loop_
_geom_bond_atom_site_label_1
_geom_bond_atom_site_label_2
_ccdc_geom_bond_type
O9    C47   S    
C50   H38   S    
C23   O6    A    
C1    O1    A    
C19   C20   A    
C49   H35   S    
C3    H3    S    
C7    C8    A    
C4    O9    S    
C45   C46   S    
C7    C11   A    
C40   H17   S    
C30   C35   A    
C1    C5    S    
C36   C37   A    
C19   C21   A    
C16   H4    S    
C30   C31   A    
C15   C16   A    
C6    C22   A    
C12   O3    A    
C29   C33   A    
C8    H9    S    
C45   H27   S    
C18   C19   A    
C42   C46   S    
O4    Zn2   S    
C18   H7    S    
C20   C24   A    
C9    C10   A    
C4    H28   S    
C32   H22   S    
O2    Zn2   S    
C24   H5    S    
O1    Zn1   S    
C50   H39   S    
C21   C22   A    
C1    O2    A    
C34   O8    A    
C41   H16   S    
C27   N1    A    
C42   H11   S    
C49   H36   S    
C44   C46   S    
C26   N1    A    
C4    C45   S    
C25   C29   A    
C3    C44   S    
C26   H20   S    
C14   C20   A    
C25   H19   S    
C21   H14   S    
C12   C46   S    
C39   C40   A    
C25   C26   A    
O6    Zn2   S    
C48   H34   S    
C40   N2    A    
C35   C36   A    
C2    C4    S    
C5    C9    A    
C37   C38   A    
C44   O10   S    
C11   C16   A    
N1    Zn2   S    
C31   C32   A    
C47   H31   S    
C2    C43   S    
C6    C24   A    
O10   C49   S    
C48   H33   S    
C17   C18   A    
C9    H10   S    
C45   C50   S    
C38   C41   A    
O7    Zn1   S    
C47   H30   S    
C50   H40   S    
C15   H12   S    
C34   O7    A    
O3    Zn1   S    
C49   H37   S    
C22   H6    S    
C28   C29   A    
C43   H25   S    
C23   O5    A    
O8    Zn2   S    
C10   C13   A    
C5    C8    A    
C43   C48   S    
C31   C38   A    
C13   C17   A    
C32   C33   A    
C28   C30   A    
C2    C3    S    
C17   H13   S    
C37   C39   A    
C36   H18   S    
C41   N2    A    
C2    C34   S    
C6    C23   S    
C12   O4    A    
C48   H32   S    
C39   H24   S    
C3    H26   S    
C42   H1    S    
C27   H21   S    
C10   C11   A    
C47   H29   S    
C35   H23   S    
C33   H15   S    
C42   C43   S    
C27   C28   A    
C14   C15   A    
C7    H8    S    
C13   C14   A    
N2    Zn1   S    
O5    Zn1   S    
C44   H2    S    
