data_mof_unit_50863.cif
_audit_creation_date              2013-03-05T16:35:52-0500
_audit_creation_method            fapswitch 2.2
_symmetry_space_group_name_H-M    P1
_symmetry_Int_Tables_number       1
_space_group_crystal_system       triclinic
_cell_length_a                    23.532936
_cell_length_b                    9.086787
_cell_length_c                    7.794181
_cell_angle_alpha                 90.019634
_cell_angle_beta                  90.0
_cell_angle_gamma                 89.999976
_cell_volume                      1666.69803425

loop_
_atom_site_label
_atom_site_type_symbol
_atom_site_description
_atom_site_fract_x
_atom_site_fract_y
_atom_site_fract_z
_atom_type_partial_charge
O1    O     O_R   0.500000 0.288390 0.642760 -0.574092
O2    O     O_R   0.500000 0.711610 0.357240 -0.574092
O3    O     O_R   0.500000 0.711610 0.642760 -0.575966
O4    O     O_R   0.500000 0.288390 0.357240 -0.575966
H1    H     H_    0.948349 0.133090 0.573903 0.187654
H2    H     H_    0.051650 0.866908 0.426104 0.187655
H3    H     H_    0.948350 0.866907 0.426096 0.187654
H4    H     H_    0.051650 0.133088 0.573895 0.187655
C1    C     C_R   0.500000 0.220063 0.499982 0.850458
C2    C     C_R   0.500000 0.779936 0.500018 0.850459
O5    O     O_R   0.417880 0.500000 0.642820 -0.584148
O6    O     O_R   0.582120 0.500000 0.357180 -0.584144
O7    O     O_R   0.582120 0.500000 0.642820 -0.584144
O8    O     O_R   0.417880 0.500000 0.357180 -0.584148
C3    C     C_R   0.208766 0.499997 0.500000 0.265919
C4    C     C_R   0.791233 0.499999 0.500000 0.265922
C5    C     C_R   0.390630 0.500000 0.500000 0.818312
C6    C     C_R   0.609369 0.500000 0.500000 0.818308
Cu1   Cu    Cu3+1 0.500000 0.500000 0.669080 1.011285
Cu2   Cu    Cu3+1 0.500000 0.500000 0.330920 1.011285
C7    C     C_R   0.297995 0.475830 0.346993 -0.167558
C8    C     C_R   0.702004 0.475747 0.347013 -0.167557
C9    C     C_R   0.297995 0.524168 0.653007 -0.167559
C10   C     C_R   0.702004 0.524252 0.652986 -0.167557
H5    H     H_    0.320459 0.456459 0.227744 0.183364
H6    H     H_    0.679540 0.456308 0.227783 0.183363
H7    H     H_    0.320458 0.543538 0.772257 0.183364
H8    H     H_    0.679540 0.543691 0.772217 0.183362
C11   C     C_R   0.328070 0.499999 0.500000 -0.155241
C12   C     C_R   0.671929 0.500000 0.500000 -0.155240
C13   C     C_R   0.880530 0.629597 0.473724 0.514446
C14   C     C_R   0.119470 0.370397 0.526262 0.514442
C15   C     C_R   0.880529 0.370400 0.526276 0.514446
C16   C     C_R   0.119470 0.629598 0.473737 0.514444
N1    N     N_R   0.852186 0.499999 0.500000 -0.474074
N2    N     N_R   0.147814 0.499998 0.500000 -0.474073
C17   C     C_R   0.940114 0.367611 0.526689 -0.009716
C18   C     C_R   0.059885 0.632386 0.473317 -0.009717
C19   C     C_R   0.940114 0.632385 0.473310 -0.009716
C20   C     C_R   0.059885 0.367610 0.526683 -0.009716
C21   C     C_R   0.970021 0.499998 0.500000 -0.019261
C22   C     C_R   0.029978 0.499998 0.500000 -0.019261
C23   C     C_R   0.970357 0.236232 0.553072 -0.169552
C24   C     C_R   0.029642 0.763765 0.446932 -0.169553
C25   C     C_R   0.970357 0.763764 0.446927 -0.169552
C26   C     C_R   0.029642 0.236231 0.553068 -0.169553
C27   C     C_1   0.500000 0.065393 0.499975 -0.163544
C28   C     C_1   0.500000 0.934607 0.500025 -0.163544
C29   C     C_R   0.238695 0.474811 0.346387 0.182423
C30   C     C_R   0.761304 0.474730 0.346407 0.182427
C31   C     C_R   0.238695 0.525184 0.653613 0.182423
C32   C     C_R   0.761304 0.525269 0.653592 0.182427
N3    N     N_1   0.500000 0.500000 0.076820 -0.047860
N4    N     N_1   0.500000 0.500000 0.923180 -0.047860
O9    O     O_2   0.851055 0.755068 0.448109 -0.521737
O10   O     O_2   0.148945 0.244923 0.551856 -0.521734
O11   O     O_2   0.851055 0.244929 0.551890 -0.521737
O12   O     O_2   0.148945 0.755072 0.448143 -0.521734
N5    N     N_3   0.209400 0.447982 0.188639 -0.568528
H9    H     H_    0.184138 0.354285 0.203909 0.243003
H10   H     H_    0.182575 0.537351 0.164761 0.242383
N6    N     N_3   0.790598 0.447819 0.188679 -0.568545
H11   H     H_    0.817427 0.537170 0.164742 0.242352
H12   H     H_    0.815858 0.354127 0.204012 0.243039
N7    N     N_3   0.209400 0.552010 0.811362 -0.568528
H13   H     H_    0.184137 0.645706 0.796094 0.243002
H14   H     H_    0.182575 0.462639 0.835239 0.242383
N8    N     N_3   0.790598 0.552179 0.811321 -0.568544
H15   H     H_    0.817427 0.462828 0.835257 0.242352
H16   H     H_    0.815858 0.645871 0.795987 0.243039

loop_
_geom_bond_atom_site_label_1
_geom_bond_atom_site_label_2
_geom_bond_distance
_ccdc_geom_bond_type
C10   C32   1.395528 A    
N6    H12   1.045232 S    
C14   N2    1.368880 A    
C18   C24   1.405055 A    
N6    H11   1.045336 S    
C6    C12   1.472218 S    
C3    C31   1.407743 A    
C5    C11   1.472225 S    
C21   C22   1.410948 A    
C9    C31   1.395530 A    
C27   C28   1.188417 T    
C32   N8    1.430445 S    
C8    C30   1.395530 A    
C19   C25   1.405055 A    
C31   N7    1.430459 S    
O3    Cu1   1.933837 S    
O6    Cu2   1.943333 S    
C20   C22   1.409232 A    
H1    C23   1.083102 S    
N8    H15   1.045335 S    
N5    H9    1.045246 S    
C19   C21   1.409232 A    
O3    C2    1.274256 A    
H2    C24   1.083101 S    
N3    N4    1.197499 T    
C20   C26   1.405054 A    
O8    C5    1.284662 A    
O5    Cu1   1.943335 S    
C4    C32   1.407732 A    
C4    C30   1.407733 A    
O7    C6    1.284660 A    
C17   C21   1.409233 A    
C9    C11   1.403992 A    
Cu1   N4    1.980501 S    
C7    C29   1.395530 A    
C15   N1    1.368880 A    
C16   N2    1.368880 A    
C13   C19   1.402431 A    
C1    C27   1.405462 S    
C9    H7    1.083606 S    
C3    C29   1.407742 A    
C4    N1    1.434403 S    
C2    C28   1.405462 S    
C30   N6    1.430444 S    
C23   C26   1.395138 A    
H4    C26   1.083101 S    
C17   C23   1.405056 A    
N5    H10   1.045344 S    
C10   C12   1.403970 A    
O1    Cu1   1.933698 S    
O7    Cu1   1.943333 S    
O2    Cu2   1.933697 S    
O4    Cu2   1.933838 S    
C18   C22   1.409233 A    
H3    C25   1.083100 S    
C3    N2    1.434403 S    
C14   C20   1.402433 A    
O1    C1    1.274133 A    
C24   C25   1.395138 A    
O8    Cu2   1.943335 S    
N8    H16   1.045233 S    
N7    H13   1.045246 S    
C8    H6    1.083590 S    
O6    C6    1.284659 A    
C16   O12   1.349457 S    
C13   N1    1.368880 A    
C7    H5    1.083607 S    
O5    C5    1.284661 A    
C15   O11   1.349458 S    
C8    C12   1.403970 A    
C13   O9    1.349458 S    
O4    C1    1.274256 A    
C16   C18   1.402431 A    
C7    C11   1.403993 A    
C14   O10   1.349457 S    
O2    C2    1.274133 A    
C15   C17   1.402431 A    
Cu1   Cu2   2.635681 S    
C10   H8    1.083592 S    
Cu2   N3    1.980501 S    
N7    H14   1.045346 S    
C29   N5    1.430456 S    
