data_mof_unit_27585.cif
_audit_creation_date              2013-03-05T16:12:44-0500
_audit_creation_method            fapswitch 2.2
_symmetry_space_group_name_H-M    P1
_symmetry_Int_Tables_number       1
_space_group_crystal_system       triclinic
_cell_length_a                    10.712816
_cell_length_b                    9.813143
_cell_length_c                    27.46167
_cell_angle_alpha                 90.017701
_cell_angle_beta                  90.111286
_cell_angle_gamma                 90.039177
_cell_volume                      2886.94011772

loop_
_atom_site_label
_atom_site_type_symbol
_atom_site_description
_atom_site_fract_x
_atom_site_fract_y
_atom_site_fract_z
_atom_type_partial_charge
O1    O     O_R   0.316770 0.614620 0.500000 -0.618540
O2    O     O_R   0.683230 0.385380 0.500000 -0.636567
O3    O     O_R   0.683230 0.614620 0.500000 -0.630503
O4    O     O_R   0.316770 0.385380 0.500000 -0.628822
C1    C     C_R   0.259796 0.499984 0.499977 0.891409
C2    C     C_R   0.740210 0.500031 0.500015 0.864652
O5    O     O_R   0.500030 0.614650 0.428760 -0.588982
O6    O     O_R   0.499970 0.385350 0.571240 -0.616830
O7    O     O_R   0.499970 0.614650 0.571240 -0.590417
O8    O     O_R   0.500030 0.385350 0.428760 -0.621744
C3    C     C_R   0.500931 0.499816 0.405742 0.910767
C4    C     C_R   0.500252 0.499956 0.594299 0.909996
Zn1   Zn    Zn3+2 0.500000 0.653120 0.500000 0.986924
Zn2   Zn    Zn3+2 0.500000 0.346880 0.500000 0.959556
C5    C     C_R   0.532375 0.358201 0.179697 0.486787
C6    C     C_R   0.672622 0.537412 0.821127 0.519947
O9    O     O_2   0.454597 0.276216 0.204914 -0.583919
O10   O     O_2   0.745171 0.623512 0.795324 -0.570974
N1    N     N_R   0.597530 0.458058 0.203286 -0.344976
N2    N     N_R   0.583048 0.462214 0.798046 -0.345214
C7    C     C_R   0.678951 0.541346 0.179324 0.519996
C8    C     C_R   0.510668 0.370436 0.822469 0.481837
C9    C     C_R   0.629222 0.385187 0.286671 -0.105919
C10   C     C_R   0.610856 0.380321 0.715652 -0.109379
C11   C     C_R   0.602881 0.394795 0.335763 -0.237629
C12   C     C_R   0.588328 0.389336 0.666247 -0.236600
C13   C     C_R   0.469136 0.591682 0.320763 0.091612
C14   C     C_R   0.469234 0.598634 0.678482 0.092054
C15   C     C_R   0.497111 0.582066 0.270755 -0.010568
C16   C     C_R   0.493628 0.589546 0.728853 -0.011682
C17   C     C_R   0.576496 0.477360 0.254132 0.255081
C18   C     C_R   0.563873 0.479087 0.746968 0.257126
C19   C     C_R   0.621975 0.432196 0.103256 -0.049382
C20   C     C_R   0.612150 0.435148 0.897897 -0.049084
C21   C     C_R   0.543837 0.342910 0.129316 -0.016227
C22   C     C_R   0.688468 0.525819 0.871580 -0.021602
C23   C     C_R   0.477278 0.242158 0.104606 -0.157699
C24   C     C_R   0.777884 0.603329 0.896080 -0.145028
C25   C     C_R   0.692130 0.530594 0.128746 -0.021407
C26   C     C_R   0.524042 0.354923 0.872791 -0.016354
C27   C     C_R   0.522760 0.496625 0.353260 -0.096979
C28   C     C_R   0.517675 0.497227 0.647134 -0.102612
H1    H     H_    0.419409 0.169848 0.124025 0.172218
H2    H     H_    0.839869 0.671127 0.876482 0.185864
C29   C     C_R   0.544954 0.333872 0.975151 0.045183
C30   C     C_R   0.706444 0.516296 0.025921 0.044228
C31   C     C_R   0.707186 0.513261 0.974264 0.043948
C32   C     C_R   0.551612 0.329294 0.026655 0.044171
C33   C     C_R   0.622178 0.426619 0.949288 0.067913
C34   C     C_R   0.627563 0.425147 0.051749 0.067953
C35   C     C_R   0.459421 0.252759 0.948521 -0.215059
C36   C     C_R   0.778342 0.611283 0.052859 -0.217764
C37   C     C_R   0.449306 0.263471 0.898378 -0.160944
C38   C     C_R   0.771116 0.618026 0.103242 -0.146395
O11   O     O_2   0.424808 0.296069 0.798087 -0.579695
O12   O     O_2   0.745455 0.635015 0.204347 -0.569713
C39   C     C_R   0.481884 0.234375 0.054276 -0.214436
C40   C     C_R   0.787687 0.596897 0.946413 -0.217808
H3    H     H_    0.627287 0.311506 0.642761 0.168505
H4    H     H_    0.645911 0.322118 0.360302 0.172555
H5    H     H_    0.664482 0.295618 0.729874 0.146532
H6    H     H_    0.689756 0.304746 0.273634 0.150792
H7    H     H_    0.380635 0.201133 0.879810 0.176460
H8    H     H_    0.826146 0.694370 0.122074 0.186611
H9    H     H_    0.395093 0.182946 0.965312 0.138238
H10   H     H_    0.838450 0.685645 0.036181 0.139990
H11   H     H_    0.429108 0.152445 0.038233 0.137648
H12   H     H_    0.859833 0.659150 0.962273 0.139223
C41   C     C_R   0.063794 0.378476 0.490593 -0.178278
C42   C     C_R   0.936224 0.621601 0.509370 -0.178918
C43   C     C_R   0.935960 0.378496 0.490616 -0.189224
C44   C     C_R   0.064065 0.621580 0.509350 -0.163605
H13   H     H_    0.112404 0.284049 0.482975 0.156544
H14   H     H_    0.887611 0.716024 0.516990 0.154627
H15   H     H_    0.887142 0.284064 0.483023 0.158159
H16   H     H_    0.112895 0.716002 0.516955 0.166463
C45   C     C_R   0.872603 0.500057 0.500001 -0.014050
C46   C     C_R   0.127414 0.500006 0.499970 -0.014672
C47   C     C_R   0.586555 0.072127 0.526399 -0.066639
C48   C     C_R   0.413028 0.927906 0.473839 -0.040711
C49   C     C_R   0.413197 0.071961 0.473739 -0.058132
C50   C     C_R   0.586601 0.928034 0.526375 -0.046708
H17   H     H_    0.655590 0.126976 0.547510 0.126411
H18   H     H_    0.343305 0.873135 0.453105 0.155082
H19   H     H_    0.343915 0.126644 0.452746 0.135249
H20   H     H_    0.655674 0.873318 0.547462 0.128811
N3    N     N_R   0.500000 0.857200 0.500000 -0.081526
N4    N     N_R   0.500000 0.142800 0.500000 -0.084868
I1    I     I_    0.336174 0.739109 0.345164 -0.374763
I2    I     I_    0.348974 0.756543 0.651943 -0.344728
C51   C     C_R   0.443037 0.679018 0.235383 0.119664
C52   C     C_R   0.345989 0.637996 0.204234 -0.130559
C53   C     C_R   0.299090 0.728160 0.169294 -0.126797
C54   C     C_R   0.349007 0.859330 0.165200 -0.109204
C55   C     C_R   0.445719 0.900600 0.196122 -0.111590
C56   C     C_R   0.492593 0.810913 0.231195 -0.063261
H21   H     H_    0.307305 0.536288 0.206889 0.166609
H22   H     H_    0.224416 0.696173 0.145263 0.140156
H23   H     H_    0.312950 0.928811 0.138007 0.126672
H24   H     H_    0.484949 0.001714 0.192749 0.174603
H25   H     H_    0.568322 0.843429 0.254676 0.159691
C57   C     C_R   0.444961 0.693003 0.763036 0.122288
C58   C     C_R   0.502044 0.821549 0.766224 -0.076715
C59   C     C_R   0.458878 0.917644 0.799816 -0.103441
C60   C     C_R   0.358699 0.885898 0.830336 -0.093899
C61   C     C_R   0.301501 0.758084 0.827302 -0.135900
C62   C     C_R   0.344430 0.661722 0.793786 -0.129736
H26   H     H_    0.580353 0.846656 0.742997 0.155615
H27   H     H_    0.503401 0.016442 0.802328 0.166315
H28   H     H_    0.325456 0.960144 0.856386 0.127282
H29   H     H_    0.224067 0.733573 0.851002 0.139916
H30   H     H_    0.299716 0.562861 0.791844 0.169445

loop_
_geom_bond_atom_site_label_1
_geom_bond_atom_site_label_2
_geom_bond_distance
_ccdc_geom_bond_type
C47   H17   1.081819 S    
C60   H28   1.081888 S    
C53   C54   1.398154 A    
C13   C15   1.409328 A    
C62   H30   1.082907 S    
C55   C56   1.397741 A    
C15   C51   1.477641 S    
C44   H16   1.083786 S    
O3    C2    1.279843 A    
N1    C17   1.427378 S    
C32   C39   1.415136 A    
C31   C33   1.420848 A    
O5    C3    1.291943 A    
C10   H5    1.083269 S    
O1    C1    1.279488 A    
N1    C7    1.365075 A    
C10   C12   1.380459 A    
C48   N3    1.365367 A    
C59   H27   1.082321 S    
C25   C38   1.394395 A    
C61   C62   1.398055 A    
C29   C35   1.415633 A    
C50   N3    1.365527 A    
C30   C36   1.416226 A    
C35   H9    1.075941 S    
C41   C43   1.369464 A    
O7    Zn1   1.992572 S    
C59   C60   1.398026 A    
C44   C46   1.397076 A    
C51   C56   1.403460 A    
C24   C40   1.387462 A    
C9    H6    1.083171 S    
C42   H14   1.083759 S    
C4    C28   1.462784 S    
C41   H13   1.083763 S    
C58   H26   1.083151 S    
C11   H4    1.083866 S    
C16   C18   1.410208 A    
C12   H3    1.083821 S    
O3    Zn1   1.999191 S    
O6    C4    1.290501 A    
C32   C34   1.420577 A    
C56   H25   1.083178 S    
C42   C45   1.396908 A    
C16   C57   1.478444 S    
C41   C46   1.396819 A    
O2    C2    1.279644 A    
C39   H11   1.076263 S    
C5    C21   1.397282 A    
C47   N4    1.365619 A    
C36   C38   1.387482 A    
C52   H21   1.082962 S    
C61   H29   1.082355 S    
C48   H18   1.081022 S    
O8    Zn2   1.992578 S    
C11   C27   1.403073 A    
C51   C52   1.403729 A    
C55   H24   1.081383 S    
O4    C1    1.279939 A    
C2    C45   1.418298 S    
C19   C34   1.417523 A    
C50   H20   1.081785 S    
C35   C37   1.385086 A    
C9    C17   1.391021 A    
C23   H1    1.083111 S    
C5    N1    1.365273 A    
C10   C18   1.390721 A    
C24   H2    1.083618 S    
C47   C50   1.414010 A    
C13   C27   1.412742 A    
C7    C25   1.400351 A    
C29   C33   1.420866 A    
C6    N2    1.365088 A    
C8    C26   1.397425 A    
Zn1   N3    2.002666 S    
C57   C62   1.403712 A    
C19   C25   1.408457 A    
C40   H12   1.076166 S    
N2    C8    1.365151 A    
C54   C55   1.397968 A    
C20   C26   1.407897 A    
O1    Zn1   1.998684 S    
C22   C24   1.394629 A    
C43   C45   1.397030 A    
C36   H10   1.075919 S    
C12   C28   1.403282 A    
N2    C18   1.426974 S    
C29   C32   1.416773 A    
C5    O9    1.350088 S    
C30   C31   1.418948 A    
C20   C33   1.417644 A    
O6    Zn2   1.992343 S    
C21   C23   1.393958 A    
C48   C49   1.413642 A    
C7    O12   1.349637 S    
C14   I2    2.142879 S    
C8    O11   1.350314 S    
C60   C61   1.397940 A    
C30   C34   1.420874 A    
C14   C16   1.410083 A    
Zn2   N4    2.002666 S    
C15   C17   1.410602 A    
C6    C22   1.400222 A    
C31   C40   1.415723 A    
C43   H15   1.083746 S    
C37   H7    1.083123 S    
C38   H8    1.083626 S    
C54   H23   1.082268 S    
C14   C28   1.415133 A    
C52   C53   1.398276 A    
C19   C21   1.407931 A    
C13   I1    2.139360 S    
C20   C22   1.408600 A    
C9    C11   1.381113 A    
O4    Zn2   1.999191 S    
C57   C58   1.404102 A    
O2    Zn2   1.998684 S    
O7    C4    1.291599 A    
C49   H19   1.081777 S    
C49   N4    1.365380 A    
O8    C3    1.289128 A    
O5    Zn1   1.992349 S    
C6    O10   1.349685 S    
C26   C37   1.393463 A    
C3    C27   1.460866 S    
C58   C59   1.398496 A    
C42   C44   1.369536 A    
C1    C46   1.418183 S    
C53   H22   1.082350 S    
C23   C39   1.385221 A    
