data_mof_unit_37449.cif
_audit_creation_date              2012-12-11T14:58:30-0500
_audit_creation_method            fapswitch 2.2
_symmetry_space_group_name_H-M    P1
_symmetry_Int_Tables_number       1
_space_group_crystal_system       triclinic
_cell_length_a                    10.909036
_cell_length_b                    10.938126
_cell_length_c                    18.801566
_cell_angle_alpha                 90.502745
_cell_angle_beta                  90.384902
_cell_angle_gamma                 59.865182
_cell_volume                      1940.18918703

loop_
_atom_site_label
_atom_site_type_symbol
_atom_type_description
_atom_site_fract_x
_atom_site_fract_y
_atom_site_fract_z
_atom_type_partial_charge
C1    C     C_R   0.359228 0.772858 0.397697 0.543674
C2    C     C_R   0.613267 0.116319 0.166145 0.049143
C3    C     C_R   0.359876 0.330651 0.162626 -0.000673
C4    C     C_R   0.479724 0.238186 0.273937 -0.150454
C5    C     C_R   0.482866 0.232429 0.200425 -0.016943
C6    C     C_R   0.067908 0.709452 0.281969 -0.081777
C7    C     C_R   0.948274 0.824010 0.312316 -0.115932
C8    C     C_R   0.670666 0.975966 0.189402 -0.139464
C9    C     C_R   0.787771 0.865624 0.155131 -0.098685
C10   C     C_R   0.246611 0.441699 0.199224 -0.149922
C11   C     C_R   0.245081 0.450041 0.273282 -0.039195
C12   C     C_R   0.386093 0.354957 0.387331 0.532644
C13   C     C_R   0.877127 0.802152 0.367723 -0.118195
C14   C     C_R   0.925641 0.665653 0.392922 -0.101992
C15   C     C_R   0.044657 0.550543 0.362366 -0.047621
C16   C     C_R   0.118456 0.571313 0.307086 0.056840
C17   C     C_R   0.362861 0.343534 0.311408 -0.003657
C18   C     C_R   0.955830 0.301570 0.307747 -0.157147
C19   C     C_R   0.984713 0.293002 0.235595 -0.125452
C20   C     C_R   0.874933 0.332195 0.185878 0.038655
C21   C     C_R   0.735834 0.383113 0.207576 -0.150707
C22   C     C_R   0.706657 0.393720 0.279685 -0.117593
C23   C     C_R   0.778267 0.377916 0.403201 0.534148
C24   C     C_R   0.816677 0.353148 0.329475 0.038966
C25   C     C_R   0.471617 0.787146 0.286896 -0.142102
C26   C     C_R   0.459446 0.813789 0.214179 -0.152647
C27   C     C_R   0.324676 0.887592 0.184092 0.034259
C28   C     C_R   0.203350 0.945147 0.227580 -0.138170
C29   C     C_R   0.215399 0.920138 0.299541 -0.150803
C30   C     C_R   0.348657 0.834846 0.328755 0.029346
C31   C     C_R   0.390363 0.197057 0.693550 -0.128329
C32   C     C_R   0.381075 0.184484 0.765666 -0.110318
C33   C     C_R   0.297325 0.304688 0.807902 0.029088
C34   C     C_R   0.344954 0.768061 0.605153 0.546335
C35   C     C_R   0.212993 0.436186 0.776291 -0.136530
C36   C     C_R   0.223869 0.449314 0.703513 -0.128628
C37   C     C_R   0.318604 0.330487 0.662839 0.024845
C38   C     C_R   0.767451 0.470331 0.730564 -0.129719
C39   C     C_R   0.771376 0.461901 0.803364 -0.134307
C40   C     C_R   0.804179 0.335076 0.837118 -0.017479
C41   C     C_R   0.804166 0.224918 0.796624 0.004322
C42   C     C_R   0.796386 0.236379 0.722012 -0.098030
C43   C     C_R   0.784190 0.356569 0.688838 0.001168
C44   C     C_R   0.203215 0.827567 0.714171 -0.128881
C45   C     C_R   0.367959 0.350280 0.595095 0.546121
C46   C     C_R   0.195858 0.836868 0.787349 -0.125692
C47   C     C_R   0.305075 0.837948 0.826166 0.022926
C48   C     C_R   0.425638 0.821731 0.791196 -0.143322
C49   C     C_R   0.433529 0.811505 0.717813 -0.142637
C50   C     C_R   0.322632 0.813643 0.678876 0.028004
C51   C     C_R   0.910943 0.316128 0.111879 0.522050
C52   C     C_R   0.329760 0.295039 0.092007 0.544610
C53   C     C_R   0.301390 0.910405 0.108298 0.553938
C54   C     C_R   0.876239 0.311567 0.906336 0.519603
C55   C     C_R   0.292167 0.283878 0.883431 0.548216
C56   C     C_R   0.756279 0.380609 0.612649 0.548538
C57   C     C_R   0.276944 0.891829 0.898382 0.554402
C58   C     C_R   0.849490 0.893911 0.097444 0.230797
C59   C     C_R   0.793685 0.032806 0.073957 -0.059562
C60   C     C_R   0.677503 0.143827 0.108600 -0.102676
Cr1   Cr    Cr6+3 0.601770 0.606860 0.505860 0.998638
Cr2   Cr    Cr6+3 0.291380 0.601660 0.495070 1.023744
Cr3   Cr    Cr6+3 0.606880 0.291510 0.499120 1.013555
Cr4   Cr    Cr6+3 0.062440 0.063090 0.008210 1.036027
Cr5   Cr    Cr6+3 0.062880 0.375170 0.998920 1.087007
Cr6   Cr    Cr6+3 0.374700 0.061720 0.992470 1.036603
H1    H     H_    0.574099 0.161384 0.301948 0.142384
H2    H     H_    0.784643 0.891013 0.391230 0.112317
H3    H     H_    0.871503 0.649315 0.436554 0.133311
H4    H     H_    0.081335 0.445903 0.383032 0.097178
H5    H     H_    0.040802 0.268294 0.346169 0.096862
H6    H     H_    0.092774 0.254117 0.218292 0.120984
H7    H     H_    0.650732 0.415904 0.169218 0.103975
H8    H     H_    0.597975 0.436277 0.296900 0.125888
H9    H     H_    0.576323 0.720651 0.309171 0.144746
H10   H     H_    0.553461 0.770894 0.181355 0.124950
H11   H     H_    0.097619 0.005857 0.205493 0.150282
H12   H     H_    0.829982 0.758125 0.173313 0.143310
H13   H     H_    0.120492 0.959612 0.331466 0.128747
H14   H     H_    0.461754 0.104051 0.662840 0.133852
H15   H     H_    0.442257 0.080125 0.788454 0.151649
H16   H     H_    0.144118 0.528626 0.807943 0.141520
H17   H     H_    0.166597 0.553720 0.680332 0.138825
H18   H     H_    0.749649 0.568080 0.707214 0.141172
H19   H     H_    0.761712 0.551911 0.832861 0.147937
H20   H     H_    0.796851 0.153447 0.689859 0.170419
H21   H     H_    0.117010 0.826902 0.685565 0.147943
H22   H     H_    0.910504 0.929828 0.292693 0.114426
H23   H     H_    0.101726 0.849649 0.813149 0.184696
H24   H     H_    0.511118 0.822931 0.820269 0.130730
H25   H     H_    0.527593 0.798687 0.691820 0.126334
H26   H     H_    0.839391 0.054597 0.028369 0.153335
H27   H     H_    0.634717 0.250459 0.089083 0.098738
H28   H     H_    0.121543 0.728563 0.238965 0.137701
H29   H     H_    0.623480 0.951494 0.233472 0.114866
H30   H     H_    0.153092 0.517359 0.170219 0.176931
O1    O     O_R   0.748800 0.497470 0.428000 -0.531618
O2    O     O_R   0.300070 0.471040 0.567100 -0.508809
O3    O     O_R   0.491670 0.258900 0.574910 -0.517789
O4    O     O_R   0.718780 0.304180 0.577850 -0.503213
O5    O     O_3   0.500010 0.500010 0.500020 -0.246568
O6    O     O_R   0.186690 0.923650 0.086970 -0.486039
O7    O     O_R   0.957250 0.194250 0.084630 -0.528278
O8    O     O_R   0.934970 0.407490 0.085330 -0.495741
O9    O     O_R   0.203780 0.365190 0.067090 -0.474882
O10   O     O_R   0.417600 0.174890 0.067840 -0.511180
O11   O     O_R   0.375320 0.946260 0.070860 -0.500416
O12   O     O_R   0.476420 0.724060 0.429470 -0.512179
O13   O     O_R   0.160600 0.919630 0.926660 -0.490069
O14   O     O_R   0.933060 0.190520 0.936020 -0.532611
O15   O     O_R   0.908880 0.403460 0.925020 -0.504458
O16   O     O_R   0.179600 0.361450 0.918490 -0.481352
O17   O     O_R   0.391510 0.170860 0.907530 -0.528088
O18   O     O_R   0.351130 0.942530 0.922260 -0.510985
O19   O     O_3   0.166667 0.166667 0.999870 -0.263990
O20   O     O_R   0.264580 0.744340 0.416750 -0.505391
O21   O     O_R   0.309380 0.472470 0.418200 -0.494130
O22   O     O_R   0.501710 0.260430 0.414300 -0.532714
O23   O     O_R   0.728090 0.305600 0.428960 -0.502246
O24   O     O_R   0.738760 0.495930 0.588610 -0.527062
O25   O     O_R   0.467110 0.722640 0.578360 -0.508150
O26   O     O_R   0.254530 0.742800 0.577360 -0.527099
C61   C     C_2   0.804747 0.102618 0.830656 0.234701
H31   H     H_    0.786800 0.102823 0.887276 0.131237
O27   O     O_2   0.820227 0.001637 0.795306 -0.548004
Cl1   Cl    Cl    0.995812 0.755131 0.054143 -0.621856

loop_
_geom_bond_atom_site_label_1
_geom_bond_atom_site_label_2
_ccdc_geom_bond_type
C33   C55   S    
Cr4   O7    S    
Cr6   O17   S    
C55   O16   A    
C56   O24   A    
C41   C42   A    
C35   C36   A    
Cr6   O11   S    
Cr3   O5    S    
C31   H14   S    
C46   H23   S    
Cr4   O6    S    
C32   H15   S    
C28   C29   A    
C26   C27   A    
Cr3   O4    S    
C18   C24   A    
C36   C37   A    
Cr6   O10   S    
C18   C19   A    
C20   C51   S    
C45   O2    A    
C23   O23   A    
C38   C39   A    
C2    C60   A    
C61   O27   D    
C36   H17   S    
C51   O7    A    
C15   C16   A    
C21   H7    S    
C18   H5    S    
C54   O14   A    
Cr1   O25   S    
C9    C58   A    
Cr1   O12   S    
Cr5   O15   S    
Cr2   O21   S    
Cr3   O3    S    
Cr2   O2    S    
C57   O13   A    
C19   C20   A    
C8    C9    A    
C6    H28   S    
C12   C17   S    
C26   H10   S    
C23   C24   S    
C42   H20   S    
C1    O20   A    
C44   H21   S    
C9    H12   S    
Cr2   O5    S    
C60   H27   S    
C52   O10   A    
C59   C60   A    
C34   O26   A    
Cr4   O19   S    
C48   H24   S    
C21   C22   A    
Cr1   O24   S    
Cr5   O19   S    
C19   H6    S    
C8    H29   S    
C49   H25   S    
Cr5   O9    S    
C35   H16   S    
C44   C46   A    
Cr1   O1    S    
C34   C50   S    
Cr6   O19   S    
C47   C48   A    
C61   H31   S    
C45   O3    A    
C39   C40   A    
Cr3   O22   S    
C55   O17   A    
C51   O8    A    
C31   C37   A    
C25   H9    S    
Cr1   O5    S    
Cr5   O16   S    
Cr2   O20   S    
C29   C30   A    
C47   C57   S    
Cr3   O23   S    
C11   C16   S    
C53   O11   A    
Cr4   O14   S    
C7    H22   S    
C29   H13   S    
C10   H30   S    
C53   O6    A    
C28   H11   S    
C57   O18   A    
C12   O22   A    
C4    C17   A    
C40   C41   A    
C23   O1    A    
C52   O9    A    
C58   Cl1   S    
C34   O25   A    
C40   C54   S    
C14   H3    S    
C22   C24   A    
C58   C59   A    
C2    C5    S    
C42   C43   A    
C56   O4    A    
C37   C45   S    
Cr2   O26   S    
C44   C50   A    
C25   C30   A    
C15   H4    S    
C46   C47   A    
C11   C17   A    
Cr6   O18   S    
C38   H18   S    
C31   C32   A    
C2    C8    A    
C4    C5    A    
C3    C5    A    
C4    H1    S    
C3    C52   S    
C27   C53   S    
C6    C7    A    
C32   C33   A    
C41   C61   S    
C25   C26   A    
C38   C43   A    
C3    C10   A    
Cr4   O13   S    
C48   C49   A    
C1    C30   S    
C33   C35   A    
C54   O15   A    
C59   H26   S    
C10   C11   A    
C1    O12   A    
C6    C16   A    
C12   O21   A    
C43   C56   S    
C7    C13   A    
C20   C21   A    
C22   H8    S    
C49   C50   A    
C27   C28   A    
C39   H19   S    
C14   C15   A    
Cr5   O8    S    
C13   C14   A    
C13   H2    S    
