data_mof_unit_24419.cif
_audit_creation_date              2012-12-11T17:04:54-0500
_audit_creation_method            fapswitch 2.2
_symmetry_space_group_name_H-M    P1
_symmetry_Int_Tables_number       1
_space_group_crystal_system       triclinic
_cell_length_a                    17.454806
_cell_length_b                    24.260391
_cell_length_c                    15.004713
_cell_angle_alpha                 90.363201
_cell_angle_beta                  125.759914
_cell_angle_gamma                 90.043256
_cell_volume                      5155.83771434

loop_
_atom_site_label
_atom_site_type_symbol
_atom_type_description
_atom_site_fract_x
_atom_site_fract_y
_atom_site_fract_z
_atom_type_partial_charge
C1    C     C_R   0.857912 0.654381 0.908387 0.343932
C2    C     C_R   0.004462 0.500269 0.678584 0.108299
C3    C     C_R   0.769844 0.046716 0.253099 -0.150184
C4    C     C_R   0.814257 0.371825 0.908809 -0.125409
C5    C     C_R   0.175757 0.362753 0.091247 -0.130801
C6    C     C_R   0.314256 0.871826 0.908809 -0.125409
C7    C     C_R   0.675757 0.862753 0.091247 -0.130800
C8    C     C_R   0.944194 0.653052 0.091166 -0.186985
C9    C     C_R   0.057439 0.653570 0.911772 -0.199931
C10   C     C_R   0.444194 0.153052 0.091165 -0.186985
C11   C     C_R   0.557439 0.153569 0.911772 -0.199930
C12   C     C_R   0.889310 0.686588 0.000686 0.004784
C13   C     C_R   0.575414 0.003817 0.371263 0.091457
C14   C     C_R   0.114195 0.686921 0.004064 0.012369
C15   C     C_R   0.389310 0.186588 0.000685 0.004784
C16   C     C_R   0.614195 0.186921 0.004064 0.012370
C17   C     C_3   0.828410 0.675497 0.798936 -1.110984
C18   C     C_3   0.178170 0.673999 0.206587 -1.119342
C19   C     C_3   0.328411 0.175497 0.798935 -1.110985
C20   C     C_3   0.678169 0.173999 0.206587 -1.119342
C21   C     C_3   0.113626 0.829486 0.142312 -0.952188
C22   C     C_3   0.892358 0.836501 0.882746 -0.945309
C23   C     C_3   0.613622 0.329489 0.142304 -0.952169
C24   C     C_R   0.504461 0.000269 0.678583 0.108298
C25   C     C_3   0.392352 0.336501 0.882739 -0.945310
C26   C     C_1   0.030986 0.398656 0.576259 0.008357
C27   C     C_1   0.174207 0.411725 0.540009 0.044065
C28   C     C_1   0.530987 0.898656 0.576261 0.008355
C29   C     C_1   0.674207 0.911726 0.540009 0.044065
C30   C     C_3   0.113026 0.658126 0.511214 -1.040667
C31   C     C_3   0.899848 0.594262 0.472046 -1.010336
C32   C     C_3   0.613024 0.158126 0.511213 -1.040669
C33   C     C_3   0.399847 0.094262 0.472045 -1.010336
C34   C     C_R   0.680474 0.500198 0.659605 0.037218
C35   C     C_R   0.325234 0.500597 0.284355 0.028298
C36   C     C_R   0.180474 0.000198 0.659605 0.037219
C37   C     C_R   0.825234 0.000597 0.284355 0.028298
C38   C     C_3   0.515247 0.455976 0.523811 -0.164251
C39   C     C_3   0.493600 0.454558 0.408255 -0.165735
C40   C     C_3   0.015246 0.955977 0.523812 -0.164251
C41   C     C_R   0.144188 0.654139 0.094233 0.336627
C42   C     C_3   0.993600 0.954558 0.408257 -0.165735
C43   C     C_3   0.443247 0.502327 0.489307 -0.128248
C44   C     C_3   0.570164 0.499057 0.443198 -0.136190
C45   C     C_3   0.943247 0.002328 0.489308 -0.128248
C46   C     C_3   0.070164 0.999056 0.443198 -0.136190
C47   C     C_3   0.422723 0.501015 0.375026 0.182883
C48   C     C_3   0.589567 0.500351 0.556708 0.183564
C49   C     C_3   0.922723 0.001014 0.375026 0.182883
C50   C     C_3   0.089567 0.000351 0.556708 0.183564
C51   C     C_3   0.496897 0.545511 0.407657 -0.163047
C52   C     C_R   0.357912 0.154381 0.908386 0.343931
C53   C     C_3   0.518597 0.546742 0.523256 -0.164393
C54   C     C_3   0.996898 0.045511 0.407657 -0.163046
C55   C     C_3   0.018597 0.046743 0.523255 -0.164392
C56   C     C_R   0.768907 0.308226 0.101240 0.063058
C57   C     C_R   0.229326 0.300953 0.904879 0.055819
C58   C     C_R   0.268907 0.808226 0.101241 0.063055
C59   C     C_R   0.729328 0.800955 0.904880 0.055819
C60   C     C_R   0.747390 0.326610 0.001327 0.075209
C61   C     C_R   0.242412 0.314053 0.003212 0.076239
C62   C     C_R   0.247389 0.826611 0.001328 0.075210
C63   C     C_R   0.644188 0.154139 0.094233 0.336626
C64   C     C_R   0.742413 0.814054 0.003213 0.076239
C65   C     C_R   0.662150 0.310194 0.903297 -0.185768
C66   C     C_R   0.327693 0.300086 0.102907 -0.187501
C67   C     C_R   0.162149 0.810195 0.903298 -0.185766
C68   C     C_R   0.827694 0.800087 0.102907 -0.187501
C69   C     C_R   0.906595 0.372763 0.093159 -0.130365
C70   C     C_R   0.086890 0.364465 0.907819 -0.131279
C71   C     C_R   0.406594 0.872764 0.093159 -0.130364
C72   C     C_R   0.586890 0.864465 0.907820 -0.131278
C73   C     C_R   0.105896 0.770359 0.905290 -0.212439
C74   C     C_R   0.818622 0.357133 0.000770 0.056418
C75   C     C_R   0.891916 0.766635 0.102584 -0.205535
C76   C     C_R   0.605896 0.270359 0.905289 -0.212442
C77   C     C_R   0.391915 0.266635 0.102583 -0.205539
C78   C     C_R   0.135173 0.745723 0.005019 0.076840
C79   C     C_R   0.869182 0.744812 0.002909 0.074281
C80   C     C_R   0.635172 0.245723 0.005019 0.076841
C81   C     C_R   0.369182 0.244812 0.002908 0.074281
C82   C     C_R   0.211673 0.769192 0.103570 0.104430
C83   C     C_R   0.793441 0.767395 0.904335 0.109941
C84   C     C_R   0.711672 0.269192 0.103569 0.104431
C85   C     C_R   0.170407 0.344965 0.000657 0.060215
C86   C     C_R   0.293439 0.267394 0.904334 0.109941
C87   C     C_3   0.210031 0.804492 0.186136 0.094790
C88   C     C_3   0.797178 0.807422 0.830150 0.087202
C89   C     C_3   0.710027 0.304494 0.186132 0.094780
C90   C     C_3   0.297173 0.307420 0.830147 0.087204
C91   C     C_3   0.776328 0.344422 0.186401 -0.528193
C92   C     C_3   0.225151 0.341982 0.829028 -0.518714
C93   C     C_3   0.276330 0.844422 0.186404 -0.528191
C94   C     C_3   0.725156 0.841984 0.829031 -0.518712
C95   C     C_R   0.064841 0.551806 0.591267 0.021103
C96   C     C_R   0.318621 0.857133 0.000770 0.056417
C97   C     C_R   0.099343 0.555612 0.528918 0.076330
C98   C     C_R   0.564840 0.051806 0.591267 0.021103
C99   C     C_R   0.599342 0.055612 0.528918 0.076330
C100  C     C_R   0.042776 0.500658 0.613999 -0.012723
C101  C     C_R   0.112242 0.507205 0.487280 -0.057722
C102  C     C_R   0.542775 0.000658 0.613999 -0.012723
C103  C     C_R   0.612242 0.007205 0.487280 -0.057722
C104  C     C_R   0.071911 0.452317 0.587244 -0.005097
C105  C     C_R   0.122359 0.457897 0.541643 -0.010465
C106  C     C_R   0.571911 0.952317 0.587243 -0.005097
C107  C     C_R   0.670408 0.844965 0.000658 0.060214
C108  C     C_R   0.622359 0.957897 0.541643 -0.010465
C109  C     C_3   0.046541 0.608590 0.477383 0.048311
C110  C     C_3   0.007347 0.603546 0.544501 0.047363
C111  C     C_3   0.546540 0.108590 0.477382 0.048312
C112  C     C_3   0.507346 0.103546 0.544500 0.047362
C113  C     C_R   0.057069 0.547930 0.305275 -0.158661
C114  C     C_R   0.995174 0.546661 0.726906 -0.140535
C115  C     C_R   0.557068 0.047930 0.305275 -0.158661
C116  C     C_R   0.495174 0.046661 0.726906 -0.140535
C117  C     C_R   0.734921 0.454313 0.708265 -0.146203
C118  C     C_R   0.075414 0.503817 0.371263 0.091457
C119  C     C_R   0.269712 0.454864 0.259608 -0.123277
C120  C     C_R   0.234921 0.954314 0.708265 -0.146204
C121  C     C_R   0.769712 0.954864 0.259609 -0.123276
C122  C     C_R   0.053742 0.456732 0.306860 -0.132578
C123  C     C_R   0.985921 0.454559 0.718536 -0.146307
C124  C     C_R   0.553742 0.956732 0.306860 -0.132578
C125  C     C_R   0.485921 0.954559 0.718535 -0.146307
C126  C     C_R   0.733163 0.546584 0.711277 -0.143088
C127  C     C_R   0.269844 0.546716 0.253099 -0.150184
C128  C     C_R   0.233162 0.046584 0.711278 -0.143088
H1    H     H_    0.525076 0.419688 0.574185 0.111313
H2    H     H_    0.343962 0.312926 0.181344 0.117110
H3    H     H_    0.364333 0.131248 0.420829 0.255183
H4    H     H_    0.141268 0.825280 0.824450 0.119674
H5    H     H_    0.843962 0.812925 0.181344 0.117110
H6    H     H_    0.045113 0.755258 0.827561 0.125860
H7    H     H_    0.952957 0.752806 0.180766 0.125070
H8    H     H_    0.545113 0.255258 0.827560 0.125860
H9    H     H_    0.452957 0.252806 0.180765 0.125070
H10   H     H_    0.243469 0.784369 0.267112 0.141708
H11   H     H_    0.769019 0.789572 0.747903 0.145771
H12   H     H_    0.743463 0.284371 0.267109 0.141709
H13   H     H_    0.480506 0.417253 0.357828 0.112107
H14   H     H_    0.269014 0.289570 0.747900 0.145771
H15   H     H_    0.848639 0.344055 0.264371 0.170412
H16   H     H_    0.155584 0.340736 0.748951 0.180468
H17   H     H_    0.348642 0.844054 0.264373 0.170411
H18   H     H_    0.655590 0.840740 0.748954 0.180469
H19   H     H_    0.747468 0.386420 0.155741 0.212163
H20   H     H_    0.249513 0.383866 0.866222 0.213317
H21   H     H_    0.247469 0.886420 0.155746 0.212162
H22   H     H_    0.749520 0.883868 0.866227 0.213317
H23   H     H_    0.990351 0.606452 0.387642 0.156044
H24   H     H_    0.025075 0.919689 0.574187 0.111314
H25   H     H_    0.031184 0.636969 0.606707 0.142292
H26   H     H_    0.490350 0.106451 0.387641 0.156044
H27   H     H_    0.531182 0.136969 0.606705 0.142292
H28   H     H_    0.934356 0.366832 0.178281 0.106188
H29   H     H_    0.057468 0.353806 0.823838 0.103617
H30   H     H_    0.434355 0.866833 0.178281 0.106188
H31   H     H_    0.557469 0.853807 0.823839 0.103618
H32   H     H_    0.081953 0.589625 0.331285 0.108021
H33   H     H_    0.004799 0.589448 0.717137 0.104257
H34   H     H_    0.581953 0.089625 0.331285 0.108021
H35   H     H_    0.980505 0.917252 0.357830 0.112107
H36   H     H_    0.504798 0.089448 0.717137 0.104257
H37   H     H_    0.718377 0.412580 0.676459 0.093400
H38   H     H_    0.294238 0.413930 0.290603 0.091286
H39   H     H_    0.218377 0.912580 0.676459 0.093401
H40   H     H_    0.794238 0.913930 0.290603 0.091286
H41   H     H_    0.067985 0.414457 0.333201 0.105410
H42   H     H_    0.978033 0.412323 0.693953 0.112208
H43   H     H_    0.567985 0.914457 0.333201 0.105409
H44   H     H_    0.478031 0.912323 0.693952 0.112209
H45   H     H_    0.713599 0.588496 0.683832 0.118517
H46   H     H_    0.486492 0.581750 0.356944 0.113686
H47   H     H_    0.293779 0.588946 0.269773 0.127509
H48   H     H_    0.213599 0.088496 0.683832 0.118517
H49   H     H_    0.793779 0.088946 0.269773 0.127509
H50   H     H_    0.757586 0.363907 0.824101 0.089906
H51   H     H_    0.224350 0.349333 0.174619 0.085266
H52   H     H_    0.257585 0.863908 0.824102 0.089906
H53   H     H_    0.724350 0.849334 0.174619 0.085266
H54   H     H_    0.988941 0.665706 0.176372 0.119890
H55   H     H_    0.013002 0.666874 0.827457 0.116154
H56   H     H_    0.488941 0.165706 0.176371 0.119890
H57   H     H_    0.530690 0.584154 0.573013 0.113982
H58   H     H_    0.513002 0.166874 0.827457 0.116154
H59   H     H_    0.388821 0.503734 0.505584 0.120901
H60   H     H_    0.625586 0.497658 0.428606 0.116746
H61   H     H_    0.888821 0.003736 0.505584 0.120901
H62   H     H_    0.125586 0.997656 0.428606 0.116747
H63   H     H_    0.841409 0.644181 0.755144 0.256504
H64   H     H_    0.752342 0.686141 0.748039 0.245947
H65   H     H_    0.871776 0.711900 0.810343 0.256142
H66   H     H_    0.171682 0.640942 0.252570 0.257575
H67   H     H_    0.253286 0.686832 0.253359 0.244666
H68   H     H_    0.986493 0.081749 0.356942 0.113686
H69   H     H_    0.133627 0.708439 0.200048 0.259746
H70   H     H_    0.341409 0.144181 0.755144 0.256504
H71   H     H_    0.252342 0.186140 0.748038 0.245946
H72   H     H_    0.371776 0.211900 0.810342 0.256143
H73   H     H_    0.671682 0.140942 0.252570 0.257576
H74   H     H_    0.753286 0.186833 0.253359 0.244667
H75   H     H_    0.633627 0.208440 0.200047 0.259744
H76   H     H_    0.120328 0.857786 0.204969 0.250218
H77   H     H_    0.086278 0.853043 0.066101 0.268843
H78   H     H_    0.062599 0.796355 0.124381 0.249283
H79   H     H_    0.030691 0.084155 0.573012 0.113982
H80   H     H_    0.885850 0.868893 0.826792 0.255742
H81   H     H_    0.916122 0.855978 0.962310 0.267023
H82   H     H_    0.945761 0.806168 0.896755 0.250543
H83   H     H_    0.620325 0.357794 0.204955 0.250216
H84   H     H_    0.586274 0.353041 0.066086 0.268842
H85   H     H_    0.562596 0.296358 0.124381 0.249280
H86   H     H_    0.385841 0.368893 0.826784 0.255742
H87   H     H_    0.416117 0.355978 0.962303 0.267024
H88   H     H_    0.445756 0.306168 0.896747 0.250541
H89   H     H_    0.167059 0.659735 0.601668 0.261327
H90   H     H_    0.641269 0.325278 0.824450 0.119674
H91   H     H_    0.149910 0.655590 0.471195 0.255414
H92   H     H_    0.071445 0.696777 0.484916 0.257940
H93   H     H_    0.879707 0.557867 0.416996 0.260987
H94   H     H_    0.873757 0.587938 0.523098 0.256100
H95   H     H_    0.864334 0.631249 0.420830 0.255183
H96   H     H_    0.667057 0.159735 0.601667 0.261327
H97   H     H_    0.649909 0.155591 0.471194 0.255415
H98   H     H_    0.571443 0.196777 0.484915 0.257940
H99   H     H_    0.379707 0.057867 0.416995 0.260986
H100  H     H_    0.373756 0.087937 0.523097 0.256101
N1    N     N_R   0.892620 0.603790 0.941770 -0.054402
N2    N     N_R   0.973690 0.529110 0.793240 -0.041100
N3    N     N_R   0.526310 0.029110 0.206760 -0.037782
N4    N     N_R   0.473690 0.029110 0.793240 -0.041100
N5    N     N_R   0.818570 0.472310 0.793020 -0.036232
N6    N     N_R   0.181430 0.472310 0.206980 -0.037395
N7    N     N_R   0.318570 0.972310 0.793020 -0.036232
N8    N     N_R   0.681430 0.972310 0.206980 -0.037395
N9    N     N_R   0.026930 0.472300 0.207330 -0.043123
N10   N     N_R   0.973070 0.472300 0.792670 -0.042105
N11   N     N_R   0.526930 0.972300 0.207330 -0.043122
N12   N     N_R   0.107380 0.603790 0.058230 -0.053033
N13   N     N_R   0.473070 0.972300 0.792670 -0.042105
N14   N     N_R   0.817960 0.529130 0.792460 -0.036631
N15   N     N_R   0.182040 0.529130 0.207540 -0.038491
N16   N     N_R   0.317960 0.029130 0.792460 -0.036631
N17   N     N_R   0.682040 0.029130 0.207540 -0.038491
N18   N     N_R   0.894850 0.397640 0.943830 -0.040951
N19   N     N_R   0.105150 0.397640 0.056170 -0.038416
N20   N     N_R   0.394850 0.897640 0.943830 -0.040951
N21   N     N_R   0.605150 0.897640 0.056170 -0.038416
N22   N     N_R   0.950040 0.603780 0.055950 -0.051539
N23   N     N_R   0.392620 0.103790 0.941770 -0.054402
N24   N     N_R   0.049960 0.603780 0.944050 -0.050381
N25   N     N_R   0.450040 0.103780 0.055950 -0.051539
N26   N     N_R   0.549960 0.103780 0.944050 -0.050381
N27   N     N_1   0.997158 0.355665 0.564303 -0.114763
N28   N     N_1   0.215904 0.374855 0.539308 -0.103815
N29   N     N_1   0.497160 0.855665 0.564306 -0.114762
N30   N     N_1   0.715905 0.874856 0.539308 -0.103815
N31   N     N_R   0.607380 0.103790 0.058230 -0.053033
N32   N     N_R   0.952270 0.397640 0.058010 -0.043055
N33   N     N_R   0.047730 0.397640 0.941990 -0.041162
N34   N     N_R   0.452270 0.897640 0.058010 -0.043056
N35   N     N_R   0.547730 0.897640 0.941990 -0.041162
N36   N     N_R   0.026310 0.529110 0.206760 -0.037782
Ni1   Ni    Ni4+2 0.934160 0.565860 0.869070 0.205770
Ni2   Ni    Ni4+2 0.065840 0.565860 0.130930 0.204470
Ni3   Ni    Ni4+2 0.434160 0.065860 0.869070 0.205770
Ni4   Ni    Ni4+2 0.565840 0.065860 0.130930 0.204470
Ni5   Ni    Ni4+2 0.067260 0.435560 0.132230 0.212711
Ni6   Ni    Ni4+2 0.932740 0.435560 0.867770 0.213035
Ni7   Ni    Ni4+2 0.567260 0.935560 0.132230 0.212711
Ni8   Ni    Ni4+2 0.432740 0.935560 0.867770 0.213035

loop_
_geom_bond_atom_site_label_1
_geom_bond_atom_site_label_2
_ccdc_geom_bond_type
C58   C62   A    
C70   N33   A    
C99   C103  A    
C21   C87   S    
C94   H18   S    
C32   C111  S    
C62   C96   S    
C18   H66   S    
C11   H58   S    
C10   H56   S    
N21   Ni7   S    
C93   H21   S    
C111  C112  S    
N15   Ni2   S    
C80   C84   A    
C33   H100  S    
C35   C47   S    
C91   H19   S    
C76   H8    S    
C15   C81   S    
C2    C123  A    
C17   H63   S    
C68   C75   A    
C124  H43   S    
C8    N22   A    
C25   C90   S    
C73   H6    S    
C72   H31   S    
C23   H83   S    
C62   C67   A    
N6    Ni5   S    
C101  C118  S    
C64   C68   A    
C6    N20   A    
C68   H5    S    
C109  H23   S    
C58   C93   S    
C77   H9    S    
C20   H73   S    
C26   N27   T    
C58   C82   A    
C120  N7    A    
C42   C46   S    
C65   H90   S    
N19   Ni5   S    
C75   H7    S    
N23   N25   A    
C122  N9    A    
C92   H20   S    
C23   H84   S    
C27   C105  S    
C82   C87   S    
C10   N25   A    
C22   H81   S    
C22   H82   S    
C100  C104  A    
C11   N26   A    
C37   C49   S    
C57   C86   A    
C40   H24   S    
N3    N11   A    
C118  C122  A    
N14   Ni1   S    
C21   H77   S    
N32   Ni5   S    
N10   Ni6   S    
C125  H44   S    
C53   H57   S    
C6    C96   A    
C5    H51   S    
N31   Ni4   S    
C26   C104  S    
N34   Ni7   S    
C31   H93   S    
C35   C119  A    
C61   C66   A    
C43   C53   S    
C56   C91   S    
C24   C102  S    
C39   H13   S    
C28   C106  S    
C19   H70   S    
C112  H27   S    
C126  N14   A    
C73   C78   A    
C23   C89   S    
C29   C108  S    
C125  N13   A    
C103  C108  A    
C67   C73   A    
C16   C63   A    
C43   H59   S    
C13   C103  S    
C66   H2    S    
C27   N28   T    
C4    C74   A    
N1    N22   A    
C34   C126  A    
N6    N15   A    
C123  N10   A    
C5    C85   A    
C33   H3    S    
C71   N34   A    
C40   C42   S    
C83   C88   S    
C67   H4    S    
C2    C100  S    
N25   Ni4   S    
C49   C54   S    
N3    Ni4   S    
C116  N4    A    
N9    N36   A    
C127  H47   S    
C21   H76   S    
C17   H65   S    
C36   C128  A    
C1    C12   A    
C46   H62   S    
C92   H16   S    
C28   N29   T    
C19   C52   S    
C104  C105  A    
C32   H96   S    
C38   C48   S    
C56   C84   A    
C91   H15   S    
N13   Ni8   S    
C17   H64   S    
C101  C105  A    
C40   C45   S    
C120  H39   S    
C4    H50   S    
C88   C94   S    
N26   Ni3   S    
C128  H48   S    
C69   H28   S    
C54   H68   S    
C7    H53   S    
C30   C109  S    
N4    N13   A    
C38   H1    S    
N12   Ni2   S    
C25   H87   S    
C9    N24   A    
C98   C112  S    
N22   Ni2   S    
C86   C90   S    
C18   C41   S    
C117  H37   S    
N5    Ni6   S    
C124  N11   A    
N1    Ni1   S    
C95   C100  A    
C114  H33   S    
C47   C51   S    
C71   C96   A    
N18   Ni6   S    
N7    Ni8   S    
C98   C102  A    
N5    N14   A    
N8    Ni7   S    
C56   C60   A    
C16   C80   S    
C113  N36   A    
C71   H30   S    
C21   H78   S    
C51   H46   S    
C35   C127  A    
C9    C14   A    
C88   H11   S    
C9    H55   S    
C63   N31   A    
C31   H94   S    
C97   C109  S    
C11   C16   A    
C78   C82   A    
C119  N6    A    
C94   H22   S    
N20   Ni8   S    
C72   C107  A    
C77   C81   A    
C8    C12   A    
C122  H41   S    
C99   C111  S    
C46   C54   S    
C18   H69   S    
C45   C49   S    
C19   H72   S    
C81   C86   A    
C22   H80   S    
C69   C74   A    
C33   C112  S    
C90   H14   S    
C15   C52   A    
N21   N35   A    
C93   H17   S    
C65   C76   A    
C119  H38   S    
C4    N18   A    
N33   Ni6   S    
N19   N33   A    
C126  H45   S    
C61   C85   S    
C44   H60   S    
C30   H89   S    
C31   H95   S    
N20   N34   A    
C44   C51   S    
C45   H61   S    
N35   Ni8   S    
C59   C94   S    
C32   H98   S    
C60   C65   A    
C24   C116  A    
C2    C114  A    
C22   C88   S    
C14   C41   A    
C115  H34   S    
C24   C125  A    
C128  N16   A    
C29   N30   T    
C37   C121  A    
N2    N10   A    
N17   Ni4   S    
C89   C91   S    
C84   C89   S    
C1    C17   S    
C87   H10   S    
N23   Ni3   S    
C36   C50   S    
C64   C107  S    
C39   C47   S    
C23   H85   S    
C8    H54   S    
C13   C124  A    
C66   C77   A    
C54   C55   S    
C25   H86   S    
C72   N35   A    
C75   C79   A    
C6    H52   S    
C18   H67   S    
C42   H35   S    
C30   H92   S    
C115  N3    A    
N8    N17   A    
C116  H36   S    
C25   H88   S    
C76   C80   A    
C20   H75   S    
C59   C83   A    
C33   H99   S    
C95   C110  S    
C114  N2    A    
C95   C97   A    
N12   N24   A    
C39   C44   S    
C48   C53   S    
C13   C115  A    
C55   H79   S    
C46   C50   S    
C19   H71   S    
C50   C55   S    
N4    Ni3   S    
N11   Ni7   S    
C57   C61   A    
C10   C15   A    
N16   Ni3   S    
C70   H29   S    
C20   C63   S    
C3    H49   S    
C20   H74   S    
C38   C43   S    
C59   C64   A    
C110  H25   S    
C109  C110  S    
C79   C83   A    
C117  N5    A    
C52   N23   A    
C38   C39   S    
C127  N15   A    
C106  C108  A    
N26   N31   A    
C34   C117  A    
C40   C50   S    
C87   C93   S    
C60   C74   S    
C90   C92   S    
C31   C110  S    
C102  C106  A    
C121  N8    A    
C7    C107  A    
C14   C78   S    
C113  H32   S    
C36   C120  A    
C111  H26   S    
N7    N16   A    
C123  H42   S    
N18   N32   A    
C42   C49   S    
C113  C118  A    
C1    N1    A    
N24   Ni1   S    
C7    N21   A    
C34   C48   S    
C32   H97   S    
C45   C55   S    
N36   Ni2   S    
C98   C99   A    
C69   N32   A    
C57   C92   S    
C89   H12   S    
N9    Ni5   S    
C3    N17   A    
C5    N19   A    
C51   C53   S    
C70   C85   A    
C43   C47   S    
C121  H40   S    
C41   N12   A    
C97   C101  A    
C44   C48   S    
C3    C37   A    
C12   C79   S    
C30   H91   S    
N2    Ni1   S    
