data_mof_unit_40797.cif
_audit_creation_date              2012-10-26T19:17:56-0400
_audit_creation_method            fapswitch 2.2
_symmetry_space_group_name_H-M    P1
_symmetry_Int_Tables_number       1
_space_group_crystal_system       triclinic
_cell_length_a                    10.850993
_cell_length_b                    12.363084
_cell_length_c                    13.33433
_cell_angle_alpha                 116.497923
_cell_angle_beta                  76.083696
_cell_angle_gamma                 100.450216
_cell_volume                      1548.2586956

loop_
_atom_site_label
_atom_site_type_symbol
_atom_type_description
_atom_site_fract_x
_atom_site_fract_y
_atom_site_fract_z
_atom_type_partial_charge
C1    C     C_R   0.514282 0.855016 0.286842 0.557166
C2    C     C_R   0.224779 0.317359 0.354907 0.104799
C3    C     C_R   0.316615 0.257025 0.260629 -0.053968
C4    C     C_R   0.735940 0.003246 0.506680 0.567462
C5    C     C_R   0.335781 0.136863 0.230540 0.085280
C6    C     C_R   0.261988 0.075163 0.293213 -0.021081
C7    C     C_R   0.173132 0.135641 0.390573 0.011967
C8    C     C_R   0.320862 0.289947 0.013776 -0.137383
C9    C     C_R   0.465971 0.229135 0.834053 0.016954
C10   C     C_R   0.652031 0.802235 0.099090 -0.062943
C11   C     C_R   0.721098 0.713386 0.007241 0.087558
C12   C     C_R   0.637520 0.766510 0.752018 0.093145
C13   C     C_R   0.676675 0.591646 0.977178 -0.084051
C14   C     C_R   0.553299 0.557910 0.025865 0.025100
C15   C     C_R   0.488723 0.649561 0.124808 0.014162
C16   C     C_R   0.484718 0.145021 0.712844 0.524513
C17   C     C_R   0.493514 0.436536 0.982683 0.070781
C18   C     C_R   0.379729 0.408205 0.049229 0.012923
C19   C     C_R   0.320471 0.499286 0.147629 -0.143116
C20   C     C_R   0.371288 0.618587 0.182421 -0.112630
C21   C     C_R   0.533888 0.345607 0.871568 0.084179
C22   C     C_R   0.365492 0.200474 0.908217 -0.136623
C23   C     C_R   0.038992 0.947176 0.562064 -0.148223
C24   C     C_R   0.544176 0.770789 0.165540 -0.009416
C25   C     C_R   0.649841 0.316805 0.293628 -0.092272
C26   C     C_R   0.340532 0.770407 0.658164 0.053828
C27   C     C_R   0.305465 0.678366 0.694984 -0.127089
C28   C     C_R   0.262862 0.001193 0.500155 0.528699
C29   C     C_R   0.360075 0.568439 0.633159 -0.114246
C30   C     C_R   0.448835 0.548137 0.531741 -0.024059
C31   C     C_R   0.482004 0.644481 0.494741 0.178013
C32   C     C_R   0.507175 0.435958 0.465572 -0.023933
C33   C     C_R   0.575438 0.414244 0.355282 -0.012965
C34   C     C_R   0.128823 0.005189 0.503062 -0.001467
C35   C     C_R   0.580485 0.496018 0.310300 -0.147657
C36   C     C_R   0.560809 0.615530 0.383718 0.131981
C37   C     C_R   0.501802 0.343188 0.502035 0.025245
C38   C     C_R   0.654777 0.238267 0.339926 0.261704
C39   C     C_R   0.633567 0.888685 0.778006 -0.051297
C40   C     C_R   0.725423 0.946104 0.720758 -0.096622
C41   C     C_R   0.819333 0.880603 0.631094 0.048402
C42   C     C_R   0.824128 0.756244 0.604415 0.113707
C43   C     C_R   0.733075 0.700729 0.664980 -0.048531
C44   C     C_R   0.087746 0.069348 0.453622 -0.029073
C45   C     C_R   0.958464 0.069762 0.461722 -0.132573
C46   C     C_R   0.868790 0.005456 0.513497 0.004905
C47   C     C_R   0.909054 0.943502 0.566102 -0.017231
C48   C     C_R   0.155312 0.257097 0.421149 -0.081340
Cu1   Cu    Cu3+1 0.529370 0.098270 0.475420 0.976911
Cu2   Cu    Cu3+1 0.470630 0.901730 0.524580 0.961928
H1    H     H_    0.373526 0.303674 0.211013 0.144432
H2    H     H_    0.628458 0.472616 0.222573 0.145924
H3    H     H_    0.710502 0.306126 0.212763 0.138065
H4    H     H_    0.441569 0.346402 0.580245 0.117456
H5    H     H_    0.298169 0.855769 0.707560 0.125249
H6    H     H_    0.329268 0.499618 0.664856 0.105429
H7    H     H_    0.236325 0.692680 0.772374 0.122312
H8    H     H_    0.720514 0.041254 0.743659 0.106480
H9    H     H_    0.736561 0.605716 0.643518 0.130227
H10   H     H_    0.070273 0.906771 0.607920 0.126074
H11   H     H_    0.928260 0.118694 0.423372 0.173415
H12   H     H_    0.274276 0.980615 0.266582 0.132948
H13   H     H_    0.084281 0.303265 0.494429 0.107709
H14   H     H_    0.550570 0.755911 0.899436 0.255045
H15   H     H_    0.560865 0.620387 0.787029 0.223591
H16   H     H_    0.694667 0.304544 0.747701 0.242479
H17   H     H_    0.596191 0.394318 0.738670 0.253159
H18   H     H_    0.821641 0.799721 0.912191 0.237850
H19   H     H_    0.881798 0.671586 0.883775 0.221598
H20   H     H_    0.928566 0.699178 0.443518 0.271595
H21   H     H_    0.005438 0.707918 0.543895 0.220518
H22   H     H_    0.135507 0.473078 0.456526 0.238329
H23   H     H_    0.313485 0.111650 0.880422 0.136234
H24   H     H_    0.283208 0.492988 0.388615 0.230807
H25   H     H_    0.230304 0.479016 0.194878 0.158656
H26   H     H_    0.235817 0.267904 0.065724 0.142219
H27   H     H_    0.690823 0.894782 0.125044 0.196834
H28   H     H_    0.743188 0.526201 0.919813 0.164012
H29   H     H_    0.558130 0.939349 0.841951 0.169385
H30   H     H_    0.316849 0.686792 0.254804 0.139530
I1    I     I_    0.474518 0.047653 0.089668 -0.492810
I2    I     I_    0.801200 0.120281 0.256146 -0.358612
I3    I     I_    0.730678 0.704732 0.323434 -0.350409
N1    N     N_R   0.573890 0.246290 0.438210 -0.230563
N2    N     N_R   0.426890 0.754320 0.561170 -0.235558
N3    N     N_3   0.542742 0.710252 0.813536 -0.619821
N4    N     N_3   0.634375 0.374747 0.792969 -0.677354
N5    N     N_3   0.840712 0.748107 0.950183 -0.603862
N6    N     N_3   0.918392 0.683366 0.515815 -0.625979
N7    N     N_3   0.198482 0.437053 0.379014 -0.638686
O1    O     O_R   0.536940 0.972510 0.318130 -0.467020
O2    O     O_R   0.487330 0.806530 0.359650 -0.488152
O3    O     O_R   0.705160 0.082990 0.479250 -0.488160
O4    O     O_R   0.655550 0.917010 0.520760 -0.463828
O5    O     O_R   0.512670 0.193470 0.640350 -0.519182
O6    O     O_R   0.463060 0.027490 0.681870 -0.523982
O7    O     O_R   0.344450 0.082990 0.479240 -0.501300
O8    O     O_R   0.294840 0.917010 0.520750 -0.523809

loop_
_geom_bond_atom_site_label_1
_geom_bond_atom_site_label_2
_ccdc_geom_bond_type
C28   O7    A    
C21   N4    S    
C31   N2    A    
C27   C29   A    
C41   C42   A    
C19   C20   A    
Cu2   O6    S    
C26   H5    S    
H15   N3    S    
C4    C46   S    
C45   C46   A    
C26   C27   A    
Cu1   N1    S    
C9    C16   S    
C25   H3    S    
C12   C43   A    
C30   C31   A    
C9    C22   A    
C36   I3    S    
C8    H26   S    
H22   N7    S    
C18   C19   A    
C2    N7    S    
Cu2   N2    S    
C46   C47   A    
C35   C36   A    
C8    C22   A    
C37   N1    A    
C43   H9    S    
C28   C34   S    
C1    O1    A    
C13   C14   A    
C38   I2    S    
C14   C17   A    
C15   C20   A    
Cu1   O1    S    
H14   N3    S    
C10   H27   S    
C23   H10   S    
C16   O6    A    
C23   C47   A    
C20   H30   S    
C40   H8    S    
C27   H7    S    
Cu2   O8    S    
C39   C40   A    
C3    H1    S    
Cu2   O4    S    
C48   H13   S    
C10   C24   A    
C32   C37   A    
C8    C18   A    
C39   H29   S    
C29   C30   A    
C25   C38   A    
C5    I1    S    
H21   N6    S    
C11   N5    S    
C23   C34   A    
C17   C18   A    
C41   C47   S    
C34   C44   A    
C7    C44   S    
Cu1   O5    S    
H19   N5    S    
C4    O4    A    
C37   H4    S    
Cu2   O2    S    
C40   C41   A    
C1    O2    A    
H18   N5    S    
H20   N6    S    
C42   C43   A    
H16   N4    S    
C44   C45   A    
C28   O8    A    
C13   H28   S    
C15   C24   A    
C16   O5    A    
C38   N1    A    
C31   C36   A    
C3    C5    A    
C6    C7    A    
C29   H6    S    
H17   N4    S    
C12   N3    S    
C42   N6    S    
C2    C48   A    
C7    C48   A    
C6    H12   S    
C12   C39   A    
C19   H25   S    
C2    C3    A    
C32   C33   A    
C30   C32   A    
C11   C13   A    
C9    C21   A    
C5    C6    A    
C26   N2    A    
H24   N7    S    
C45   H11   S    
C33   C35   A    
C17   C21   A    
C10   C11   A    
Cu1   O7    S    
C4    O3    A    
C1    C24   S    
Cu1   Cu2   S    
C35   H2    S    
C14   C15   A    
C22   H23   S    
Cu1   O3    S    
C25   C33   A    
