data_mof_unit_11030.cif
_audit_creation_date              2012-12-10T16:48:43-0500
_audit_creation_method            fapswitch 2.2
_symmetry_space_group_name_H-M    P1
_symmetry_Int_Tables_number       1
_space_group_crystal_system       triclinic
_cell_length_a                    17.188503
_cell_length_b                    8.684653
_cell_length_c                    7.526349
_cell_angle_alpha                 103.428506
_cell_angle_beta                  90.116431
_cell_angle_gamma                 93.899066
_cell_volume                      1090.07525805

loop_
_atom_site_label
_atom_site_type_symbol
_atom_type_description
_atom_site_fract_x
_atom_site_fract_y
_atom_site_fract_z
_atom_type_partial_charge
C1    C     C_R   0.497538 0.199867 0.453371 0.859482
C2    C     C_R   0.502462 0.800133 0.546629 0.859485
C3    C     C_2   0.496274 0.031368 0.427876 -0.350752
C4    C     C_2   0.503726 0.968632 0.572124 -0.350751
C5    C     C_R   0.351294 0.495963 0.525409 0.761126
C6    C     C_R   0.648706 0.504035 0.474590 0.761125
C7    C     C_R   0.266807 0.486357 0.544378 -0.138269
C8    C     C_R   0.733193 0.513636 0.455621 -0.138265
C9    C     C_R   0.218017 0.374842 0.419107 -0.035784
C10   C     C_R   0.781984 0.625151 0.580887 -0.035785
C11   C     C_R   0.137425 0.381661 0.435116 -0.100201
C12   C     C_R   0.862576 0.618326 0.564878 -0.100201
C13   C     C_R   0.105091 0.494608 0.574260 0.045329
C14   C     C_R   0.894908 0.505373 0.425737 0.045327
C15   C     C_R   0.153784 0.598829 0.707004 0.004289
C16   C     C_R   0.846214 0.401153 0.292997 0.004289
C17   C     C_R   0.234645 0.593194 0.689743 -0.100896
C18   C     C_R   0.765354 0.406793 0.310259 -0.100898
C19   C     C_2   0.020133 0.501598 0.576761 -0.218773
C20   C     C_2   0.979865 0.498379 0.423234 -0.218777
Cu1   Cu    Cu3+1 0.508700 0.517250 0.683000 0.974744
Cu2   Cu    Cu3+1 0.491300 0.482750 0.317000 0.974745
N1    N     N_2   0.478180 0.456750 0.041980 -0.215400
N2    N     N_2   0.521820 0.543250 0.958020 -0.215401
O1    O     O_R   0.505650 0.286040 0.618880 -0.602066
O2    O     O_R   0.494350 0.713960 0.381120 -0.602066
O3    O     O_R   0.490960 0.256910 0.309800 -0.605321
O4    O     O_R   0.509040 0.743090 0.690200 -0.605321
O5    O     O_R   0.394600 0.516230 0.672450 -0.591513
O6    O     O_R   0.605400 0.483770 0.327550 -0.591510
O7    O     O_R   0.379910 0.487100 0.363380 -0.552782
O8    O     O_R   0.620090 0.512900 0.636620 -0.552783
C21   C     C_2   0.249678 0.246671 0.276837 0.463803
H1    H     H_    0.310088 0.219222 0.282641 0.061533
O9    O     O_2   0.208201 0.168346 0.151708 -0.499732
C22   C     C_2   0.750325 0.753329 0.723151 0.463795
H2    H     H_    0.689915 0.780777 0.717351 0.061536
O10   O     O_2   0.791803 0.831662 0.848271 -0.499729
H3    H     H_    0.726873 0.323688 0.213720 0.197544
H4    H     H_    0.273124 0.676298 0.786285 0.197547
H5    H     H_    0.009622 0.488467 0.294262 0.158158
H6    H     H_    0.990377 0.511510 0.705732 0.158158
C23   C     C_2   0.121672 0.718591 0.858282 0.392071
H7    H     H_    0.059826 0.736064 0.864546 0.070438
O11   O     O_2   0.164297 0.800327 0.978872 -0.492521
C24   C     C_2   0.878325 0.281388 0.141721 0.392073
H8    H     H_    0.940170 0.263909 0.135458 0.070440
O12   O     O_2   0.835699 0.199655 0.021132 -0.492516
H9    H     H_    0.900894 0.702977 0.660134 0.176400
H10   H     H_    0.099108 0.297009 0.339856 0.176400
H11   H     H_    0.489183 0.958702 0.289433 0.174167
H12   H     H_    0.510816 0.041298 0.710567 0.174167
C25   C     C_2   0.409139 0.378261 0.952450 0.714568
H13   H     H_    0.411304 0.271523 0.845380 0.002837
O13   O     O_2   0.345837 0.427181 0.000383 -0.552483
C26   C     C_2   0.590860 0.621741 0.047550 0.714573
H14   H     H_    0.588695 0.728480 0.154617 0.002832
O14   O     O_2   0.654163 0.572819 0.999622 -0.552485

loop_
_geom_bond_atom_site_label_1
_geom_bond_atom_site_label_2
_ccdc_geom_bond_type
C2    O4    A    
C18   H3    S    
C1    O1    A    
C15   C17   A    
N2    C26   S    
C11   C13   A    
C6    O8    A    
C19   C20   D    
C19   H6    S    
C23   H7    S    
C1    O3    A    
C22   O10   D    
C20   H5    S    
C15   C23   S    
C2    O2    A    
C11   H10   S    
C25   H13   S    
C9    C21   S    
C23   O11   D    
C9    C11   A    
Cu2   N1    S    
C10   C12   A    
C4    H12   S    
C6    C8    S    
C2    C4    S    
C8    C10   A    
C22   H2    S    
C21   O9    D    
Cu1   O4    S    
C12   C14   A    
N1    C25   S    
C5    O5    A    
Cu2   O3    S    
C25   O13   D    
C13   C15   A    
Cu1   O8    S    
C14   C16   A    
C12   H9    S    
Cu2   O7    S    
C13   C19   S    
N1    N2    D    
C3    C4    D    
C24   O12   D    
C14   C20   S    
C21   H1    S    
C26   H14   S    
C7    C9    A    
Cu2   O2    S    
Cu1   N2    S    
C16   C24   S    
C1    C3    S    
C5    C7    S    
C3    H11   S    
Cu1   O1    S    
C24   H8    S    
C10   C22   S    
Cu2   O6    S    
C6    O6    A    
Cu1   Cu2   S    
Cu1   O5    S    
C16   C18   A    
C8    C18   A    
C26   O14   D    
C5    O7    A    
C17   H4    S    
C7    C17   A    
