data_mof_unit_51758.cif
_audit_creation_date              2013-03-05T15:49:59-0500
_audit_creation_method            fapswitch 2.2
_symmetry_space_group_name_H-M    P1
_symmetry_Int_Tables_number       1
_space_group_crystal_system       triclinic
_cell_length_a                    13.573458
_cell_length_b                    13.592022
_cell_length_c                    27.676922
_cell_angle_alpha                 90.358673
_cell_angle_beta                  90.273009
_cell_angle_gamma                 119.982246
_cell_volume                      4422.56392099

loop_
_atom_site_label
_atom_site_type_symbol
_atom_site_description
_atom_site_fract_x
_atom_site_fract_y
_atom_site_fract_z
_atom_type_partial_charge
O1    O     O_R   0.302900 0.805360 0.446400 -0.491618
O2    O     O_R   0.522090 0.841370 0.450730 -0.482065
C1    C     C_R   0.619484 0.898303 0.431332 0.552488
O3    O     O_R   0.693280 0.995650 0.447220 -0.508444
O4    O     O_R   0.657260 0.178740 0.451050 -0.489825
C2    C     C_R   0.599570 0.218332 0.431259 0.550864
O5    O     O_R   0.502640 0.195380 0.446850 -0.505044
O6    O     O_R   0.319630 0.976590 0.450330 -0.497634
C3    C     C_R   0.279466 0.878871 0.430541 0.554765
O7    O     O_R   0.303680 0.807790 0.552740 -0.522030
O8    O     O_R   0.522820 0.843620 0.549310 -0.506804
C4    C     C_R   0.620548 0.900810 0.569009 0.538529
O9    O     O_R   0.694060 0.998080 0.553560 -0.524460
O10   O     O_R   0.657980 0.180990 0.549630 -0.508388
C5    C     C_R   0.601632 0.222329 0.568676 0.539533
O11   O     O_R   0.503420 0.197810 0.553190 -0.519819
O12   O     O_R   0.320350 0.978840 0.548910 -0.505913
C6    C     C_R   0.279859 0.881585 0.568221 0.539177
Cr1   Cr    Cr6+3 0.417720 0.831920 0.499820 1.037845
Cr2   Cr    Cr6+3 0.668190 0.085770 0.500360 1.027745
Cr3   Cr    Cr6+3 0.414060 0.082260 0.499840 1.027008
O13   O     O_3   0.499990 0.999990 0.500010 -0.245869
C7    C     C_1   0.630486 0.263704 0.383581 -0.001541
C8    C     C_R   0.727034 0.419138 0.272532 -0.103308
C9    C     C_R   0.737845 0.436606 0.222638 -0.100654
C10   C     C_R   0.624981 0.233372 0.208388 -0.105535
C11   C     C_R   0.614072 0.215886 0.258287 -0.104380
C12   C     C_R   0.664566 0.308728 0.290456 0.036928
C13   C     C_R   0.686620 0.343867 0.190457 0.040462
C14   C     C_1   0.693671 0.364206 0.139277 -0.051426
C15   C     C_1   0.649151 0.289116 0.341614 -0.047696
C16   C     C_1   0.701414 0.390197 0.097325 -0.004169
H1    H     H_    0.766156 0.491500 0.296997 0.105324
H2    H     H_    0.784772 0.522528 0.209113 0.101583
H3    H     H_    0.584329 0.161141 0.183908 0.117710
H4    H     H_    0.565264 0.130064 0.271796 0.149289
C17   C     C_1   0.231017 0.862501 0.382952 0.017373
C18   C     C_R   0.251421 0.934658 0.259651 -0.049367
C19   C     C_R   0.234130 0.924196 0.209527 -0.083841
C20   C     C_R   0.069132 0.737425 0.220150 -0.094338
C21   C     C_R   0.086422 0.747812 0.270194 -0.091688
C22   C     C_R   0.177831 0.846304 0.290090 0.068371
C23   C     C_R   0.143260 0.825138 0.189649 0.044794
C24   C     C_1   0.123050 0.812354 0.138230 -0.052116
C25   C     C_1   0.202197 0.853688 0.341122 -0.015415
C26   C     C_1   0.096483 0.794048 0.096082 -0.006643
H5    H     H_    0.323300 0.010705 0.274615 0.121202
H6    H     H_    0.291837 0.992680 0.186380 0.108180
H7    H     H_    0.998410 0.660547 0.205157 0.106582
H8    H     H_    0.029668 0.678502 0.293233 0.105841
C27   C     C_1   0.634034 0.866194 0.383618 0.028240
C28   C     C_R   0.558763 0.821865 0.258370 0.233045
C29   C     C_R   0.569469 0.809749 0.208437 -0.091626
C30   C     C_R   0.749015 0.816256 0.221985 -0.117780
C31   C     C_R   0.739341 0.827377 0.271633 -0.154275
C32   C     C_R   0.645240 0.830737 0.290196 0.022104
C33   C     C_R   0.664634 0.808242 0.190287 -0.004882
C34   C     C_1   0.676731 0.797711 0.139170 -0.046684
C35   C     C_1   0.640687 0.846826 0.341547 0.005309
C36   C     C_1   0.693416 0.787202 0.097214 -0.001675
H9    H     H_    0.504565 0.803507 0.183602 0.149167
H10   H     H_    0.822731 0.814385 0.208267 0.123090
H11   H     H_    0.805971 0.834330 0.295591 0.116375
C37   C     C_R   0.639345 0.274320 0.616227 0.024668
C38   C     C_R   0.710168 0.246768 0.643024 -0.124169
C39   C     C_R   0.721714 0.265128 0.692266 -0.122315
C40   C     C_R   0.667041 0.316289 0.715390 0.041063
C41   C     C_R   0.605405 0.354388 0.687849 -0.115463
C42   C     C_R   0.589993 0.331728 0.638460 -0.131425
C43   C     C_R   0.575719 0.312000 0.793470 -0.137537
C44   C     C_R   0.583114 0.331515 0.842851 -0.165615
C45   C     C_R   0.773830 0.356606 0.843821 0.208646
C46   C     C_R   0.767997 0.343826 0.793812 -0.108273
C47   C     C_R   0.670635 0.325129 0.768224 -0.008216
C48   C     C_R   0.684854 0.362198 0.867815 0.011109
H12   H     H_    0.748740 0.201420 0.626911 0.137934
H13   H     H_    0.497191 0.291128 0.774867 0.114497
H14   H     H_    0.511927 0.330767 0.860736 0.143015
H15   H     H_    0.767962 0.232738 0.712289 0.103539
H16   H     H_    0.840820 0.350537 0.775054 0.138164
H17   H     H_    0.565608 0.397688 0.704698 0.102510
H18   H     H_    0.535650 0.354124 0.618213 0.122164
C49   C     C_R   0.224298 0.863636 0.614998 0.023830
C50   C     C_R   0.242738 0.958343 0.642701 -0.125736
C51   C     C_R   0.216493 0.946491 0.691464 -0.120889
C52   C     C_R   0.169483 0.839486 0.712994 0.034784
C53   C     C_R   0.142544 0.743410 0.684415 -0.118696
C54   C     C_R   0.170453 0.755497 0.635721 -0.127061
C55   C     C_R   0.173663 0.753879 0.791736 -0.109670
C56   C     C_R   0.146580 0.735918 0.840471 -0.103035
C57   C     C_R   0.083649 0.874450 0.837858 -0.125083
C58   C     C_R   0.109118 0.891094 0.789084 -0.120866
C59   C     C_R   0.151161 0.828514 0.765345 0.031813
C60   C     C_R   0.097865 0.793378 0.863427 0.018112
H19   H     H_    0.285079 0.042979 0.627691 0.135157
H20   H     H_    0.209452 0.707284 0.774410 0.115280
H21   H     H_    0.158969 0.673540 0.859555 0.164702
H22   H     H_    0.238463 0.021941 0.712748 0.104721
H23   H     H_    0.090656 0.948844 0.769519 0.106447
H24   H     H_    0.045601 0.919621 0.854577 0.140736
H25   H     H_    0.102915 0.659452 0.700021 0.113059
H26   H     H_    0.154827 0.681243 0.614894 0.126251
C61   C     C_R   0.638888 0.862581 0.615781 0.022548
C62   C     C_R   0.546792 0.770644 0.638478 -0.124914
C63   C     C_R   0.552958 0.750951 0.687197 -0.121434
C64   C     C_R   0.652032 0.821439 0.713780 0.035712
C65   C     C_R   0.747511 0.907280 0.690185 -0.121117
C66   C     C_R   0.740832 0.928142 0.641490 -0.130514
C67   C     C_R   0.710744 0.903037 0.796689 -0.116385
C68   C     C_R   0.723322 0.889655 0.845664 -0.120224
C69   C     C_R   0.614266 0.684909 0.835094 -0.123541
C70   C     C_R   0.603459 0.698254 0.786034 -0.120188
C71   C     C_R   0.654755 0.807359 0.766218 0.032409
C72   C     C_R   0.678479 0.780462 0.864770 0.022184
H27   H     H_    0.466951 0.718460 0.619561 0.132101
H28   H     H_    0.747761 0.988126 0.782407 0.114870
H29   H     H_    0.772714 0.964369 0.868093 0.147304
H30   H     H_    0.478118 0.684296 0.704511 0.104113
H31   H     H_    0.560220 0.623104 0.763306 0.102816
H32   H     H_    0.580029 0.599651 0.848912 0.135539
H33   H     H_    0.826197 0.960394 0.709711 0.105160
H34   H     H_    0.813284 0.998975 0.624718 0.125760
O14   O     O_R   0.819150 0.845650 0.033320 -0.500252
O15   O     O_R   0.006060 0.815720 0.028680 -0.496210
C73   C     C_R   0.049309 0.761115 0.048269 0.540248
O16   O     O_R   0.028100 0.664460 0.032550 -0.500704
O17   O     O_R   0.811290 0.477490 0.029660 -0.486351
C74   C     C_R   0.714307 0.435708 0.049698 0.546815
O18   O     O_R   0.638120 0.455970 0.034270 -0.505373
O19   O     O_R   0.667540 0.672320 0.030160 -0.492908
C75   C     C_R   0.723643 0.770757 0.049512 0.547520
O20   O     O_R   0.814460 0.840990 0.926980 -0.513011
O21   O     O_R   0.001710 0.811400 0.930110 -0.509174
C76   C     C_R   0.043801 0.755845 0.910477 0.537471
O22   O     O_R   0.023410 0.659800 0.926210 -0.485064
O23   O     O_R   0.806940 0.473170 0.931090 -0.438216
C77   C     C_R   0.706849 0.426007 0.913230 0.556164
O24   O     O_R   0.633420 0.451310 0.927930 -0.534054
O25   O     O_R   0.663190 0.668000 0.931580 -0.503290
C78   C     C_R   0.717105 0.765096 0.911919 0.542011
Cr4   Cr    Cr6+3 0.908000 0.821090 0.979770 1.036921
Cr5   Cr    Cr6+3 0.912420 0.571130 0.979880 1.108543
Cr6   Cr    Cr6+3 0.657970 0.566940 0.980940 1.033127
O26   O     O_3   0.826130 0.653050 0.980200 -0.265012
N1    N     N_R   0.870998 0.366428 0.869270 0.088588
O27   O     O_R   0.856873 0.310192 0.908965 -0.329663
O28   O     O_R   0.970917 0.417094 0.849412 -0.363379
N2    N     N_R   0.460343 0.824876 0.275661 0.069872
O29   O     O_R   0.364813 0.772449 0.251636 -0.348954
O30   O     O_R   0.467815 0.888277 0.312496 -0.367980

loop_
_geom_bond_atom_site_label_1
_geom_bond_atom_site_label_2
_geom_bond_distance
_ccdc_geom_bond_type
C44   C48   1.403584 A    
C31   C32   1.400617 A    
O11   Cr3   2.041576 S    
O21   C76   1.273117 A    
C21   C22   1.399631 A    
C26   C73   1.435106 S    
C69   C70   1.387763 A    
C53   C54   1.390056 A    
C74   O18   1.268662 A    
N1    O27   1.301573 A    
O4    Cr2   1.920521 S    
C51   C52   1.401601 A    
C39   H15   1.082103 S    
O8    Cr1   1.920535 S    
C10   C11   1.398784 A    
C38   H12   1.083602 S    
C41   H17   1.082741 S    
N2    O30   1.301111 A    
C18   C22   1.404072 A    
O24   Cr6   2.043696 S    
C18   C19   1.400327 A    
C64   C65   1.404871 A    
C34   C36   1.205369 T    
Cr6   O26   1.977585 S    
C36   C75   1.433340 S    
O12   C6    1.273043 A    
C46   C47   1.402050 A    
C62   C63   1.386599 A    
O23   Cr5   1.923514 S    
C51   H22   1.082930 S    
C67   H28   1.083100 S    
C53   H25   1.083059 S    
C29   H9    1.083767 S    
O22   Cr5   2.039028 S    
O6    C3    1.274999 A    
C31   H11   1.083797 S    
C43   C47   1.400082 A    
C5    C37   1.453902 S    
C43   C44   1.384170 A    
C42   H18   1.083222 S    
C72   C78   1.458686 S    
C57   H24   1.083256 S    
C68   C72   1.401009 A    
C56   H21   1.083198 S    
C67   C71   1.404403 A    
C9    H2    1.083505 S    
C49   C54   1.401554 A    
C28   N2    1.440776 S    
Cr3   O13   1.978485 S    
C43   H13   1.082786 S    
O25   Cr6   1.919711 S    
C45   C48   1.415674 A    
C68   H29   1.083411 S    
C70   C71   1.402339 A    
N1    O28   1.301564 A    
C24   C26   1.206414 T    
C56   C60   1.401715 A    
C20   C23   1.402888 A    
C9    C13   1.403469 A    
O1    Cr1   2.038200 S    
C5    O11   1.273031 A    
C64   C71   1.467769 S    
C40   C41   1.407469 A    
O10   Cr2   1.926846 S    
Cr1   O13   1.978823 S    
O1    C3    1.270421 A    
C8    C9    1.398579 A    
C4    C61   1.463674 S    
C48   C77   1.464669 S    
Cr4   O26   1.978742 S    
C57   C58   1.386726 A    
C1    C27   1.433482 S    
C52   C53   1.404175 A    
C41   C42   1.390952 A    
C19   C23   1.400456 A    
C30   H10   1.083928 S    
O5    Cr3   2.039101 S    
O16   Cr5   2.040574 S    
O12   Cr3   1.921364 S    
C1    O3    1.269360 A    
C69   H32   1.083567 S    
O17   Cr5   1.922555 S    
C7    C15   1.205397 T    
C23   C24   1.440922 S    
C13   C14   1.439368 S    
C52   C59   1.467137 S    
C62   H27   1.083192 S    
C49   C50   1.404053 A    
O7    Cr1   2.041830 S    
C65   C66   1.390796 A    
O14   Cr4   2.043454 S    
C3    C17   1.434799 S    
C6    C49   1.460740 S    
C40   C47   1.465062 S    
C37   C42   1.398770 A    
C50   C51   1.387173 A    
O19   Cr6   1.926681 S    
C20   H7    1.083422 S    
C18   H5    1.083819 S    
C2    O5    1.269413 A    
C20   C21   1.398139 A    
Cr2   O13   1.977629 S    
C73   O16   1.269538 A    
Cr5   O26   1.978667 S    
C63   H30   1.082872 S    
C27   C35   1.205885 T    
C65   H33   1.083007 S    
C17   C25   1.206161 T    
O17   C74   1.275422 A    
C21   H8    1.083679 S    
C61   C62   1.405288 A    
C28   C29   1.407520 A    
C77   O24   1.273531 A    
O20   Cr4   2.037256 S    
C30   C31   1.395429 A    
C29   C33   1.397789 A    
O9    Cr2   2.036475 S    
O14   C75   1.268829 A    
O2    Cr1   1.925629 S    
C12   C15   1.439232 S    
C8    C12   1.399529 A    
C66   H34   1.083126 S    
C45   C46   1.390793 A    
O6    Cr3   1.924085 S    
C70   H31   1.082931 S    
C54   H26   1.083263 S    
O25   C78   1.273123 A    
C76   O22   1.271835 A    
O18   Cr6   2.037566 S    
C11   H4    1.083907 S    
O20   C78   1.269259 A    
C63   C64   1.400615 A    
O21   Cr4   1.925137 S    
C8    H1    1.083551 S    
C32   C35   1.442923 S    
C37   C38   1.403884 A    
C16   C74   1.433540 S    
C55   H20   1.083021 S    
O19   C75   1.275032 A    
C39   C40   1.399491 A    
C67   C68   1.389765 A    
C57   C60   1.404738 A    
C14   C16   1.205480 T    
C33   C34   1.439499 S    
O4    C2    1.274191 A    
O7    C6    1.270537 A    
C2    C7    1.433361 S    
C58   C59   1.400927 A    
C60   C76   1.462096 S    
C46   H16   1.081800 S    
O2    C1    1.274436 A    
C69   C72   1.403382 A    
N2    O29   1.301397 A    
C55   C59   1.404531 A    
O15   Cr4   1.921078 S    
O3    Cr2   2.044177 S    
C28   C32   1.419709 A    
C10   H3    1.083539 S    
O15   C73   1.275494 A    
C4    O9    1.272412 A    
C58   H23   1.082937 S    
C10   C13   1.399748 A    
C38   C39   1.377998 A    
C50   H19   1.083380 S    
C11   C12   1.403760 A    
O10   C5    1.268159 A    
O23   C77   1.272874 A    
C61   C66   1.401925 A    
C55   C56   1.390423 A    
C22   C25   1.440453 S    
C44   H14   1.083319 S    
C45   N1    1.437852 S    
O8    C4    1.272138 A    
C19   H6    1.083499 S    
C30   C33   1.399231 A    
