data_mof_unit_67764.cif
_audit_creation_date              2012-12-10T16:50:07-0500
_audit_creation_method            fapswitch 2.2
_symmetry_space_group_name_H-M    P1
_symmetry_Int_Tables_number       1
_space_group_crystal_system       triclinic
_cell_length_a                    8.025672
_cell_length_b                    8.520296
_cell_length_c                    10.86373
_cell_angle_alpha                 94.678804
_cell_angle_beta                  85.609559
_cell_angle_gamma                 91.797779
_cell_volume                      737.98957952

loop_
_atom_site_label
_atom_site_type_symbol
_atom_type_description
_atom_site_fract_x
_atom_site_fract_y
_atom_site_fract_z
_atom_type_partial_charge
C1    C     C_R   0.542183 0.793416 0.505391 0.844252
C2    C     C_R   0.334418 0.498082 0.946953 -0.105177
C3    C     C_R   0.488429 0.490650 0.873311 -0.162351
C4    C     C_R   0.636625 0.489578 0.932884 0.119311
C5    C     C_R   0.631135 0.429371 0.048288 0.244645
C6    C     C_R   0.485136 0.449458 0.125976 -0.168181
C7    C     C_2   0.555198 0.957161 0.534752 0.039229
C8    C     C_2   0.439083 0.042602 0.492287 -0.412941
C9    C     C_R   0.499005 0.502537 0.739870 0.823292
C10   C     C_R   0.457205 0.206772 0.501059 0.929435
C11   C     C_R   0.495940 0.481730 0.260549 0.864916
C12   C     C_R   0.185934 0.565345 0.911419 0.516535
C13   C     C_R   0.094811 0.657409 0.003560 -0.474967
C14   C     C_R   0.079805 0.604203 0.122427 0.459782
C15   C     C_R   0.178428 0.477603 0.140627 0.521345
C16   C     C_R   0.334185 0.469862 0.071965 -0.253620
H1    H     H_    0.012850 0.743885 0.978363 0.210576
H2    H     H_    0.340222 0.991069 0.437380 0.124534
N1    N     N_2   0.950330 0.457950 0.466250 0.188684
N2    N     N_2   0.049670 0.542050 0.533750 0.093507
O1    O     O_R   0.389250 0.738570 0.508280 -0.635464
O2    O     O_R   0.678390 0.711630 0.486650 -0.663754
O3    O     O_R   0.355400 0.513470 0.694050 -0.573919
O4    O     O_R   0.644540 0.486530 0.672420 -0.669381
O5    O     O_R   0.321610 0.288370 0.513350 -0.596622
O6    O     O_R   0.610750 0.261430 0.491720 -0.618537
O7    O     O_R   0.355460 0.513470 0.327580 -0.577865
O8    O     O_R   0.644600 0.486530 0.305950 -0.529268
Zn1   Zn    Zn3+2 0.306930 0.517990 0.514440 1.030517
Zn2   Zn    Zn3+2 0.693070 0.482010 0.485560 1.001917
N3    N     N_2   0.754671 0.613653 0.912249 -0.278454
H3    H     H_    0.806814 0.613707 0.823528 0.287221
C17   C     C_3   0.695627 0.768040 0.960418 -0.834780
H4    H     H_    0.784714 0.861874 0.929870 0.220269
H5    H     H_    0.682777 0.775325 0.063220 0.272829
H6    H     H_    0.572849 0.791250 0.926081 0.228813
N4    N     N_2   0.977821 0.650875 0.621252 -0.224300
H7    H     H_    0.853220 0.666344 0.623457 0.252378
C18   C     C_3   0.076077 0.791676 0.649970 -0.689629
H8    H     H_    0.006191 0.868806 0.722114 0.170754
H9    H     H_    0.101409 0.856826 0.565931 0.212875
H10   H     H_    0.193184 0.762469 0.689349 0.283847
O9    O     O_3   0.095288 0.502420 0.814438 -0.563760
C19   C     C_3   0.078012 0.336048 0.812339 -0.275036
H11   H     H_    0.098915 0.286410 0.901029 0.107507
H12   H     H_    0.164486 0.279783 0.738548 0.197471
H13   H     H_    0.948506 0.301568 0.790971 0.159094
O10   O     O_3   0.949122 0.647296 0.207545 -0.526805
C20   C     C_3   0.967853 0.808695 0.245349 -0.319118
H14   H     H_    0.946981 0.883248 0.169012 0.137989
H15   H     H_    0.092365 0.836229 0.281900 0.140267
H16   H     H_    0.871813 0.839740 0.321316 0.201926
O11   O     O_3   0.116152 0.363476 0.216137 -0.511267
C21   C     C_3   0.179483 0.212314 0.178812 -0.236425
H17   H     H_    0.175801 0.181932 0.077635 0.111588
H18   H     H_    0.099838 0.123886 0.226082 0.173226
H19   H     H_    0.307445 0.201323 0.208577 0.141768
N5    N     N_2   0.775653 0.362289 0.088497 -0.220679
H20   H     H_    0.881735 0.375261 0.030942 0.239431
C22   C     C_3   0.753602 0.204211 0.129129 -0.766555
H21   H     H_    0.793057 0.203668 0.224697 0.285604
H22   H     H_    0.621681 0.160283 0.128543 0.203979
H23   H     H_    0.832002 0.121053 0.067319 0.196763
N6    N     N_2   0.665744 0.018522 0.625116 -0.311365
H24   H     H_    0.766882 0.949047 0.631364 0.213619
C23   C     C_3   0.584826 0.064941 0.745817 -0.797115
H25   H     H_    0.498077 0.162358 0.740267 0.243172
H26   H     H_    0.680421 0.106511 0.810560 0.228217
H27   H     H_    0.513040 0.963592 0.782972 0.222878
O12   O     O_3   0.018170 0.319417 0.425430 -0.457430
C24   C     C_3   0.949730 0.201728 0.498573 -0.137215
H28   H     H_    0.881281 0.248048 0.586237 0.176287
H29   H     H_    0.051949 0.129831 0.524674 0.119442
H30   H     H_    0.870035 0.121047 0.441712 0.150291

loop_
_geom_bond_atom_site_label_1
_geom_bond_atom_site_label_2
_ccdc_geom_bond_type
C24   H30   S    
C23   H26   S    
O9    C19   S    
N3    C17   S    
C9    O4    A    
C1    O1    A    
O12   C24   S    
C3    C9    S    
C13   H1    S    
O7    Zn1   S    
C2    C16   A    
C21   H17   S    
N3    H3    S    
C19   H13   S    
C11   O7    A    
C17   H4    S    
N5    C22   S    
C20   H16   S    
C2    C12   A    
N6    H24   S    
C10   O6    A    
O8    Zn2   S    
C23   H25   S    
C1    O2    A    
N4    C18   S    
C1    C7    S    
O11   C21   S    
C12   C13   A    
N2    N4    S    
O3    Zn1   S    
N4    H7    S    
C5    N5    S    
C22   H23   S    
C4    C5    A    
C11   O8    A    
C10   O5    A    
C22   H22   S    
O10   C20   S    
C17   H5    S    
C19   H12   S    
O6    Zn2   S    
C18   H10   S    
C2    C3    A    
N2    Zn1   S    
O5    Zn1   S    
C5    C6    A    
C21   H18   S    
C7    N6    S    
O4    Zn2   S    
C18   H8    S    
C6    C16   A    
C15   C16   A    
C4    N3    S    
C15   O11   S    
C7    C8    D    
C17   H6    S    
C24   H28   S    
C19   H11   S    
C18   H9    S    
C8    C10   S    
C20   H14   S    
C6    C11   S    
C24   H29   S    
C23   H27   S    
C14   C15   A    
C9    O3    A    
N1    O12   S    
C14   O10   S    
O2    Zn2   S    
N5    H20   S    
C13   C14   A    
N1    Zn2   S    
O1    Zn1   S    
C12   O9    S    
C8    H2    S    
C3    C4    A    
N1    N2    D    
C22   H21   S    
C20   H15   S    
C21   H19   S    
N6    C23   S    
