data_mof_unit_63598.cif
_audit_creation_date              2012-12-10T17:23:29-0500
_audit_creation_method            fapswitch 2.2
_symmetry_space_group_name_H-M    P1
_symmetry_Int_Tables_number       1
_space_group_crystal_system       triclinic
_cell_length_a                    39.965516
_cell_length_b                    21.821306
_cell_length_c                    21.800195
_cell_angle_alpha                 89.304837
_cell_angle_beta                  127.065994
_cell_angle_gamma                 90.304833
_cell_volume                      15169.2615415

loop_
_atom_site_label
_atom_site_type_symbol
_atom_type_description
_atom_site_fract_x
_atom_site_fract_y
_atom_site_fract_z
_atom_type_partial_charge
C1    C     C_R   0.995529 0.999004 0.114725 1.011800
C2    C     C_R   0.004489 0.999422 0.885370 1.015165
C3    C     C_R   0.495200 0.498498 0.114251 1.009856
C4    C     C_R   0.501415 0.499635 0.881114 0.990614
C5    C     C_3   0.272185 0.928564 0.253574 0.356184
C6    C     C_3   0.724310 0.951707 0.696289 0.350942
C7    C     C_3   0.770420 0.455683 0.212072 0.338489
C8    C     C_3   0.230044 0.465437 0.800720 0.339957
C9    C     C_3   0.223473 0.934614 0.194703 -0.034363
C10   C     C_3   0.772501 0.944407 0.754850 -0.014203
C11   C     C_3   0.721929 0.465645 0.160266 -0.017008
C12   C     C_3   0.278463 0.476398 0.850989 -0.010778
C13   C     C_1   0.336872 0.993627 0.330741 0.086672
C14   C     C_1   0.663568 0.006974 0.671484 0.069595
C15   C     C_1   0.836844 0.498061 0.328856 0.069724
C16   C     C_1   0.163274 0.496727 0.673732 0.056855
C17   C     C_1   0.162998 0.997602 0.164204 0.092272
C18   C     C_1   0.837772 0.002905 0.843707 0.086076
C19   C     C_1   0.663066 0.496714 0.164031 0.091161
C20   C     C_1   0.337316 0.497141 0.842101 0.095504
C21   C     C_1   0.125478 0.999159 0.126419 -0.087412
C22   C     C_1   0.875036 0.000904 0.878740 -0.107729
C23   C     C_1   0.625540 0.498616 0.126466 -0.102117
C24   C     C_1   0.374698 0.499016 0.877415 -0.086999
C25   C     C_R   0.056625 0.064103 0.248256 0.424711
C26   C     C_R   0.942266 0.063554 0.749959 0.420774
C27   C     C_R   0.565154 0.542246 0.259082 0.418885
C28   C     C_R   0.428416 0.543043 0.731509 0.413296
C29   C     C_R   0.071217 0.120098 0.284714 0.067655
C30   C     C_R   0.927014 0.119136 0.710989 0.042709
C31   C     C_R   0.591059 0.586157 0.313924 0.028869
C32   C     C_R   0.398928 0.581531 0.670507 0.028295
C33   C     C_R   0.061655 0.138283 0.333135 0.292256
C34   C     C_R   0.936236 0.137086 0.661615 0.304692
C35   C     C_R   0.581417 0.609229 0.361305 0.350080
C36   C     C_R   0.406463 0.606140 0.620212 0.337215
C37   C     C_R   0.041610 0.095833 0.351342 0.356471
C38   C     C_R   0.956446 0.094721 0.644606 0.354231
C39   C     C_R   0.545943 0.585873 0.354373 0.424065
C40   C     C_R   0.443491 0.589390 0.629406 0.424606
C41   C     C_R   0.018746 0.044408 0.300791 -0.144335
C42   C     C_R   0.979798 0.043572 0.696844 -0.141614
C43   C     C_R   0.522256 0.536096 0.303353 -0.161981
C44   C     C_R   0.472201 0.546839 0.688402 -0.189081
C45   C     C_R   0.080988 0.999884 0.081224 0.974628
C46   C     C_R   0.919149 0.000125 0.919896 0.981639
C47   C     C_R   0.581008 0.499787 0.081211 0.964571
C48   C     C_R   0.419036 0.499905 0.919500 0.985449
C49   C     C_R   0.022658 0.035022 0.242150 -0.184644
C50   C     C_R   0.976067 0.034232 0.756052 -0.174551
C51   C     C_R   0.527350 0.523901 0.247044 -0.159670
C52   C     C_R   0.467297 0.530430 0.745365 -0.168735
C53   C     C_R   0.994128 0.000800 0.307557 -0.061564
C54   C     C_R   0.005200 0.000669 0.691829 -0.057245
C55   C     C_R   0.494813 0.497042 0.307623 -0.098879
C56   C     C_R   0.506561 0.521918 0.693585 -0.044047
C57   C     C_R   0.967773 0.955592 0.248976 -0.133546
C58   C     C_R   0.031713 0.955554 0.751566 -0.132825
C59   C     C_R   0.469225 0.451177 0.250187 -0.114898
C60   C     C_R   0.540982 0.495715 0.764428 -0.125004
C61   C     C_R   0.966475 0.955691 0.181908 -0.089120
C62   C     C_R   0.033420 0.956162 0.819030 -0.082645
C63   C     C_R   0.468026 0.450760 0.183236 -0.090248
C64   C     C_R   0.534078 0.473304 0.816767 -0.146595
C65   C     C_R   0.994518 0.995942 0.180340 -0.101114
C66   C     C_R   0.005237 0.996511 0.819645 -0.105962
C67   C     C_R   0.495496 0.492190 0.181027 -0.104473
C68   C     C_R   0.499843 0.498057 0.812174 -0.087004
C69   C     C_R   0.943165 0.909086 0.254466 0.474715
C70   C     C_R   0.056031 0.908591 0.746765 0.477179
C71   C     C_R   0.445536 0.404457 0.256942 0.465050
C72   C     C_R   0.581900 0.488900 0.784419 0.523324
C73   C     C_R   0.920564 0.865276 0.196876 0.098837
C74   C     C_R   0.078868 0.864848 0.805639 0.097486
C75   C     C_R   0.426804 0.356549 0.204937 0.082860
C76   C     C_R   0.608632 0.442751 0.836696 0.078068
C77   C     C_R   0.914799 0.871994 0.129160 -0.309890
C78   C     C_R   0.085674 0.872684 0.873993 -0.327527
C79   C     C_R   0.421413 0.360757 0.137110 -0.348166
C80   C     C_R   0.597811 0.410981 0.877573 -0.284056
C81   C     C_R   0.938304 0.913621 0.120632 0.494444
C82   C     C_R   0.062139 0.914378 0.881656 0.495500
C83   C     C_R   0.441331 0.406368 0.123970 0.502935
C84   C     C_R   0.561702 0.426425 0.870250 0.480579
C85   C     C_R   0.501062 0.880321 0.501174 1.044065
C86   C     C_R   0.000401 0.380042 0.500873 0.994143
C87   C     C_3   0.230835 0.001333 0.298997 0.539740
C88   C     C_3   0.774088 0.061548 0.739614 0.537529
C89   C     C_3   0.730408 0.458114 0.286928 0.544500
C90   C     C_3   0.271536 0.448175 0.729577 0.548331
C91   C     C_R   0.418917 0.000285 0.416962 1.001460
C92   C     C_R   0.581178 0.000427 0.583174 0.973319
C93   C     C_R   0.918951 0.500265 0.416940 1.000969
C94   C     C_R   0.081069 0.499733 0.583150 0.996206
C95   C     C_R   0.499159 0.120419 0.498134 0.949051
C96   C     C_R   0.999350 0.619838 0.498954 1.035863
C97   C     C_R   0.000032 0.879331 0.500328 1.041898
C98   C     C_R   0.500370 0.380084 0.496482 0.964179
C99   C     C_R   0.998315 0.000234 0.377962 1.123390
C100  C     C_R   0.001558 0.000458 0.621928 1.124433
C101  C     C_R   0.498421 0.498330 0.377913 1.036769
C102  C     C_R   0.501786 0.508863 0.621863 0.999490
C103  C     C_R   0.999999 0.120143 0.500205 1.161363
C104  C     C_R   0.499539 0.620509 0.497569 1.085566
C105  C     C_R   0.424301 0.816400 0.390015 0.400330
C106  C     C_R   0.578411 0.805091 0.584661 0.396814
C107  C     C_R   0.942107 0.314196 0.362055 0.425927
C108  C     C_R   0.055054 0.311567 0.642896 0.423862
C109  C     C_R   0.394464 0.793273 0.317158 0.014000
C110  C     C_R   0.613301 0.769087 0.640733 0.052651
C111  C     C_R   0.926797 0.289766 0.291101 0.031057
C112  C     C_R   0.069522 0.284060 0.712629 0.028106
C113  C     C_R   0.934159 0.228657 0.286498 0.317113
C114  C     C_R   0.063288 0.221988 0.715407 0.318258
C115  C     C_R   0.395610 0.731881 0.302505 0.337425
C116  C     C_R   0.607242 0.713165 0.664387 0.353751
C117  C     C_R   0.953887 0.190858 0.353291 0.358743
C118  C     C_R   0.045189 0.186681 0.648197 0.361396
C119  C     C_R   0.430757 0.695017 0.357593 0.367860
C120  C     C_R   0.566303 0.691252 0.627047 0.397107
C121  C     C_R   0.976389 0.218462 0.428564 -0.170905
C122  C     C_R   0.023092 0.216608 0.573550 -0.171292
C123  C     C_R   0.463280 0.720430 0.431474 -0.173389
C124  C     C_R   0.533488 0.718936 0.557023 -0.194565
C125  C     C_3   0.222844 0.049719 0.178877 0.491220
C126  C     C_3   0.779572 0.011291 0.856105 0.488766
C127  C     C_3   0.725119 0.564838 0.222921 0.479249
C128  C     C_3   0.273856 0.563527 0.768468 0.478602
C129  C     C_R   0.462090 0.783827 0.441824 -0.166286
C130  C     C_R   0.537325 0.780822 0.547339 -0.172629
C131  C     C_R   0.973373 0.282340 0.431016 -0.163062
C132  C     C_R   0.025740 0.280918 0.572355 -0.165440
C133  C     C_R   0.000004 0.185815 0.500796 -0.042024
C134  C     C_R   0.498304 0.687052 0.495168 -0.080213
C135  C     C_R   0.499891 0.814233 0.498726 -0.071456
C136  C     C_R   0.000028 0.313273 0.501576 -0.078855
C137  C     C_R   0.545430 0.188023 0.453184 0.428912
C138  C     C_R   0.442818 0.195482 0.512780 0.400691
C139  C     C_R   0.077093 0.688311 0.568550 0.315078
C140  C     C_R   0.921185 0.691077 0.422777 0.364994
C141  C     C_R   0.551173 0.215033 0.401634 0.348440
C142  C     C_R   0.429464 0.226978 0.550507 0.374377
C143  C     C_R   0.110372 0.718503 0.575849 0.393451
C144  C     C_R   0.887038 0.723646 0.409276 0.366520
C145  C     C_R   0.104882 0.777993 0.547025 0.352469
C146  C     C_R   0.895158 0.776081 0.453433 0.325164
C147  C     C_R   0.540306 0.277147 0.381152 0.362333
C148  C     C_R   0.449533 0.281843 0.588911 0.373249
C149  C     C_R   0.065651 0.806396 0.508922 0.030104
C150  C     C_R   0.934588 0.804002 0.492754 0.078136
C151  C     C_R   0.535717 0.311881 0.429289 0.041291
C152  C     C_R   0.479217 0.307509 0.581172 -0.014663
C153  C     C_R   0.034149 0.779860 0.511708 -0.088094
C154  C     C_R   0.965613 0.779412 0.487713 -0.104098
C155  C     C_R   0.519410 0.282956 0.465691 -0.099042
C156  C     C_R   0.485511 0.281745 0.529955 -0.106819
C157  C     C_R   0.520460 0.218512 0.470002 -0.160706
C158  C     C_R   0.475314 0.220486 0.511448 -0.145643
C159  C     C_R   0.037159 0.717109 0.527982 -0.142775
C160  C     C_R   0.961929 0.717595 0.468733 -0.159208
C161  C     C_R   0.000024 0.812519 0.500288 -0.005872
C162  C     C_R   0.502960 0.314247 0.499114 0.018377
C163  C     C_3   0.271366 0.040657 0.218904 -0.238940
C164  C     C_3   0.730015 0.004275 0.805551 -0.226440
C165  C     C_3   0.773232 0.563025 0.257321 -0.217824
C166  C     C_3   0.225584 0.562588 0.732332 -0.208120
C167  C     C_R   0.498326 0.187102 0.493346 -0.078305
C168  C     C_R   0.999451 0.685431 0.498416 -0.054330
C169  C     C_1   0.374357 0.996304 0.368553 -0.074000
C170  C     C_1   0.625945 0.003454 0.632215 -0.118796
C171  C     C_1   0.874372 0.499750 0.367863 -0.084886
C172  C     C_1   0.125686 0.498733 0.632895 -0.116920
C173  C     C_3   0.208844 0.996108 0.208817 -0.089426
C174  C     C_3   0.792158 0.005790 0.799793 -0.094318
C175  C     C_3   0.708903 0.496092 0.208233 -0.090370
C176  C     C_3   0.291521 0.496037 0.798183 -0.098167
C177  C     C_3   0.279272 0.014698 0.341544 0.271050
C178  C     C_3   0.725729 0.069895 0.703197 0.248143
C179  C     C_3   0.779401 0.471943 0.338921 0.262849
C180  C     C_3   0.222284 0.459555 0.673881 0.266494
C181  C     C_3   0.291118 0.993712 0.287615 -0.096245
C182  C     C_3   0.709655 0.008737 0.717509 -0.091343
C183  C     C_3   0.791138 0.496416 0.285415 -0.095493
C184  C     C_3   0.209142 0.495149 0.719303 -0.094899
H1    H     H_    0.284207 0.913295 0.221589 0.126310
H2    H     H_    0.710581 0.910270 0.702932 0.128019
H3    H     H_    0.781325 0.472193 0.178143 0.106648
H4    H     H_    0.218380 0.490087 0.829122 0.095502
H5    H     H_    0.893307 0.840959 0.083312 0.213803
H6    H     H_    0.107485 0.841854 0.920790 0.205443
H7    H     H_    0.401954 0.326439 0.094462 0.209669
H8    H     H_    0.617557 0.373792 0.915588 0.224247
H9    H     H_    0.287548 0.085156 0.241671 0.201157
H10   H     H_    0.717180 0.041915 0.819295 0.212510
H11   H     H_    0.791127 0.594302 0.306900 0.240251
H12   H     H_    0.207618 0.586049 0.675926 0.219562
H13   H     H_    0.215906 0.936519 0.136686 0.146609
H14   H     H_    0.778574 0.907726 0.796140 0.146656
H15   H     H_    0.713965 0.497860 0.113395 0.138417
H16   H     H_    0.285437 0.514851 0.889884 0.133696
O1    O     O_R   0.000000 0.948260 0.091620 -0.607023
O2    O     O_R   0.000000 0.948260 0.908380 -0.606041
O3    O     O_R   0.500000 0.448260 0.091620 -0.600788
O4    O     O_R   0.500000 0.448260 0.908380 -0.585022
O5    O     O_R   0.965320 0.000030 0.373720 -0.614625
O6    O     O_R   0.034680 0.000030 0.626280 -0.610446
O7    O     O_R   0.465320 0.500030 0.373720 -0.598828
O8    O     O_R   0.534680 0.500030 0.626280 -0.561125
O9    O     O_R   0.034670 0.000000 0.443070 -0.611287
O10   O     O_R   0.965330 0.000000 0.556930 -0.607132
O11   O     O_R   0.534670 0.500000 0.443070 -0.586120
O12   O     O_R   0.465330 0.500000 0.556930 -0.620577
O13   O     O_R   0.965330 0.091670 0.465370 -0.625940
O14   O     O_R   0.034670 0.091670 0.534630 -0.627820
O15   O     O_R   0.465330 0.591670 0.465370 -0.564709
O16   O     O_R   0.534670 0.591670 0.534630 -0.604092
O17   O     O_R   1.000000 0.051730 0.091640 -0.604005
O18   O     O_R   1.000000 0.051730 0.908360 -0.601744
O19   O     O_R   0.500000 0.551730 0.091640 -0.612061
O20   O     O_R   0.500000 0.551730 0.908360 -0.616038
O21   O     O_R   0.061430 0.948260 0.061430 -0.625737
O22   O     O_R   0.938570 0.948260 0.938570 -0.618125
O23   O     O_R   0.561430 0.448260 0.061430 -0.613633
O24   O     O_R   0.438570 0.448260 0.938570 -0.635846
O25   O     O_R   0.061430 0.051730 0.061450 -0.585374
O26   O     O_R   0.938570 0.051730 0.938550 -0.589731
O27   O     O_R   0.561430 0.551730 0.061450 -0.587527
O28   O     O_R   0.438570 0.551730 0.938550 -0.597248
O29   O     O_R   0.500000 0.908550 0.551750 -0.639810
O30   O     O_R   0.500000 0.908550 0.448250 -0.615580
O31   O     O_R   0.000000 0.408550 0.551750 -0.600694
O32   O     O_R   0.000000 0.408550 0.448250 -0.608085
O33   O     O_R   0.438570 0.000200 0.490310 -0.584747
O34   O     O_R   0.561430 0.000200 0.509690 -0.578095
O35   O     O_R   0.938570 0.500200 0.490310 -0.617655
O36   O     O_R   0.061430 0.500200 0.509690 -0.625049
O37   O     O_R   0.438570 0.000170 0.386870 -0.610705
O38   O     O_R   0.561430 0.000170 0.613130 -0.626842
O39   O     O_R   0.938570 0.500170 0.386870 -0.591081
O40   O     O_R   0.061430 0.500170 0.613130 -0.587958
O41   O     O_R   0.500000 0.091840 0.551720 -0.597439
O42   O     O_R   0.500000 0.091840 0.448280 -0.593970
O43   O     O_R   0.000000 0.591840 0.551720 -0.625790
O44   O     O_R   0.000000 0.591840 0.448280 -0.627591
O45   O     O_R   0.965310 0.908380 0.465300 -0.610962
O46   O     O_R   0.034690 0.908380 0.534700 -0.623424
O47   O     O_R   0.465310 0.408380 0.465300 -0.622570
O48   O     O_R   0.534690 0.408380 0.534700 -0.598011
Zn1   Zn    Zn3+2 0.000000 0.930910 0.000000 0.941432
Zn2   Zn    Zn3+2 0.500000 0.430910 0.000000 0.967189
Zn3   Zn    Zn3+2 0.000000 0.069090 0.000000 1.069391
Zn4   Zn    Zn3+2 0.500000 0.569090 0.000000 1.042559
Zn5   Zn    Zn3+2 0.500000 0.000200 0.569080 1.039997
Zn6   Zn    Zn3+2 0.500000 0.000200 0.430920 1.055151
Zn7   Zn    Zn3+2 0.000000 0.500200 0.569080 1.043054
Zn8   Zn    Zn3+2 0.000000 0.500200 0.430920 1.030849
Zn9   Zn    Zn3+2 0.953690 0.000030 0.453700 0.945638
Zn10  Zn    Zn3+2 0.046310 0.000030 0.546300 0.926079
Zn11  Zn    Zn3+2 0.453690 0.500030 0.453700 1.013528
Zn12  Zn    Zn3+2 0.546310 0.500030 0.546300 1.102944
I1    I     I_    0.300568 0.108638 0.379960 -0.318929
I2    I     I_    0.710006 0.149055 0.742590 -0.318770
I3    I     I_    0.805011 0.535134 0.435541 -0.249426
I4    I     I_    0.195881 0.506996 0.563935 -0.304598
O49   O     O_3   0.229788 0.942490 0.327635 -0.537670
C185  C     C_3   0.195553 0.931408 0.328899 -0.162681
H17   H     H_    0.165795 0.944502 0.274058 0.136417
H18   H     H_    0.200143 0.954044 0.378767 0.169775
H19   H     H_    0.193969 0.881460 0.336806 0.203680
O50   O     O_3   0.774760 0.042932 0.677579 -0.553438
C186  C     C_3   0.807896 0.065857 0.678121 -0.120989
H20   H     H_    0.838760 0.060574 0.735024 0.175770
H21   H     H_    0.801537 0.114151 0.657462 0.200607
H22   H     H_    0.809219 0.039174 0.636677 0.187750
O51   O     O_3   0.726116 0.394066 0.269756 -0.539260
C187  C     C_3   0.690844 0.364693 0.256894 -0.146773
H23   H     H_    0.661738 0.392117 0.220612 0.132005
H24   H     H_    0.697204 0.351635 0.312408 0.173967
H25   H     H_    0.685422 0.321407 0.226024 0.201323
O52   O     O_3   0.277475 0.387773 0.761377 -0.536341
C188  C     C_3   0.313405 0.355753 0.780977 -0.154042
H26   H     H_    0.341852 0.384645 0.809926 0.132727
H27   H     H_    0.307119 0.333650 0.729382 0.178416
H28   H     H_    0.320106 0.318279 0.821797 0.195547
I5    I     I_    0.317728 0.969969 0.454953 -0.202906
I6    I     I_    0.689523 0.094779 0.581360 -0.246700
I7    I     I_    0.814520 0.390474 0.406650 -0.227596
I8    I     I_    0.189856 0.372578 0.625845 -0.244389
O53   O     O_3   0.075520 0.038490 0.218388 -0.569776
C189  C     C_3   0.094888 0.982731 0.257563 -0.300463
H29   H     H_    0.098993 0.954557 0.220761 0.171904
H30   H     H_    0.076104 0.953890 0.268989 0.168852
H31   H     H_    0.125857 0.992177 0.312826 0.179523
O54   O     O_3   0.923740 0.038460 0.781398 -0.593101
C190  C     C_3   0.902259 0.984722 0.740796 -0.298578
H32   H     H_    0.924250 0.948171 0.750279 0.185572
H33   H     H_    0.878715 0.994321 0.678160 0.165751
H34   H     H_    0.885192 0.966747 0.762473 0.197615
O55   O     O_3   0.579013 0.513744 0.221748 -0.586470
C191  C     C_3   0.593577 0.454470 0.253984 -0.209910
H35   H     H_    0.607589 0.433252 0.228365 0.166903
H36   H     H_    0.567601 0.424190 0.240835 0.168189
H37   H     H_    0.618204 0.456176 0.317328 0.193914
O56   O     O_3   0.417276 0.514219 0.773658 -0.582848
C192  C     C_3   0.405507 0.453323 0.747697 -0.252095
H38   H     H_    0.393791 0.431326 0.777480 0.186746
H39   H     H_    0.432545 0.425566 0.761711 0.145448
H40   H     H_    0.380026 0.451833 0.684713 0.183444
I9    I     I_    0.108520 0.176644 0.268219 -0.157485
I10   I     I_    0.889123 0.175480 0.725114 -0.242489
I11   I     I_    0.643826 0.617458 0.321107 -0.240552
I12   I     I_    0.342036 0.599970 0.653726 -0.245377
O57   O     O_3   0.079849 0.191354 0.374874 -0.565424
C193  C     C_3   0.048400 0.235757 0.348778 -0.232649
H41   H     H_    0.032432 0.247174 0.287092 0.151992
H42   H     H_    0.063340 0.278295 0.381902 0.201462
H43   H     H_    0.025465 0.220932 0.358902 0.161775
O58   O     O_3   0.918059 0.190326 0.618678 -0.565920
C194  C     C_3   0.949543 0.234564 0.644151 -0.224835
H44   H     H_    0.972482 0.219780 0.634352 0.157508
H45   H     H_    0.965587 0.245483 0.705700 0.155447
H46   H     H_    0.934649 0.277367 0.610340 0.199361
O59   O     O_3   0.609182 0.647695 0.422010 -0.557122
C195  C     C_3   0.611022 0.706418 0.395590 -0.255949
H47   H     H_    0.588258 0.713832 0.332172 0.135163
H48   H     H_    0.643284 0.714761 0.414160 0.215252
H49   H     H_    0.604893 0.741856 0.423659 0.142897
O60   O     O_3   0.375575 0.639693 0.555628 -0.566001
C196  C     C_3   0.370269 0.698404 0.576017 -0.250706
H50   H     H_    0.393338 0.709762 0.638133 0.136510
H51   H     H_    0.338076 0.702379 0.559213 0.216087
H52   H     H_    0.372863 0.733954 0.542310 0.150747
O61   O     O_3   0.043554 0.106697 0.415930 -0.592823
C197  C     C_3   0.086098 0.111032 0.482681 -0.099152
H53   H     H_    0.092251 0.158306 0.505367 0.177997
H54   H     H_    0.110082 0.098249 0.474296 0.132761
H55   H     H_    0.091841 0.079278 0.528078 0.160728
O62   O     O_3   0.954553 0.105867 0.579882 -0.595909
C198  C     C_3   0.912025 0.109896 0.512880 -0.101043
H56   H     H_    0.905483 0.157263 0.489074 0.174752
H57   H     H_    0.888091 0.096480 0.521414 0.130084
H58   H     H_    0.906707 0.078502 0.468312 0.162502
O63   O     O_3   0.532972 0.612637 0.394382 -0.590901
C199  C     C_3   0.530190 0.677221 0.384865 -0.259725
H59   H     H_    0.527454 0.694254 0.333609 0.120289
H60   H     H_    0.556652 0.698935 0.438583 0.199741
H61   H     H_    0.501572 0.693448 0.375026 0.177838
O64   O     O_3   0.452791 0.614726 0.582459 -0.577768
C200  C     C_3   0.449913 0.679431 0.579643 -0.228743
H62   H     H_    0.453706 0.699999 0.630046 0.113935
H63   H     H_    0.420380 0.694337 0.524471 0.196056
H64   H     H_    0.475296 0.698834 0.579957 0.175995
O65   O     O_3   0.942823 0.902094 0.317258 -0.590663
C201  C     C_3   0.901525 0.910655 0.295529 -0.166997
H65   H     H_    0.891809 0.868596 0.310054 0.176794
H66   H     H_    0.877068 0.922809 0.233795 0.121674
H67   H     H_    0.901297 0.947817 0.329362 0.170674
O66   O     O_3   0.055662 0.900974 0.683389 -0.590931
C202  C     C_3   0.096847 0.907643 0.703838 -0.176215
H68   H     H_    0.105494 0.865182 0.688879 0.176223
H69   H     H_    0.121915 0.918562 0.765361 0.128688
H70   H     H_    0.097459 0.944902 0.669653 0.166554
O67   O     O_3   0.440082 0.403100 0.313575 -0.601244
C203  C     C_3   0.398791 0.423836 0.281289 -0.167071
H71   H     H_    0.374407 0.391337 0.238901 0.164736
H72   H     H_    0.392439 0.469853 0.253507 0.138750
H73   H     H_    0.395326 0.428002 0.327833 0.181978
O68   O     O_3   0.597651 0.532366 0.761450 -0.560953
C204  C     C_3   0.624834 0.570901 0.824858 -0.217567
H74   H     H_    0.653041 0.546221 0.873159 0.179246
H75   H     H_    0.608436 0.592638 0.846011 0.136503
H76   H     H_    0.636447 0.607635 0.807104 0.243312
I13   I     I_    0.894664 0.784387 0.208182 -0.416795
I14   I     I_    0.103005 0.782197 0.794767 -0.393901
I15   I     I_    0.404939 0.275822 0.226392 -0.402411
I16   I     I_    0.664286 0.417334 0.851638 -0.240812
I17   I     I_    0.201301 0.073286 0.323437 -0.228347
I18   I     I_    0.810662 0.147576 0.795505 -0.200382
I19   I     I_    0.705178 0.479833 0.350851 -0.243721
I20   I     I_    0.297074 0.454787 0.663574 -0.278348
O69   O     O_3   0.932500 0.912913 0.051144 -0.597165
C205  C     C_3   0.936453 0.852237 0.032381 -0.175101
H77   H     H_    0.904922 0.831499 0.992171 0.170099
H78   H     H_    0.956922 0.821786 0.083631 0.125862
H79   H     H_    0.951321 0.853155 0.003016 0.192616
O70   O     O_3   0.067976 0.913208 0.951178 -0.597644
C206  C     C_3   0.063525 0.852391 0.970334 -0.171781
H80   H     H_    0.094818 0.830537 0.010050 0.173794
H81   H     H_    0.042500 0.822903 0.919201 0.125804
H82   H     H_    0.049051 0.853197 0.000380 0.193597
O71   O     O_3   0.433662 0.407742 0.052697 -0.589166
C207  C     C_3   0.436608 0.348198 0.030005 -0.208553
H83   H     H_    0.404959 0.327290 0.992179 0.164289
H84   H     H_    0.458619 0.317022 0.079369 0.104780
H85   H     H_    0.449105 0.351164 0.996612 0.192954
O72   O     O_3   0.552266 0.390137 0.910065 -0.585835
C208  C     C_3   0.527643 0.340451 0.863067 -0.176778
H86   H     H_    0.545538 0.310556 0.851109 0.177513
H87   H     H_    0.498047 0.356420 0.808169 0.174694
H88   H     H_    0.518877 0.312248 0.894041 0.169569
I21   I     I_    0.675355 0.794861 0.688578 -0.294895
I22   I     I_    0.351845 0.853295 0.224879 -0.263195
I23   I     I_    0.106264 0.334998 0.815771 -0.308893
I24   I     I_    0.888658 0.343786 0.189524 -0.275554
O73   O     O_3   0.414996 0.869243 0.411038 -0.613246
C209  C     C_3   0.408401 0.853683 0.466313 -0.295483
H89   H     H_    0.393610 0.893127 0.473139 0.223882
H90   H     H_    0.438472 0.843655 0.523300 0.171121
H91   H     H_    0.387146 0.813655 0.448981 0.129287
O74   O     O_3   0.584852 0.859829 0.560795 -0.603372
C210  C     C_3   0.582021 0.848738 0.494034 -0.323807
H92   H     H_    0.552067 0.826118 0.448106 0.161784
H93   H     H_    0.608994 0.820672 0.508104 0.159107
H94   H     H_    0.582959 0.893243 0.470047 0.200258
O75   O     O_3   0.921812 0.364839 0.362782 -0.592524
C211  C     C_3   0.897275 0.345117 0.386141 -0.307829
H95   H     H_    0.916775 0.340401 0.449721 0.173668
H96   H     H_    0.880148 0.301550 0.358464 0.161471
H97   H     H_    0.873140 0.379940 0.368140 0.213590
O76   O     O_3   0.075012 0.364297 0.645693 -0.586081
C212  C     C_3   0.104881 0.347879 0.634001 -0.287747
H98   H     H_    0.090385 0.348873 0.571643 0.172555
H99   H     H_    0.120191 0.302492 0.659615 0.165499
H100  H     H_    0.130354 0.381669 0.663239 0.215986
O77   O     O_3   0.914171 0.203370 0.214425 -0.572122
C213  C     C_3   0.943870 0.193242 0.200735 -0.233153
H101  H     H_    0.968373 0.160215 0.243000 0.161859
H102  H     H_    0.958040 0.237158 0.200509 0.159268
H103  H     H_    0.927647 0.172808 0.143000 0.199911
O78   O     O_3   0.082806 0.193817 0.786502 -0.565357
C214  C     C_3   0.053114 0.184943 0.800645 -0.216469
H104  H     H_    0.027503 0.154375 0.757326 0.152479
H105  H     H_    0.040376 0.229438 0.802674 0.157546
H106  H     H_    0.068842 0.162198 0.857591 0.202687
O79   O     O_3   0.362665 0.708581 0.232551 -0.573882
C215  C     C_3   0.335185 0.678218 0.243025 -0.235950
H107  H     H_    0.322581 0.710118 0.264115 0.145734
H108  H     H_    0.350728 0.638247 0.282919 0.170237
H109  H     H_    0.308195 0.660589 0.186680 0.199803
O80   O     O_3   0.641295 0.680901 0.724704 -0.586582
C216  C     C_3   0.648247 0.629574 0.694863 -0.167134
H110  H     H_    0.677437 0.606321 0.742521 0.194168
H111  H     H_    0.652650 0.643337 0.650775 0.168628
H112  H     H_    0.622299 0.595829 0.670514 0.203177
O81   O     O_3   0.951410 0.127964 0.343688 -0.588653
C217  C     C_3   0.908787 0.108632 0.297075 -0.140072
H113  H     H_    0.899574 0.094345 0.240107 0.186552
H114  H     H_    0.886033 0.143396 0.289119 0.117898
H115  H     H_    0.905208 0.068248 0.323848 0.153541
O82   O     O_3   0.049053 0.123658 0.656964 -0.591823
C218  C     C_3   0.092096 0.106246 0.702853 -0.122225
H116  H     H_    0.102253 0.090966 0.760507 0.199123
H117  H     H_    0.113738 0.142571 0.709189 0.117716
H118  H     H_    0.096186 0.066843 0.676395 0.149535
O83   O     O_3   0.434907 0.636277 0.338480 -0.593753
C219  C     C_3   0.428074 0.634521 0.266747 -0.169637
H119  H     H_    0.434097 0.678963 0.249282 0.145608
H120  H     H_    0.395869 0.618127 0.221499 0.202445
H121  H     H_    0.449721 0.600739 0.270596 0.168905
O84   O     O_3   0.557713 0.646961 0.661543 -0.561097
C220  C     C_3   0.556378 0.676043 0.717701 -0.241264
H122  H     H_    0.536285 0.717812 0.695246 0.122465
H123  H     H_    0.588307 0.689288 0.768147 0.179562
H124  H     H_    0.543147 0.643694 0.737509 0.193611
O85   O     O_3   0.400704 0.199284 0.557610 -0.529368
C221  C     C_3   0.362882 0.232944 0.514512 -0.152582
H125  H     H_    0.351740 0.241862 0.454495 0.126731
H126  H     H_    0.365797 0.276531 0.542897 0.166482
H127  H     H_    0.338450 0.205727 0.511542 0.217603
O86   O     O_3   0.570513 0.181566 0.377428 -0.585395
C222  C     C_3   0.612257 0.201848 0.416329 -0.154813
H128  H     H_    0.628812 0.206313 0.479310 0.174172
H129  H     H_    0.613487 0.245974 0.391895 0.185405
H130  H     H_    0.629610 0.167530 0.408205 0.196078
O87   O     O_3   0.846905 0.700403 0.358668 -0.581952
C223  C     C_3   0.821809 0.743864 0.299145 -0.255794
H131  H     H_    0.837472 0.761727 0.274215 0.166154
H132  H     H_    0.812536 0.782246 0.318945 0.200417
H133  H     H_    0.792400 0.721615 0.252083 0.210639
O88   O     O_3   0.147795 0.688464 0.606996 -0.559620
C224  C     C_3   0.144481 0.657383 0.547101 -0.180386
H134  H     H_    0.129825 0.685769 0.493765 0.165822
H135  H     H_    0.126676 0.614046 0.533908 0.188460
H136  H     H_    0.176378 0.645990 0.566061 0.176564
O89   O     O_3   0.569847 0.137613 0.495165 -0.557860
C225  C     C_3   0.598998 0.155285 0.572610 -0.252548
H137  H     H_    0.583947 0.158752 0.601752 0.157699
H138  H     H_    0.615264 0.198959 0.578457 0.178672
H139  H     H_    0.623309 0.119773 0.603155 0.207439
O90   O     O_3   0.421175 0.143505 0.471898 -0.562364
C226  C     C_3   0.395207 0.158982 0.392732 -0.261848
H140  H     H_    0.413975 0.166479 0.371095 0.171139
H141  H     H_    0.375383 0.199964 0.380014 0.161518
H142  H     H_    0.373604 0.120552 0.360019 0.188337
O91   O     O_3   0.084752 0.632042 0.604201 -0.624141
C227  C     C_3   0.092390 0.641515 0.675609 -0.162652
H143  H     H_    0.063733 0.658031 0.667744 0.171957
H144  H     H_    0.118522 0.674361 0.711668 0.204092
H145  H     H_    0.101682 0.597304 0.707536 0.196906
O92   O     O_3   0.914013 0.634667 0.388946 -0.618749
C228  C     C_3   0.907324 0.643333 0.318122 -0.166681
H146  H     H_    0.935165 0.664169 0.326071 0.169038
H147  H     H_    0.878911 0.671628 0.277872 0.211003
H148  H     H_    0.901915 0.598080 0.291029 0.200982
O93   O     O_3   0.136523 0.804708 0.547685 -0.556508
C229  C     C_3   0.156072 0.849450 0.605530 -0.222142
H149  H     H_    0.169689 0.828743 0.663098 0.166150
H150  H     H_    0.133942 0.887058 0.592862 0.144523
H151  H     H_    0.182187 0.870039 0.607666 0.190647
O94   O     O_3   0.864734 0.801624 0.457055 -0.592618
C230  C     C_3   0.856318 0.761371 0.497417 -0.196074
H152  H     H_    0.837059 0.786142 0.510240 0.189764
H153  H     H_    0.885591 0.746119 0.553388 0.165449
H154  H     H_    0.837890 0.721099 0.462090 0.196779
O95   O     O_3   0.547298 0.307614 0.333614 -0.589908
C231  C     C_3   0.522056 0.282649 0.259153 -0.263815
H155  H     H_    0.517831 0.318093 0.218105 0.169203
H156  H     H_    0.490272 0.269209 0.240458 0.173527
H157  H     H_    0.537890 0.242913 0.255293 0.205385
O96   O     O_3   0.443093 0.305380 0.639818 -0.570465
C232  C     C_3   0.426451 0.365432 0.616742 -0.303202
H158  H     H_    0.405242 0.372272 0.553086 0.145554
H159  H     H_    0.451945 0.399869 0.643661 0.197995
H160  H     H_    0.407507 0.374218 0.637393 0.172876
I25   I     I_    0.049627 0.863207 0.415454 -0.317052
I26   I     I_    0.950755 0.861079 0.584829 -0.307671
I27   I     I_    0.584771 0.378291 0.483646 -0.241797
I28   I     I_    0.530457 0.354373 0.676344 -0.350152
I29   I     I_    0.182260 0.048070 0.050701 -0.340715
I30   I     I_    0.815574 0.941621 0.949740 -0.345804
I31   I     I_    0.684918 0.618423 0.113496 -0.372399
I32   I     I_    0.312332 0.627938 0.866210 -0.319308
O97   O     O_3   0.216259 0.106057 0.202482 -0.590040
C233  C     C_3   0.220037 0.158431 0.168140 -0.154867
H161  H     H_    0.234280 0.195863 0.210750 0.188639
H162  H     H_    0.188368 0.173943 0.118512 0.199349
H163  H     H_    0.239949 0.151530 0.148905 0.162170
O98   O     O_3   0.791497 0.070694 0.888995 -0.590166
C234  C     C_3   0.789031 0.078332 0.950549 -0.162056
H164  H     H_    0.778814 0.125965 0.948452 0.203443
H165  H     H_    0.820653 0.072142 0.005971 0.186412
H166  H     H_    0.766551 0.047027 0.949201 0.159862
O99   O     O_3   0.720722 0.589484 0.277913 -0.578558
C235  C     C_3   0.726356 0.653710 0.286392 -0.133455
H167  H     H_    0.741938 0.664971 0.347525 0.193231
H168  H     H_    0.695293 0.676756 0.251602 0.198566
H169  H     H_    0.745933 0.672852 0.270376 0.145359
O100  O     O_3   0.278545 0.579309 0.710525 -0.575109
C236  C     C_3   0.270258 0.642057 0.688504 -0.141303
H170  H     H_    0.254908 0.645800 0.626000 0.191637
H171  H     H_    0.300260 0.667603 0.719084 0.203605
H172  H     H_    0.249469 0.664953 0.699243 0.170012
I33   I     I_    0.289251 0.020694 0.144505 -0.305687
I34   I     I_    0.706076 0.927559 0.833219 -0.291523
I35   I     I_    0.789659 0.601115 0.185370 -0.365907
I36   I     I_    0.206593 0.617857 0.789315 -0.329876
I37   I     I_    0.188545 0.852836 0.182120 -0.354086
I38   I     I_    0.800822 0.902364 0.706209 -0.317467
I39   I     I_    0.686263 0.386340 0.092455 -0.306317
I40   I     I_    0.315505 0.405212 0.936541 -0.314079
O101  O     O_3   0.282985 0.886961 0.313641 -0.510724
C237  C     C_3   0.296234 0.829720 0.306029 -0.207769
H173  H     H_    0.328943 0.833026 0.326347 0.180789
H174  H     H_    0.275931 0.812486 0.246106 0.174465
H175  H     H_    0.295289 0.795747 0.343207 0.190700
O102  O     O_3   0.712742 0.958369 0.620815 -0.502350
C238  C     C_3   0.682788 0.914461 0.570629 -0.198732
H176  H     H_    0.654593 0.917372 0.569013 0.171879
H177  H     H_    0.696491 0.867599 0.587585 0.181858
H178  H     H_    0.672902 0.924068 0.511772 0.191036
O103  O     O_3   0.780429 0.392934 0.233573 -0.525890
C239  C     C_3   0.800580 0.367449 0.204491 -0.185919
H179  H     H_    0.830276 0.392050 0.227068 0.179988
H180  H     H_    0.779676 0.368477 0.140563 0.190592
H181  H     H_    0.808369 0.318891 0.223606 0.195215
O104  O     O_3   0.221142 0.401718 0.793830 -0.524574
C240  C     C_3   0.200556 0.385843 0.826282 -0.184788
H182  H     H_    0.170540 0.411441 0.797743 0.166552
H183  H     H_    0.221079 0.394380 0.889178 0.179662
H184  H     H_    0.193153 0.336217 0.817489 0.210561

loop_
_geom_bond_atom_site_label_1
_geom_bond_atom_site_label_2
_ccdc_geom_bond_type
C10   C174  S    
C238  H176  S    
O8    Zn12  S    
C55   C59   A    
C210  H93   S    
C189  H31   S    
O77   C213  S    
C154  C161  A    
O91   C227  S    
C2    O2    A    
C14   C170  T    
C206  H82   S    
C5    O101  S    
O88   C224  S    
C223  H132  S    
O61   C197  S    
C53   C99   S    
C188  H28   S    
C78   H6    S    
C86   O31   A    
O76   C212  S    
C26   C50   A    
C97   O45   A    
C180  I4    S    
C138  O90   S    
C60   C72   A    
C186  H20   S    
C90   C176  S    
O43   Zn7   S    
C239  H180  S    
O92   C228  S    
C122  C132  A    
C149  C153  A    
C96   O44   A    
C101  O7    A    
C217  H115  S    
C81   O69   S    
C146  C150  A    
C179  I3    S    
C128  I32   S    
C152  C156  A    
C92   C170  S    
C195  H47   S    
C10   I38   S    
C96   C168  S    
C151  C155  A    
C214  H106  S    
C126  C174  S    
C112  I23   S    
C204  H76   S    
O6    Zn10  S    
C139  C159  A    
O25   Zn3   S    
C79   H7    S    
C80   H8    S    
C125  O97   S    
C152  I28   S    
C165  H11   S    
C41   C49   A    
O68   C204  S    
C14   C182  S    
C17   C173  S    
C158  C167  A    
C155  C162  A    
C25   C29   A    
O26   Zn3   S    
C118  O82   S    
C123  C134  A    
C27   C31   A    
O59   C195  S    
C165  C183  S    
C27   O55   S    
O37   Zn6   S    
C28   C32   A    
C85   O29   A    
C104  O16   A    
C207  H84   S    
C62   C66   A    
C58   C70   A    
C216  H112  S    
C142  O85   S    
C229  H149  S    
C227  H145  S    
C40   O64   S    
C153  C161  A    
C19   C23   T    
C235  H169  S    
C71   O67   S    
C87   C177  S    
O3    Zn2   S    
C78   C82   A    
C109  I22   S    
C114  O78   S    
C127  C165  S    
C240  H184  S    
C91   O37   A    
C237  H173  S    
C124  C130  A    
C111  C113  A    
C45   O25   A    
C89   O51   S    
C178  C182  S    
C95   O41   A    
O19   Zn4   S    
O20   Zn4   S    
O69   C205  S    
C209  H90   S    
O90   C226  S    
C206  H80   S    
C110  C116  A    
C191  H35   S    
C106  C130  A    
C47   O23   A    
C217  H114  S    
O86   C222  S    
C164  I34   S    
C231  H155  S    
C106  O74   S    
C105  C129  A    
C16   C184  S    
C57   C61   A    
C119  C123  A    
C6    H2    S    
O12   Zn11  S    
C59   C63   A    
C46   O22   A    
C7    C183  S    
C60   C64   A    
C177  I1    S    
O104  C240  S    
C208  H87   S    
C126  I30   S    
C236  H171  S    
O73   C209  S    
C38   O62   S    
C197  H55   S    
C177  I5    S    
C195  H49   S    
C156  C158  A    
O64   C200  S    
C27   C51   A    
C160  C168  A    
O81   C217  S    
C45   O21   A    
C141  C147  A    
C139  O91   S    
C61   C65   A    
C75   I15   S    
C137  O89   S    
C221  H125  S    
O44   Zn8   S    
C238  H178  S    
C202  H68   S    
C87   I17   S    
C73   C77   A    
C3    O3    A    
C113  O77   S    
C37   O61   S    
C42   C54   A    
C180  C184  S    
C194  H45   S    
C9    I37   S    
C200  H62   S    
C29   C33   A    
C163  C181  S    
C11   I39   S    
C12   I40   S    
C30   C34   A    
C43   C51   A    
C112  C114  A    
O9    Zn10  S    
C214  H105  S    
C220  H122  S    
C148  O96   S    
O10   Zn9   S    
C5    C9    S    
C92   O38   A    
O94   C230  S    
C104  C134  S    
C99   O5    A    
C4    O20   A    
C64   C68   A    
C7    H3    S    
C166  H12   S    
C222  H129  S    
C48   O28   A    
C164  H10   S    
C88   C174  S    
C203  H71   S    
C225  H139  S    
C118  C122  A    
O15   Zn11  S    
C33   O57   S    
C129  C135  A    
C139  C143  A    
C64   C84   A    
C214  H104  S    
C219  H119  S    
C192  H39   S    
C233  H163  S    
C1    C65   S    
C9    C173  S    
O34   Zn6   S    
C191  H37   S    
O24   Zn2   S    
C12   C176  S    
C218  H118  S    
C94   C172  S    
C44   C52   A    
C13   C169  T    
C230  H154  S    
C228  H146  S    
C234  H166  S    
C196  H51   S    
C225  H137  S    
C6    O102  S    
C231  H157  S    
C11   H15   S    
C9    H13   S    
O53   C189  S    
C21   C45   S    
C121  C133  A    
C90   C180  S    
C23   C47   S    
C91   C169  S    
C24   C48   S    
C211  H97   S    
C128  O100  S    
O52   C188  S    
C84   O72   S    
C131  C136  A    
C178  I2    S    
C4    C68   S    
C197  H53   S    
C51   C67   A    
C48   O24   A    
C31   I11   S    
C32   I12   S    
C116  C120  A    
C147  C151  A    
C98   O48   A    
O89   C225  S    
C50   C66   A    
C138  C158  A    
C107  O75   S    
O99   C235  S    
C132  C136  A    
O7    Zn11  S    
C150  I26   S    
C227  H144  S    
C224  H134  S    
C12   H16   S    
C125  I29   S    
C232  H159  S    
C103  O14   A    
C41   C53   A    
O74   C210  S    
C185  H18   S    
C42   C50   A    
C113  C117  A    
C18   C174  S    
O23   Zn2   S    
C43   C55   A    
C26   C30   A    
C200  H64   S    
C13   C181  S    
O41   Zn5   S    
O95   C231  S    
C210  H92   S    
C105  O73   S    
C2    O18   A    
C99   O9    A    
C220  H124  S    
C86   C136  S    
C105  C109  A    
O102  C238  S    
C233  H161  S    
C107  C111  A    
C148  C152  A    
C187  H24   S    
O60   C196  S    
C2    C66   S    
C185  H19   S    
C95   C167  S    
C88   C178  S    
C188  H27   S    
C110  I21   S    
C91   O33   A    
C83   O71   S    
C203  H73   S    
C137  C157  A    
C215  H107  S    
C77   H5    S    
C70   O66   S    
C56   C102  S    
C61   C81   A    
C208  H86   S    
C140  C160  A    
C209  H89   S    
C190  H33   S    
C20   C176  S    
C102  O8    A    
C193  H43   S    
C219  H121  S    
C177  C181  S    
C202  H70   S    
C37   C41   A    
C19   C175  S    
C108  C132  A    
C73   I13   S    
C149  I25   S    
C218  H116  S    
C127  O99   S    
O83   C219  S    
O2    Zn1   S    
C47   O27   A    
C187  H23   S    
C144  O87   S    
C195  H48   S    
O101  C237  S    
C228  H148  S    
C234  H164  S    
C26   O54   S    
C89   I19   S    
C218  H117  S    
O97   C233  S    
C230  H152  S    
C140  O92   S    
C58   C62   A    
C186  H22   S    
C205  H77   S    
C155  C157  A    
C226  H141  S    
O18   Zn3   S    
C130  C135  A    
C5    H1    S    
C80   C84   A    
C1    O1    A    
C157  C167  A    
O65   C201  S    
C101  O11   A    
O98   C234  S    
C212  H98   S    
C178  I6    S    
C54   C58   A    
O54   C190  S    
C216  H111  S    
C213  H101  S    
C229  H150  S    
C88   I18   S    
C116  O80   S    
C224  H136  S    
O80   C216  S    
C90   O52   S    
C189  H29   S    
C193  H42   S    
C98   C162  S    
O48   Zn12  S    
C127  I31   S    
C240  H183  S    
C15   C183  S    
C237  H174  S    
O67   C203  S    
C69   C73   A    
C8    C12   S    
O45   Zn9   S    
C229  H151  S    
C62   C82   A    
O103  C239  S    
C18   C22   T    
C111  I24   S    
C210  H94   S    
C151  I27   S    
C29   I9    S    
C126  O98   S    
C5    C181  S    
C223  H131  S    
C191  H36   S    
O62   C198  S    
C127  C175  S    
C87   C173  S    
C128  C176  S    
C237  H175  S    
O38   Zn5   S    
C76   C80   A    
O72   C208  S    
C144  C146  A    
C138  C142  A    
C208  H88   S    
C97   O46   A    
C53   C57   A    
C205  H79   S    
C206  H81   S    
C115  O79   S    
C56   C60   A    
C115  C119  A    
C63   C83   A    
C239  H179  S    
C211  H96   S    
C35   C39   A    
C222  H128  S    
C72   O68   S    
C96   O43   A    
C236  H170  S    
C215  H108  S    
C44   C56   A    
O29   Zn5   S    
C198  H56   S    
C187  H25   S    
C39   O63   S    
C166  C184  S    
O36   Zn8   S    
C225  H138  S    
C108  O76   S    
C76   I16   S    
C117  O81   S    
C87   O49   S    
C231  H156  S    
C22   C46   S    
C6    C182  S    
C221  H126  S    
C238  H177  S    
C163  I33   S    
C226  H142  S    
C233  H162  S    
C82   O70   S    
C89   C175  S    
C32   C36   A    
C190  H32   S    
C235  H167  S    
C33   C37   A    
C137  C141  A    
C93   C171  S    
O13   Zn9   S    
C85   O30   A    
C140  C144  A    
C104  O15   A    
C207  H83   S    
O30   Zn6   S    
C6    C10   S    
C124  C134  A    
C221  H127  S    
C11   C175  S    
O70   C206  S    
C193  H41   S    
C86   O32   A    
C146  O94   S    
C79   C83   A    
O31   Zn7   S    
C102  O12   A    
O57   C193  S    
O1    Zn1   S    
C100  O10   A    
C203  H72   S    
C25   C49   A    
C164  C182  S    
C95   O42   A    
O35   Zn7   S    
C194  H44   S    
C108  C112  A    
O84   C220  S    
C3    O19   A    
C192  H38   S    
C74   C78   A    
O39   Zn8   S    
O50   C186  S    
C1    O17   A    
C94   O40   A    
C223  H133  S    
C145  C149  A    
C97   C161  S    
C235  H168  S    
O27   Zn4   S    
O28   Zn4   S    
C17   C21   T    
O63   C199  S    
C230  H153  S    
C217  H113  S    
C234  H165  S    
C196  H50   S    
O32   Zn8   S    
C35   O59   S    
C72   C76   A    
C125  C173  S    
O71   C207  S    
C8    O104  S    
O5    Zn9   S    
C93   O35   A    
C7    C11   S    
O93   C229  S    
C49   C65   A    
C239  H181  S    
O100  C236  S    
C93   O39   A    
C38   C42   A    
C236  H172  S    
C120  O84   S    
C197  H54   S    
C4    O4    A    
C163  H9    S    
C143  C145  A    
O49   C185  S    
C159  C168  A    
C117  C121  A    
C70   C74   A    
C28   O56   S    
O78   C214  S    
C20   C24   T    
O96   C232  S    
C209  H91   S    
C141  O86   S    
C165  I35   S    
C226  H140  S    
C199  H61   S    
C77   C81   A    
C232  H158  S    
C103  O13   A    
C189  H30   S    
C212  H100  S    
O33   Zn5   S    
O4    Zn2   S    
C8    C184  S    
O82   C218  S    
C194  H46   S    
C156  C162  A    
C200  H63   S    
C123  C129  A    
C128  C166  S    
C54   C100  S    
C125  C163  S    
C90   I20   S    
C121  C131  A    
C207  H85   S    
C126  C164  S    
C10   H14   S    
C7    O103  S    
C190  H34   S    
C179  C183  S    
C220  H123  S    
C147  O95   S    
C63   C67   A    
C15   C171  T    
C142  C148  A    
C36   C40   A    
C107  C131  A    
C222  H130  S    
O87   C223  S    
O55   C191  S    
C100  O6    A    
C39   C43   A    
C188  H26   S    
C36   O60   S    
C25   O53   S    
C69   O65   S    
C180  I8    S    
C122  C133  A    
C154  C160  A    
O58   C194  S    
O46   Zn10  S    
C16   C172  T    
O75   C211  S    
C40   C44   A    
C192  H40   S    
C198  H58   S    
O85   C221  S    
C46   O26   A    
C202  H69   S    
C199  H59   S    
C166  I36   S    
C30   I10   S    
C114  C118  A    
C85   C135  S    
C119  O83   S    
C145  O93   S    
O56   C192  S    
C198  H57   S    
O51   C187  S    
C199  H60   S    
C201  H65   S    
C201  H66   S    
C228  H147  S    
O42   Zn6   S    
C196  H52   S    
C75   C79   A    
O16   Zn12  S    
C34   O58   S    
C153  C159  A    
C204  H74   S    
C106  C110  A    
C88   O50   S    
C186  H21   S    
O40   Zn7   S    
C205  H78   S    
C34   C38   A    
C3    C67   S    
O21   Zn1   S    
C179  I7    S    
C52   C68   A    
O47   Zn11  S    
C215  H109  S    
C201  H67   S    
O17   Zn3   S    
C55   C101  S    
C219  H120  S    
C211  H95   S    
C57   C69   A    
C103  C133  S    
C98   O47   A    
C71   C75   A    
C28   C52   A    
C94   O36   A    
C216  H110  S    
C213  H102  S    
C92   O34   A    
C227  H143  S    
C224  H135  S    
C31   C35   A    
C89   C179  S    
O66   C202  S    
C74   I14   S    
C232  H160  S    
C185  H17   S    
C109  C115  A    
O79   C215  S    
O22   Zn1   S    
C212  H99   S    
C240  H182  S    
C150  C154  A    
O11   Zn12  S    
C143  O88   S    
O14   Zn10  S    
C204  H75   S    
C8    H4    S    
C120  C124  A    
C59   C71   A    
C213  H103  S    
