data_mof_unit_8732.cif
_audit_creation_date              2012-12-11T16:17:51-0500
_audit_creation_method            fapswitch 2.2
_symmetry_space_group_name_H-M    P1
_symmetry_Int_Tables_number       1
_space_group_crystal_system       triclinic
_cell_length_a                    14.017554
_cell_length_b                    14.0385
_cell_length_c                    30.023862
_cell_angle_alpha                 96.942287
_cell_angle_beta                  96.633069
_cell_angle_gamma                 61.441493
_cell_volume                      5140.04710896

loop_
_atom_site_label
_atom_site_type_symbol
_atom_type_description
_atom_site_fract_x
_atom_site_fract_y
_atom_site_fract_z
_atom_type_partial_charge
C1    C     C_R   0.386385 0.711002 0.442136 0.541272
C2    C     C_R   0.396026 0.242394 0.221636 0.127661
C3    C     C_R   0.405379 0.247923 0.268851 0.110801
C4    C     C_R   0.332553 0.342390 0.293231 0.002814
C5    C     C_R   0.315338 0.331861 0.199163 0.076864
C6    C     C_1   0.302285 0.321734 0.150923 0.015663
C7    C     C_1   0.346569 0.353031 0.341302 -0.063635
C8    C     C_1   0.290816 0.304128 0.111066 0.004559
C9    C     C_R   0.778260 0.362030 0.402099 -0.038425
C10   C     C_R   0.786403 0.266613 0.376449 0.039103
C11   C     C_R   0.781865 0.263075 0.329118 0.100984
C12   C     C_R   0.398928 0.381007 0.426587 0.548124
C13   C     C_R   0.785029 0.346031 0.308348 0.016676
C14   C     C_R   0.801294 0.427748 0.334622 0.103023
C15   C     C_R   0.806327 0.431105 0.381926 0.041703
C16   C     C_R   0.784834 0.416090 0.150848 0.126527
C17   C     C_R   0.824193 0.401291 0.107605 0.110300
C18   C     C_R   0.900422 0.205259 0.109620 -0.170935
C19   C     C_R   0.862266 0.219852 0.151915 -0.158906
C20   C     C_R   0.808385 0.323960 0.173177 0.048795
C21   C     C_1   0.791193 0.333904 0.220139 0.003099
C22   C     C_1   0.784811 0.340302 0.260084 -0.028581
C23   C     C_R   0.714403 0.403407 0.443259 0.526276
C24   C     C_R   0.886587 0.294626 0.087908 0.034115
C25   C     C_R   0.368512 0.766760 0.400758 -0.004534
C26   C     C_R   0.442042 0.801215 0.389270 0.087078
C27   C     C_R   0.441285 0.824225 0.344637 0.058687
C28   C     C_R   0.364418 0.812833 0.312061 0.030831
C29   C     C_R   0.281664 0.793142 0.324924 0.004548
C30   C     C_R   0.285259 0.770503 0.369339 -0.133777
C31   C     C_R   0.252990 0.844168 0.156397 -0.097450
C32   C     C_R   0.226444 0.874145 0.112244 0.086065
C33   C     C_R   0.409209 0.855695 0.109579 -0.010496
C34   C     C_R   0.389232 0.712053 0.568105 0.544843
C35   C     C_R   0.431924 0.827354 0.154306 -0.115733
C36   C     C_R   0.352432 0.826655 0.177787 0.001044
C37   C     C_1   0.367060 0.817302 0.225035 -0.042508
C38   C     C_1   0.370058 0.814828 0.264907 -0.027657
C39   C     C_R   0.301425 0.889233 0.089375 0.056318
C40   C     C_R   0.366720 0.365279 0.593690 -0.016920
C41   C     C_R   0.437306 0.275301 0.617960 -0.126229
C42   C     C_R   0.420039 0.272212 0.662500 0.096377
C43   C     C_R   0.330152 0.358980 0.682744 0.091106
C44   C     C_R   0.252347 0.444732 0.657401 -0.004498
C45   C     C_R   0.402223 0.383360 0.552634 0.542161
C46   C     C_R   0.271884 0.447085 0.612888 -0.132163
C47   C     C_R   0.225422 0.419083 0.837966 -0.135251
C48   C     C_R   0.213656 0.396368 0.880189 -0.138007
C49   C     C_R   0.399829 0.251018 0.882483 -0.107254
C50   C     C_R   0.412905 0.273991 0.840150 0.033803
C51   C     C_R   0.322610 0.355172 0.817054 0.045286
C52   C     C_1   0.322724 0.362549 0.770028 -0.029394
C53   C     C_1   0.324112 0.362772 0.730253 0.010569
C54   C     C_R   0.298811 0.308263 0.901644 0.005503
C55   C     C_1   0.764867 0.375332 0.611811 -0.024727
C56   C     C_R   0.713607 0.407419 0.568278 0.542867
C57   C     C_R   0.814380 0.429236 0.728488 0.045085
C58   C     C_R   0.827960 0.415555 0.775426 0.035619
C59   C     C_R   0.865546 0.225329 0.758658 0.018131
C60   C     C_R   0.848875 0.241203 0.712742 -0.118279
C61   C     C_R   0.823512 0.341239 0.697627 0.015645
C62   C     C_R   0.854006 0.312886 0.790167 0.042503
C63   C     C_1   0.878597 0.295235 0.837544 -0.065363
C64   C     C_1   0.796645 0.355743 0.650263 -0.065929
C65   C     C_1   0.906443 0.282647 0.876779 -0.027744
C66   C     C_1   0.373692 0.760382 0.613167 -0.022662
C67   C     C_1   0.365978 0.363569 0.381020 -0.019461
C68   C     C_R   0.264563 0.803099 0.718516 0.113810
C69   C     C_R   0.256333 0.818533 0.765372 0.126644
C70   C     C_R   0.415311 0.848941 0.774755 0.080562
C71   C     C_R   0.421269 0.836047 0.727893 -0.128428
C72   C     C_R   0.346996 0.812907 0.699881 0.003750
C73   C     C_R   0.331518 0.841644 0.793383 0.073186
C74   C     C_1   0.315652 0.868628 0.840752 0.014253
C75   C     C_1   0.361465 0.789290 0.652414 -0.065145
C76   C     C_1   0.295545 0.899879 0.879328 0.002136
C77   C     C_R   0.949371 0.273538 0.048077 0.566415
C78   C     C_R   0.252466 0.430948 0.270753 -0.121269
C79   C     C_R   0.275272 0.270368 0.065327 0.543213
C80   C     C_R   0.261338 0.952222 0.048617 0.551604
C81   C     C_R   0.952455 0.269066 0.922091 0.545692
C82   C     C_R   0.277090 0.266959 0.939955 0.542453
C83   C     C_R   0.262100 0.950167 0.923064 0.535860
C84   C     C_R   0.242891 0.426454 0.223618 0.082011
Cr1   Cr    Cr6+3 0.581000 0.584320 0.508140 1.002721
Cr2   Cr    Cr6+3 0.339110 0.576430 0.496080 1.011552
Cr3   Cr    Cr6+3 0.579910 0.339270 0.495810 1.008485
Cr4   Cr    Cr6+3 0.082090 0.079210 0.982490 1.031717
Cr5   Cr    Cr6+3 0.082460 0.324610 0.994920 1.030440
Cr6   Cr    Cr6+3 0.323630 0.087860 0.996130 1.011440
H1    H     H_    0.198017 0.503759 0.289990 0.109389
H2    H     H_    0.880295 0.149022 0.169178 0.116905
H3    H     H_    0.947263 0.122916 0.095245 0.165768
H4    H     H_    0.193736 0.839123 0.174933 0.105505
H5    H     H_    0.227385 0.748013 0.379080 0.146834
H6    H     H_    0.510684 0.808665 0.171408 0.106869
H7    H     H_    0.135286 0.442921 0.894481 0.131092
H8    H     H_    0.156344 0.482146 0.820411 0.107137
H9    H     H_    0.216008 0.515972 0.594056 0.128129
H10   H     H_    0.510291 0.210758 0.603627 0.133484
H11   H     H_    0.466915 0.184428 0.899222 0.130841
H12   H     H_    0.854456 0.175244 0.688437 0.110488
H13   H     H_    0.484762 0.842641 0.713237 0.108587
O1    O     O_R   0.688580 0.499770 0.460490 -0.527309
O2    O     O_R   0.348600 0.476260 0.536540 -0.502025
O3    O     O_R   0.494840 0.313840 0.539010 -0.516358
O4    O     O_R   0.672120 0.351750 0.545910 -0.496185
O5    O     O_3   0.500010 0.500010 0.500010 -0.232844
O6    O     O_R   0.167510 0.972920 0.030390 -0.480418
O7    O     O_R   0.990840 0.178580 0.027590 -0.507161
O8    O     O_R   0.972840 0.345510 0.038590 -0.472014
O9    O     O_R   0.181550 0.320660 0.045200 -0.495888
O10   O     O_R   0.346150 0.177650 0.050510 -0.508446
O11   O     O_R   0.314200 0.996600 0.036060 -0.513389
O12   O     O_R   0.480400 0.672610 0.462660 -0.499602
O13   O     O_R   0.168690 0.969990 0.933130 -0.504826
O14   O     O_R   0.991920 0.175870 0.937430 -0.493188
O15   O     O_R   0.974010 0.342590 0.941330 -0.512027
O16   O     O_R   0.182630 0.317940 0.955040 -0.503537
O17   O     O_R   0.347320 0.174720 0.953250 -0.513559
O18   O     O_R   0.315290 0.993890 0.945900 -0.496393
O19   O     O_3   0.162730 0.163890 0.991180 -0.245859
O20   O     O_R   0.315310 0.685650 0.451800 -0.520805
O21   O     O_R   0.346220 0.474990 0.446280 -0.495752
O22   O     O_R   0.492270 0.312460 0.441630 -0.510988
O23   O     O_R   0.669740 0.350480 0.455640 -0.502688
O24   O     O_R   0.691150 0.501150 0.557860 -0.511919
O25   O     O_R   0.482790 0.673890 0.552920 -0.494832
O26   O     O_R   0.317880 0.687030 0.549170 -0.511760
N1    N     N_3   0.771374 0.176051 0.302447 -0.649217
H14   H     H_    0.836873 0.135967 0.281890 0.225892
H15   H     H_    0.699492 0.209573 0.281812 0.238137
N2    N     N_3   0.121527 0.893582 0.091526 -0.608007
H16   H     H_    0.072084 0.892514 0.114814 0.210597
H17   H     H_    0.134336 0.828882 0.067502 0.236883
C85   C     C_3   0.194179 0.790905 0.289818 -0.268860
C86   C     C_3   0.103001 0.777897 0.307256 -0.456500
H18   H     H_    0.135766 0.696939 0.320623 0.144455
H19   H     H_    0.061404 0.843277 0.333719 0.149500
H20   H     H_    0.041973 0.783852 0.279139 0.138122
H21   H     H_    0.155180 0.868436 0.273064 0.145624
H22   H     H_    0.233907 0.723329 0.263807 0.160998
N3    N     N_3   0.519526 0.812502 0.422350 -0.659329
H23   H     H_    0.481110 0.853008 0.451848 0.237496
H24   H     H_    0.583518 0.735615 0.428750 0.258089
C87   C     C_3   0.502311 0.847716 0.085251 -0.266111
C88   C     C_3   0.527753 0.765747 0.044201 -0.429789
H25   H     H_    0.542331 0.685920 0.054071 0.145273
H26   H     H_    0.459920 0.794100 0.017840 0.161219
H27   H     H_    0.602057 0.754782 0.029711 0.138349
H28   H     H_    0.485757 0.928338 0.075784 0.186445
H29   H     H_    0.577934 0.819765 0.107811 0.124204
N4    N     N_3   0.160337 0.517284 0.200436 -0.632127
H30   H     H_    0.103436 0.494064 0.184535 0.233056
H31   H     H_    0.118512 0.583140 0.223375 0.221768
C89   C     C_3   0.528174 0.855388 0.335481 -0.254645
C90   C     C_3   0.528465 0.889888 0.289178 -0.451827
H32   H     H_    0.554952 0.819129 0.263894 0.158075
H33   H     H_    0.447511 0.956795 0.279038 0.168281
H34   H     H_    0.588646 0.920566 0.290621 0.156222
H35   H     H_    0.520018 0.924853 0.359789 0.172011
H36   H     H_    0.609773 0.785910 0.342963 0.165658
C91   C     C_3   0.152076 0.537115 0.677816 -0.278512
C92   C     C_3   0.069060 0.500219 0.685104 -0.439467
H37   H     H_    0.044097 0.468568 0.652657 0.157310
H38   H     H_    0.103075 0.435916 0.709188 0.158883
H39   H     H_    0.995883 0.570460 0.699059 0.127419
H40   H     H_    0.175516 0.570036 0.710304 0.154771
H41   H     H_    0.111888 0.605368 0.655504 0.147208
C93   C     C_3   0.521232 0.206444 0.819514 -0.280553
C94   C     C_3   0.533690 0.095849 0.800179 -0.422040
H42   H     H_    0.532379 0.049577 0.827381 0.172321
H43   H     H_    0.466740 0.106095 0.774303 0.191767
H44   H     H_    0.612484 0.048584 0.784301 0.131379
H45   H     H_    0.530311 0.248506 0.792507 0.166250
H46   H     H_    0.588297 0.194646 0.845562 0.130086
N5    N     N_3   0.497206 0.183616 0.688007 -0.650718
H47   H     H_    0.573401 0.180263 0.688202 0.223546
H48   H     H_    0.502460 0.111476 0.671474 0.225993
C95   C     C_3   0.790230 0.536206 0.710696 -0.275891
C96   C     C_3   0.667968 0.608975 0.702717 -0.428373
H49   H     H_    0.631742 0.568412 0.677666 0.171866
H50   H     H_    0.626968 0.628719 0.734563 0.150334
H51   H     H_    0.653408 0.685699 0.689571 0.132640
H52   H     H_    0.825916 0.580700 0.733528 0.132828
H53   H     H_    0.829600 0.520857 0.678673 0.148042
N6    N     N_3   0.468040 0.145784 0.196200 -0.625285
H54   H     H_    0.459562 0.080538 0.205054 0.245322
H55   H     H_    0.548007 0.130838 0.205306 0.246966
C97   C     C_3   0.816203 0.508799 0.810025 -0.271575
C98   C     C_3   0.926112 0.505739 0.823188 -0.437722
H56   H     H_    0.983458 0.428837 0.838651 0.169103
H57   H     H_    0.962031 0.511862 0.793271 0.139013
H58   H     H_    0.915318 0.574975 0.847988 0.135883
H59   H     H_    0.757313 0.589072 0.797772 0.134978
H60   H     H_    0.781106 0.504895 0.840660 0.148546
C99   C     C_3   0.895782 0.114042 0.773066 -0.270216
C100  C     C_3   0.798024 0.112578 0.789988 -0.439286
H61   H     H_    0.768380 0.170602 0.819961 0.156890
H62   H     H_    0.731102 0.134706 0.763122 0.151957
H63   H     H_    0.821824 0.029718 0.799481 0.138634
H64   H     H_    0.925691 0.051417 0.744413 0.133940
H65   H     H_    0.963523 0.089652 0.799625 0.162553
N7    N     N_3   0.188765 0.777323 0.690418 -0.661084
H66   H     H_    0.147966 0.837059 0.667518 0.234830
H67   H     H_    0.232621 0.702751 0.672332 0.234759
N8    N     N_3   0.171363 0.811292 0.784778 -0.628023
H68   H     H_    0.178687 0.733912 0.775662 0.242851
H69   H     H_    0.096512 0.868615 0.770981 0.240335
N9    N     N_3   0.493377 0.870200 0.803557 -0.641735
H70   H     H_    0.549073 0.873934 0.784399 0.215733
H71   H     H_    0.538309 0.803405 0.822834 0.222541
N10   N     N_3   0.489826 0.157524 0.291460 -0.656586
H72   H     H_    0.453693 0.132176 0.312732 0.231606
H73   H     H_    0.540199 0.184068 0.311311 0.245830
N11   N     N_3   0.802788 0.492682 0.083669 -0.613682
H74   H     H_    0.718645 0.541800 0.079563 0.217599
H75   H     H_    0.838077 0.536975 0.102394 0.233229
N12   N     N_3   0.725082 0.522269 0.173495 -0.643024
H76   H     H_    0.645171 0.536356 0.174951 0.231272
H77   H     H_    0.720640 0.584322 0.156111 0.219879
N13   N     N_3   0.810128 0.509633 0.313611 -0.646291
H78   H     H_    0.738748 0.551141 0.293490 0.246162
H79   H     H_    0.875408 0.471378 0.292896 0.238285
C101  C     C_3   0.846465 0.504560 0.409961 -0.234097
C102  C     C_3   0.964904 0.470456 0.402117 -0.434092
H80   H     H_    0.017470 0.383277 0.408188 0.147815
H81   H     H_    0.973789 0.483614 0.367512 0.181076
H82   H     H_    0.993882 0.519740 0.425839 0.129100
H83   H     H_    0.793385 0.590505 0.402096 0.165206
H84   H     H_    0.846312 0.499929 0.446469 0.159718
C103  C     C_3   0.805445 0.166481 0.398743 -0.226717
C104  C     C_3   0.916682 0.069704 0.389141 -0.439901
H85   H     H_    0.921478 0.040886 0.353059 0.179275
H86   H     H_    0.982261 0.092466 0.399498 0.149109
H87   H     H_    0.930935 0.001079 0.408579 0.127662
H88   H     H_    0.806618 0.179924 0.435827 0.151963
H89   H     H_    0.739760 0.144594 0.387061 0.172403

loop_
_geom_bond_atom_site_label_1
_geom_bond_atom_site_label_2
_ccdc_geom_bond_type
C58   C62   A    
C103  H89   S    
C94   H42   S    
C63   C65   T    
C97   C98   S    
C68   N7    S    
C41   C42   A    
N1    H15   S    
C35   C36   A    
C82   O17   A    
C46   H9    S    
C34   C66   S    
C1    O20   A    
N2    H16   S    
C99   H65   S    
C93   H46   S    
N10   H72   S    
C45   O3    A    
C40   C46   A    
C48   H7    S    
C94   H43   S    
Cr5   O9    S    
C26   C27   A    
C33   C39   A    
C47   H8    S    
C74   C76   T    
C79   O9    A    
C15   C101  S    
C18   C24   A    
C28   C29   A    
C88   H26   S    
N11   H75   S    
C4    C7    S    
C49   H11   S    
C5    C6    S    
C31   C32   A    
C32   C39   A    
Cr5   O19   S    
C42   N5    S    
C16   C20   A    
N3    H23   S    
C81   O14   A    
C27   C89   S    
C16   N12   S    
C18   C19   A    
C73   C74   S    
C56   O24   A    
C77   O8    A    
C102  H82   S    
C2    N6    S    
C85   H22   S    
C19   H2    S    
C96   H49   S    
C43   C53   S    
C90   H32   S    
Cr3   O5    S    
C88   H25   S    
C34   O26   A    
C44   C46   A    
C16   C17   A    
N5    H48   S    
C80   O6    A    
C58   C97   S    
C8    C79   S    
C33   C87   S    
C69   C73   A    
C100  H61   S    
C44   C91   S    
N4    H31   S    
Cr1   O5    S    
C104  H85   S    
C97   H60   S    
Cr4   O7    S    
C96   H50   S    
C89   H36   S    
C59   C60   A    
C90   H33   S    
C49   C54   A    
C21   C22   T    
C1    C25   S    
Cr6   O19   S    
N13   H78   S    
C82   O16   A    
Cr6   O10   S    
C72   C75   S    
C60   H12   S    
C76   C83   S    
C86   H20   S    
C45   O2    A    
C101  C102  S    
C93   H45   S    
N10   H73   S    
N4    H30   S    
C40   C45   S    
C94   H44   S    
Cr2   O5    S    
C69   N8    S    
C17   C24   A    
C102  H80   S    
C98   H56   S    
Cr5   O16   S    
Cr1   O12   S    
C88   H27   S    
N11   H74   S    
Cr4   O19   S    
C10   C11   A    
N12   H76   S    
C5    C84   A    
C68   C69   A    
C47   C51   A    
C12   C67   S    
C25   C26   A    
C35   H6    S    
C70   C73   A    
C7    C67   T    
C81   O15   A    
C83   O18   A    
N8    H68   S    
C60   C61   A    
C89   C90   S    
Cr4   O13   S    
C61   C64   S    
C48   C54   A    
C43   C44   A    
C98   H57   S    
C56   O4    A    
C4    C78   A    
C37   C38   T    
N12   H77   S    
C86   H19   S    
C84   N4    S    
C65   C81   S    
C47   C48   A    
C12   O21   A    
C28   C38   S    
C68   C72   A    
C55   C64   T    
C55   C56   S    
C10   C103  S    
C50   C51   A    
C41   H10   S    
Cr3   O4    S    
C99   H64   S    
C50   C93   S    
C101  H84   S    
C20   C21   S    
N13   H79   S    
C104  H86   S    
C70   C71   A    
Cr1   O1    S    
C95   H53   S    
C97   H59   S    
N5    H47   S    
C23   O23   A    
C87   H29   S    
Cr4   O6    S    
C34   O25   A    
C40   C41   A    
C80   O11   A    
C89   H35   S    
N9    H70   S    
C90   H34   S    
N9    H71   S    
C79   O10   A    
Cr2   O21   S    
C103  H88   S    
C70   N9    S    
Cr6   O18   S    
Cr1   O24   S    
C2    C5    A    
C42   C43   A    
C26   N3    S    
C17   N11   S    
C11   N1    S    
C54   C82   S    
C52   C53   T    
N2    H17   S    
C87   C88   S    
C9    C10   A    
C96   H51   S    
C25   C30   A    
N3    H24   S    
C71   H13   S    
C92   H37   S    
C59   C62   A    
Cr3   O22   S    
C31   C36   A    
C83   O13   A    
C14   N13   S    
C92   H39   S    
C9    C23   S    
N7    H67   S    
C85   C86   S    
C57   C95   S    
C6    C8    T    
Cr2   O26   S    
C57   C61   A    
C12   O22   A    
C30   H5    S    
C78   H1    S    
C3    N10   S    
C31   H4    S    
C86   H18   S    
Cr5   O8    S    
C102  H81   S    
C101  H83   S    
C39   C80   S    
C19   C20   A    
C92   H38   S    
N1    H14   S    
Cr4   O14   S    
C98   H58   S    
C91   H40   S    
C51   C52   S    
C11   C13   A    
C57   C58   A    
C32   N2    S    
Cr3   O3    S    
C59   C99   S    
C66   C75   T    
C103  C104  S    
C33   C35   A    
C85   H21   S    
C13   C22   S    
C2    C3    A    
C100  H63   S    
Cr6   O11   S    
C23   O1    A    
C9    C15   A    
C99   C100  S    
C91   H41   S    
C104  H87   S    
Cr5   O15   S    
N6    H55   S    
C91   C92   S    
C95   H52   S    
C29   C30   A    
C87   H28   S    
Cr2   O2    S    
C78   C84   A    
C24   C77   S    
N6    H54   S    
C29   C85   S    
C71   C72   A    
N7    H66   S    
C36   C37   S    
C49   C50   A    
C93   C94   S    
Cr2   O20   S    
N8    H69   S    
C18   H3    S    
C14   C15   A    
Cr1   O25   S    
C100  H62   S    
C1    O12   A    
C62   C63   S    
C13   C14   A    
C77   O7    A    
Cr3   O23   S    
C95   C96   S    
C3    C4    A    
Cr6   O17   S    
C27   C28   A    
