data_mof_unit_50473.cif
_audit_creation_date              2013-03-05T15:50:11-0500
_audit_creation_method            fapswitch 2.2
_symmetry_space_group_name_H-M    P1
_symmetry_Int_Tables_number       1
_space_group_crystal_system       triclinic
_cell_length_a                    18.377831
_cell_length_b                    26.073891
_cell_length_c                    18.226362
_cell_angle_alpha                 90.197719
_cell_angle_beta                  89.919599
_cell_angle_gamma                 89.508464
_cell_volume                      8733.3542618

loop_
_atom_site_label
_atom_site_type_symbol
_atom_site_description
_atom_site_fract_x
_atom_site_fract_y
_atom_site_fract_z
_atom_type_partial_charge
Zn1   Zn    Zn3+2 0.249990 0.293780 0.913250 1.097362
Zn2   Zn    Zn3+2 0.249990 0.706220 0.086750 1.073315
Zn3   Zn    Zn3+2 0.249990 0.706220 0.913250 1.107831
Zn4   Zn    Zn3+2 0.249990 0.293780 0.086750 1.094345
Zn5   Zn    Zn3+2 0.749990 0.793780 0.413250 1.087334
Zn6   Zn    Zn3+2 0.749990 0.206220 0.586750 1.078806
Zn7   Zn    Zn3+2 0.749990 0.206220 0.413250 1.105255
Zn8   Zn    Zn3+2 0.749990 0.793780 0.586750 1.118189
Zn9   Zn    Zn3+2 0.336760 0.206240 0.000000 0.976202
Zn10  Zn    Zn3+2 0.336760 0.793760 0.000000 0.973288
Zn11  Zn    Zn3+2 0.836760 0.706240 0.500000 0.997984
Zn12  Zn    Zn3+2 0.836760 0.293760 0.500000 0.959597
Zn13  Zn    Zn3+2 0.163250 0.206230 0.000000 1.043572
Zn14  Zn    Zn3+2 0.163250 0.793770 0.000000 1.073496
Zn15  Zn    Zn3+2 0.663250 0.706230 0.500000 1.021631
Zn16  Zn    Zn3+2 0.663250 0.293770 0.500000 1.035465
O1    O     O_3   0.249990 0.250010 0.000000 -0.512122
O2    O     O_3   0.249990 0.749990 0.000000 -0.504433
O3    O     O_3   0.749990 0.750010 0.500000 -0.512005
O4    O     O_3   0.749990 0.249990 0.500000 -0.511679
O5    O     O_R   0.335430 0.280650 0.146160 -0.572530
O6    O     O_R   0.335430 0.719350 0.853840 -0.575944
O7    O     O_R   0.335430 0.719350 0.146160 -0.590083
O8    O     O_R   0.335430 0.280650 0.853840 -0.597015
O9    O     O_R   0.835430 0.780650 0.646160 -0.579350
O10   O     O_R   0.835430 0.219350 0.353840 -0.573241
O11   O     O_R   0.835430 0.219350 0.646160 -0.597168
O12   O     O_R   0.835430 0.780650 0.353840 -0.603598
O13   O     O_R   0.164550 0.280640 0.853840 -0.597496
O14   O     O_R   0.164550 0.719360 0.146160 -0.624438
O15   O     O_R   0.164550 0.719360 0.853840 -0.578207
O16   O     O_R   0.164550 0.280640 0.146160 -0.590766
O17   O     O_R   0.664550 0.780640 0.353840 -0.621567
O18   O     O_R   0.664550 0.219360 0.646160 -0.594917
O19   O     O_R   0.664550 0.219360 0.353840 -0.577750
O20   O     O_R   0.664550 0.780640 0.646160 -0.591221
O21   O     O_R   0.396160 0.219380 0.914560 -0.677444
O22   O     O_R   0.396160 0.780620 0.085440 -0.667879
O23   O     O_R   0.396160 0.780620 0.914560 -0.664119
O24   O     O_R   0.396160 0.219380 0.085440 -0.663500
O25   O     O_R   0.896160 0.719380 0.414560 -0.631547
O26   O     O_R   0.896160 0.280620 0.585440 -0.681390
O27   O     O_R   0.896160 0.280620 0.414560 -0.657184
O28   O     O_R   0.896160 0.719380 0.585440 -0.641029
O29   O     O_R   0.103840 0.219370 0.085450 -0.634388
O30   O     O_R   0.103840 0.780630 0.914550 -0.612780
O31   O     O_R   0.103840 0.780630 0.085450 -0.562816
O32   O     O_R   0.103840 0.219370 0.914550 -0.614430
O33   O     O_R   0.603840 0.719370 0.585450 -0.612492
O34   O     O_R   0.603840 0.280630 0.414550 -0.629381
O35   O     O_R   0.603840 0.280630 0.585450 -0.615274
O36   O     O_R   0.603840 0.719370 0.414550 -0.619400
O37   O     O_R   0.310730 0.133160 0.000000 -0.643311
O38   O     O_R   0.310730 0.866840 0.000000 -0.660154
O39   O     O_R   0.810730 0.633160 0.500000 -0.634473
O40   O     O_R   0.810730 0.366840 0.500000 -0.657780
O41   O     O_R   0.249970 0.366860 0.060720 -0.589655
O42   O     O_R   0.249970 0.633140 0.939280 -0.567605
O43   O     O_R   0.249970 0.633140 0.060720 -0.599818
O44   O     O_R   0.249970 0.366860 0.939280 -0.584991
O45   O     O_R   0.749970 0.866860 0.560720 -0.571846
O46   O     O_R   0.749970 0.133140 0.439280 -0.580596
O47   O     O_R   0.749970 0.133140 0.560720 -0.588126
O48   O     O_R   0.749970 0.866860 0.439280 -0.575311
O49   O     O_R   0.189290 0.133150 0.000000 -0.639007
O50   O     O_R   0.189290 0.866850 0.000000 -0.633676
O51   O     O_R   0.689290 0.633150 0.500000 -0.663607
O52   O     O_R   0.689290 0.366850 0.500000 -0.624517
C1    C     C_R   0.390290 0.250972 0.140166 0.820623
C2    C     C_R   0.388703 0.749952 0.858277 0.820657
C3    C     C_R   0.392662 0.747208 0.138541 0.855873
C4    C     C_R   0.389666 0.249650 0.859681 0.862249
C5    C     C_R   0.889712 0.750724 0.640836 0.863996
C6    C     C_R   0.888999 0.249792 0.358616 0.824401
C7    C     C_R   0.889881 0.249927 0.640201 0.837673
C8    C     C_R   0.891507 0.751251 0.362049 0.861532
C9    C     C_R   0.110968 0.249323 0.859405 0.931658
C10   C     C_R   0.108473 0.749272 0.138525 0.903904
C11   C     C_R   0.108888 0.747888 0.861618 0.952067
C12   C     C_R   0.109829 0.251342 0.139264 0.926898
C13   C     C_R   0.605951 0.754803 0.364640 0.876519
C14   C     C_R   0.610150 0.250181 0.640177 0.923065
C15   C     C_R   0.610142 0.249252 0.360333 0.923466
C16   C     C_R   0.608982 0.752250 0.638359 0.950927
C17   C     C_R   0.250213 0.109107 0.999704 0.871424
C18   C     C_R   0.249817 0.890918 0.000144 0.843440
C19   C     C_R   0.750368 0.608842 0.503796 0.833992
C20   C     C_R   0.749506 0.390662 0.500120 0.795556
C21   C     C_R   0.248580 0.391230 0.999742 0.965912
C22   C     C_R   0.250822 0.608645 0.000090 0.946845
C23   C     C_R   0.749645 0.891340 0.500183 0.980939
C24   C     C_R   0.748864 0.108767 0.499918 0.964674
C25   C     C_3   0.228154 0.469838 0.076799 -0.191856
C26   C     C_3   0.199826 0.531000 0.938161 -0.198235
C27   C     C_3   0.218337 0.529121 0.073870 -0.177713
C28   C     C_3   0.191334 0.471639 0.944974 -0.176123
C29   C     C_3   0.708601 0.971429 0.569626 -0.177490
C30   C     C_3   0.697198 0.029376 0.439297 -0.185979
C31   C     C_3   0.718789 0.030623 0.574689 -0.172465
C32   C     C_3   0.707780 0.970133 0.431886 -0.177770
H1    H     H_    0.173447 0.453766 0.089503 0.167729
H2    H     H_    0.145037 0.547859 0.949438 0.175930
H3    H     H_    0.158476 0.536100 0.069580 0.153970
H4    H     H_    0.138004 0.465625 0.972944 0.179807
H5    H     H_    0.649806 0.965664 0.557132 0.171562
H6    H     H_    0.641147 0.035064 0.461733 0.167161
H7    H     H_    0.663194 0.047260 0.580356 0.202460
H8    H     H_    0.652382 0.953286 0.434776 0.202917
C33   C     C_3   0.330131 0.467898 0.976634 0.371786
C34   C     C_3   0.332758 0.528725 0.986107 0.377131
C35   C     C_3   0.832918 0.969324 0.497823 0.387777
C36   C     C_3   0.831746 0.030269 0.489318 0.366244
C37   C     C_3   0.251148 0.448631 0.998609 -0.071232
C38   C     C_3   0.252594 0.550957 0.000089 -0.055772
C39   C     C_3   0.751591 0.948955 0.500456 -0.088107
C40   C     C_3   0.750865 0.051287 0.499924 -0.067422
C41   C     C_R   0.074080 0.340321 0.769877 0.328547
C42   C     C_R   0.965496 0.701620 0.119065 0.204481
C43   C     C_R   0.016370 0.653591 0.836983 0.208661
C44   C     C_R   0.014900 0.344876 0.160814 0.197960
C45   C     C_R   0.590218 0.838434 0.247814 0.321596
C46   C     C_R   0.591037 0.163366 0.746465 0.278441
C47   C     C_R   0.504961 0.162333 0.351084 0.190660
C48   C     C_R   0.522407 0.849523 0.670317 0.230523
C49   C     C_R   0.090278 0.372331 0.710403 0.121224
C50   C     C_R   0.914687 0.661379 0.119977 0.121611
C51   C     C_R   0.975267 0.610058 0.817081 0.127346
C52   C     C_R   0.977589 0.389996 0.182836 0.132611
C53   C     C_R   0.611749 0.858097 0.179554 0.113686
C54   C     C_R   0.612001 0.139339 0.812342 0.124184
C55   C     C_R   0.461422 0.119151 0.335817 0.123006
C56   C     C_R   0.486323 0.894394 0.695619 0.121226
C57   C     C_R   0.589843 0.832860 0.115411 -0.242236
C58   C     C_R   0.588798 0.160262 0.878927 -0.165307
C59   C     C_R   0.415595 0.119045 0.275432 -0.128355
C60   C     C_R   0.438381 0.892007 0.754103 -0.148190
C61   C     C_R   0.071429 0.356523 0.639577 -0.254483
C62   C     C_R   0.879301 0.649334 0.184840 -0.148027
C63   C     C_R   0.925495 0.612880 0.760323 -0.149892
C64   C     C_R   0.931302 0.389252 0.242995 -0.147982
C65   C     C_R   0.539553 0.793194 0.119309 -0.157845
C66   C     C_R   0.535912 0.198940 0.879339 -0.192860
C67   C     C_R   0.409816 0.161789 0.230956 -0.175911
C68   C     C_R   0.422719 0.845556 0.786424 -0.174217
C69   C     C_R   0.026875 0.313858 0.630420 -0.147689
C70   C     C_R   0.889851 0.679269 0.246876 -0.221134
C71   C     C_R   0.914810 0.658203 0.722712 -0.206724
C72   C     C_R   0.918829 0.343995 0.280291 -0.170489
C73   C     C_R   0.513363 0.776122 0.187871 0.030157
C74   C     C_R   0.510491 0.219880 0.812360 0.037954
C75   C     C_R   0.453428 0.205320 0.242893 0.054521
C76   C     C_R   0.458866 0.799907 0.764808 0.053588
C77   C     C_R   0.006177 0.284201 0.692093 0.037731
C78   C     C_R   0.942894 0.718423 0.247935 0.044846
C79   C     C_R   0.955985 0.702311 0.738865 0.048951
C80   C     C_R   0.956877 0.298456 0.261935 0.061654
C81   C     C_R   0.045996 0.291198 0.756070 -0.013390
C82   C     C_R   0.987921 0.724998 0.186518 -0.012703
C83   C     C_R   0.009705 0.700405 0.795130 0.021475
C84   C     C_R   0.009479 0.299164 0.204537 -0.000278
C85   C     C_R   0.550017 0.792613 0.251283 -0.024745
C86   C     C_R   0.552011 0.210416 0.749785 0.022119
C87   C     C_R   0.505173 0.205030 0.300912 0.000501
C88   C     C_R   0.512627 0.801537 0.708464 0.005232
C89   C     C_R   0.451794 0.743959 0.195255 -0.110637
C90   C     C_R   0.444956 0.248445 0.802503 -0.112002
C91   C     C_R   0.442860 0.250443 0.200991 -0.085594
C92   C     C_R   0.437528 0.752011 0.794014 -0.090113
C93   C     C_R   0.946408 0.249742 0.696566 -0.112240
C94   C     C_R   0.950451 0.751165 0.308869 -0.083971
C95   C     C_R   0.939829 0.749436 0.703842 -0.096421
C96   C     C_R   0.939171 0.251200 0.295550 -0.084038
C97   C     C_R   0.438615 0.720323 0.265089 -0.039018
C98   C     C_R   0.435644 0.277075 0.736741 -0.022167
C99   C     C_R   0.485415 0.294362 0.215694 -0.046834
C100  C     C_R   0.466643 0.706052 0.763292 -0.043656
C101  C     C_R   0.944346 0.214372 0.756295 -0.020196
C102  C     C_R   0.012262 0.783398 0.317297 -0.031935
C103  C     C_R   0.974178 0.795006 0.728137 -0.030769
C104  C     C_R   0.973446 0.205424 0.270525 -0.055391
C105  C     C_R   0.010150 0.205305 0.792771 -0.060170
C106  C     C_R   0.064845 0.785138 0.259002 -0.057999
C107  C     C_R   0.041629 0.790001 0.763208 -0.072494
C108  C     C_R   0.041649 0.209809 0.237161 -0.069614
C109  C     C_R   0.476527 0.737849 0.327623 -0.066496
C110  C     C_R   0.499120 0.288944 0.698491 -0.069696
C111  C     C_R   0.551219 0.287725 0.253387 -0.065950
C112  C     C_R   0.535260 0.708786 0.730112 -0.072031
C113  C     C_R   0.055899 0.248303 0.802187 -0.101020
C114  C     C_R   0.052788 0.753929 0.195137 -0.100548
C115  C     C_R   0.053770 0.745227 0.805152 -0.082779
C116  C     C_R   0.054129 0.254268 0.195219 -0.085669
C117  C     C_R   0.541219 0.765200 0.317137 -0.083442
C118  C     C_R   0.553816 0.250027 0.696389 -0.110655
C119  C     C_R   0.555200 0.246812 0.304094 -0.085481
C120  C     C_R   0.553146 0.755077 0.694365 -0.086790
C121  C     C_R   0.391338 0.678477 0.275960 0.314826
C122  C     C_R   0.369034 0.296749 0.708695 0.317290
C123  C     C_R   0.466508 0.344609 0.193493 0.297548
C124  C     C_R   0.432759 0.657241 0.764907 0.325912
C125  C     C_R   0.883248 0.185921 0.780121 0.316532
C126  C     C_R   0.024917 0.813147 0.382501 0.262058
C127  C     C_R   0.946124 0.845480 0.718723 0.327641
C128  C     C_R   0.944918 0.155388 0.277858 0.323663
C129  C     C_R   0.366800 0.665817 0.345967 -0.232188
C130  C     C_R   0.370164 0.339441 0.662519 -0.238010
C131  C     C_R   0.520655 0.381069 0.184342 -0.188536
C132  C     C_R   0.475401 0.612946 0.758092 -0.205621
C133  C     C_R   0.894499 0.139179 0.815802 -0.238603
C134  C     C_R   0.084399 0.845293 0.387059 -0.211181
C135  C     C_R   0.993593 0.886933 0.719719 -0.194019
C136  C     C_R   0.992622 0.113402 0.278094 -0.192231
C137  C     C_R   0.965349 0.121641 0.830242 0.082566
C138  C     C_R   0.134260 0.848813 0.330541 0.077702
C139  C     C_R   0.067499 0.879347 0.732861 0.077587
C140  C     C_R   0.067146 0.120500 0.268643 0.083824
C141  C     C_R   0.391192 0.692770 0.407216 0.071078
C142  C     C_R   0.436465 0.362491 0.644465 0.081187
C143  C     C_R   0.592394 0.369608 0.203175 0.096388
C144  C     C_R   0.550268 0.616320 0.747449 0.068209
C145  C     C_R   0.024020 0.155132 0.819806 0.299449
C146  C     C_R   0.126277 0.819139 0.266810 0.256692
C147  C     C_R   0.092115 0.831300 0.757278 0.245498
C148  C     C_R   0.092269 0.168321 0.244806 0.246127
C149  C     C_R   0.447347 0.728288 0.398478 0.314381
C150  C     C_R   0.501891 0.337353 0.663024 0.317245
C151  C     C_R   0.608249 0.323732 0.240271 0.240811
C152  C     C_R   0.580845 0.664022 0.730970 0.256248
H9    H     H_    0.608102 0.845818 0.062154 0.167211
H10   H     H_    0.607631 0.144166 0.930258 0.177422
H11   H     H_    0.381740 0.086089 0.264442 0.177080
H12   H     H_    0.409822 0.926303 0.772308 0.169610
H13   H     H_    0.086129 0.379465 0.592495 0.168424
H14   H     H_    0.839591 0.618873 0.185905 0.168834
H15   H     H_    0.893121 0.579724 0.746293 0.181705
H16   H     H_    0.901728 0.423676 0.258845 0.165693
H17   H     H_    0.522382 0.775665 0.068417 0.183169
H18   H     H_    0.517746 0.212767 0.932194 0.193846
H19   H     H_    0.369616 0.160301 0.187808 0.172874
H20   H     H_    0.379473 0.846111 0.826559 0.178126
H21   H     H_    0.012302 0.304098 0.574890 0.201786
H22   H     H_    0.856885 0.670602 0.294401 0.141035
H23   H     H_    0.871875 0.658273 0.682285 0.173854
H24   H     H_    0.877330 0.345232 0.322284 0.173697
H25   H     H_    0.848079 0.116792 0.832769 0.180796
H26   H     H_    0.092949 0.867935 0.436277 0.200037
H27   H     H_    0.972835 0.925608 0.713294 0.217188
H28   H     H_    0.971947 0.074866 0.282724 0.231602
H29   H     H_    0.330115 0.633872 0.352760 0.193439
H30   H     H_    0.319425 0.355077 0.641857 0.175298
H31   H     H_    0.506485 0.419477 0.166629 0.228034
H32   H     H_    0.450157 0.575586 0.759073 0.221119
C153  C     C_R   0.379153 0.043529 0.951566 0.046774
C154  C     C_R   0.383191 0.954186 0.036744 0.058399
C155  C     C_R   0.883878 0.540949 0.550155 0.037058
C156  C     C_R   0.837547 0.447754 0.610094 0.050792
C157  C     C_R   0.446227 0.018103 0.964385 0.064040
C158  C     C_R   0.448575 0.976095 0.012019 0.139255
C159  C     C_R   0.927065 0.515136 0.602945 0.049269
C160  C     C_R   0.900031 0.471609 0.637735 0.135007
C161  C     C_R   0.316002 0.974187 0.009828 -0.026650
C162  C     C_R   0.315279 0.024937 0.986152 0.034140
C163  C     C_R   0.799262 0.471161 0.550926 -0.011691
C164  C     C_R   0.812063 0.523049 0.535727 0.034659
C165  C     C_R   0.249742 0.946769 0.000709 -0.134402
C166  C     C_R   0.250272 0.053307 0.000477 -0.105125
C167  C     C_R   0.747852 0.445998 0.505922 -0.092983
C168  C     C_R   0.749849 0.552600 0.512047 -0.123934
C169  C     C_R   0.183729 0.975132 0.991991 -0.021975
C170  C     C_R   0.185068 0.025969 0.015594 -0.026096
C171  C     C_R   0.692081 0.475158 0.471883 -0.027450
C172  C     C_R   0.684098 0.525640 0.496249 -0.043173
C173  C     C_R   0.116234 0.956035 0.965584 0.069701
C174  C     C_R   0.121203 0.045632 0.050559 0.049814
C175  C     C_R   0.640126 0.456098 0.420919 0.032632
C176  C     C_R   0.611552 0.544976 0.503382 0.063162
C177  C     C_R   0.051253 0.979155 0.990143 0.245161
C178  C     C_R   0.054249 0.021442 0.037866 0.217519
C179  C     C_R   0.572121 0.480851 0.415377 0.249488
C180  C     C_R   0.556086 0.522887 0.461028 0.251748
N1    N     N_3   0.275724 0.451995 0.136164 -0.340610
H33   H     H_    0.249598 0.457727 0.186585 0.216639
H34   H     H_    0.324667 0.471622 0.137442 0.273932
N2    N     N_3   0.219546 0.548767 0.864219 -0.344916
H35   H     H_    0.174508 0.545793 0.829525 0.196472
H36   H     H_    0.261575 0.527083 0.841357 0.258234
N3    N     N_3   0.237961 0.555572 0.142406 -0.367286
H37   H     H_    0.202784 0.543872 0.184190 0.185923
H38   H     H_    0.290493 0.547404 0.159461 0.270948
N4    N     N_3   0.182322 0.445363 0.874387 -0.353206
H39   H     H_    0.136636 0.461540 0.849041 0.225184
H40   H     H_    0.225097 0.450129 0.838127 0.244808
N5    N     N_3   0.718441 0.944436 0.639863 -0.353359
H41   H     H_    0.679491 0.957825 0.677320 0.187136
H42   H     H_    0.768931 0.950212 0.663624 0.262406
N6    N     N_3   0.694465 0.057090 0.369008 -0.370071
H43   H     H_    0.649664 0.044353 0.338870 0.190194
H44   H     H_    0.740327 0.051507 0.336560 0.263569
N7    N     N_3   0.758995 0.047832 0.639901 -0.366628
H45   H     H_    0.726324 0.042801 0.686214 0.190785
H46   H     H_    0.806174 0.026396 0.648092 0.254092
N8    N     N_3   0.738370 0.953760 0.360815 -0.340135
H47   H     H_    0.699902 0.960391 0.319707 0.223965
H48   H     H_    0.783559 0.975152 0.346565 0.259949
Br1   Br    Br    0.383762 0.625020 0.205987 -0.419196
Br2   Br    Br    0.279799 0.258543 0.711391 -0.453770
Br3   Br    Br    0.372689 0.372664 0.216395 -0.383496
Br4   Br    Br    0.331733 0.647705 0.740628 -0.384672
Br5   Br    Br    0.788386 0.216817 0.792969 -0.464253
Br6   Br    Br    0.970897 0.812230 0.473547 -0.463446
Br7   Br    Br    0.847042 0.863341 0.742437 -0.394603
Br8   Br    Br    0.846491 0.140104 0.249730 -0.347344
Br9   Br    Br    0.121483 0.127023 0.825056 -0.462535
Br10  Br    Br    0.202220 0.831658 0.194837 -0.513749
Br11  Br    Br    0.196060 0.822989 0.769896 -0.528710
Br12  Br    Br    0.196265 0.176667 0.235636 -0.545091
Br13  Br    Br    0.472064 0.770156 0.481591 -0.437537
Br14  Br    Br    0.590247 0.376885 0.660588 -0.483903
Br15  Br    Br    0.709962 0.309885 0.259582 -0.520272
Br16  Br    Br    0.685676 0.666404 0.721817 -0.540893
Br17  Br    Br    0.967269 0.047746 0.084043 -0.415222
Br18  Br    Br    0.959225 0.951588 0.959701 -0.401409
Br19  Br    Br    0.458663 0.550414 0.466547 -0.430249
Br20  Br    Br    0.499983 0.454635 0.349110 -0.416730
N9    N     N_3   0.374036 0.082463 0.896225 -0.410496
H49   H     H_    0.411803 0.111134 0.907700 0.217943
H50   H     H_    0.387918 0.065967 0.845709 0.189692
N10   N     N_3   0.386179 0.919975 0.098561 -0.441834
H51   H     H_    0.410761 0.885424 0.082558 0.235055
H52   H     H_    0.334243 0.912803 0.119364 0.224556
N11   N     N_3   0.918314 0.576631 0.501903 -0.399007
H53   H     H_    0.941545 0.605934 0.533143 0.213297
H54   H     H_    0.959875 0.557534 0.473345 0.176172
N12   N     N_3   0.808531 0.405135 0.650199 -0.447574
H55   H     H_    0.834017 0.371359 0.632532 0.212601
H56   H     H_    0.752331 0.402515 0.643066 0.225661
N13   N     N_3   0.512718 0.036112 0.932851 -0.415495
H57   H     H_    0.507669 0.036027 0.875746 0.187803
H58   H     H_    0.520750 0.073756 0.950618 0.188550
N14   N     N_3   0.517725 0.955555 0.034064 -0.420399
H59   H     H_    0.520254 0.917073 0.017928 0.184530
H60   H     H_    0.520918 0.957166 0.091286 0.197619
N15   N     N_3   0.998533 0.532556 0.621648 -0.443871
H61   H     H_    0.031428 0.530431 0.574917 0.184005
H62   H     H_    0.995111 0.570848 0.638346 0.196478
N16   N     N_3   0.937952 0.450815 0.699637 -0.421635
H63   H     H_    0.949466 0.412243 0.688841 0.205903
H64   H     H_    0.902958 0.452398 0.744870 0.225835
N17   N     N_3   0.112681 0.921442 0.904084 -0.411970
H65   H     H_    0.164399 0.913764 0.882611 0.208989
H66   H     H_    0.088447 0.887217 0.920428 0.265521
N18   N     N_3   0.124818 0.082646 0.108916 -0.413488
H67   H     H_    0.178560 0.090267 0.123632 0.205647
H68   H     H_    0.098534 0.116407 0.092670 0.261108
N19   N     N_3   0.658086 0.417018 0.368003 -0.413206
H69   H     H_    0.714113 0.410157 0.365648 0.189599
H70   H     H_    0.630980 0.383339 0.381722 0.252279
N20   N     N_3   0.590210 0.577198 0.564136 -0.400406
H71   H     H_    0.633974 0.583893 0.599328 0.221600
H72   H     H_    0.570046 0.612128 0.544422 0.266015
Br21  Br    Br    0.406671 0.430277 0.030532 -0.434031
Br22  Br    Br    0.382203 0.563755 0.905146 -0.430660
Br23  Br    Br    0.399861 0.549680 0.062693 -0.387803
Br24  Br    Br    0.359333 0.444590 0.877898 -0.432372
Br25  Br    Br    0.887677 0.945837 0.583276 -0.461101
Br26  Br    Br    0.871622 0.053108 0.395936 -0.469645
Br27  Br    Br    0.901521 0.065982 0.553594 -0.417140
Br28  Br    Br    0.892278 0.933725 0.422662 -0.372434
N21   N     N_3   0.977916 0.071103 0.858702 -0.383519
H73   H     H_    0.929275 0.050617 0.860213 0.227833
H74   H     H_    0.995056 0.075323 0.912995 0.230053
N22   N     N_3   0.194465 0.883062 0.338378 -0.392542
H75   H     H_    0.223702 0.872516 0.385256 0.207464
H76   H     H_    0.173764 0.920137 0.346702 0.209262
N23   N     N_3   0.116842 0.921276 0.725854 -0.395346
H77   H     H_    0.114780 0.933971 0.671540 0.227807
H78   H     H_    0.098253 0.951341 0.759255 0.224581
N24   N     N_3   0.116679 0.078424 0.278849 -0.397215
H79   H     H_    0.112445 0.066564 0.333413 0.220805
H80   H     H_    0.099830 0.047918 0.245781 0.223149
N25   N     N_3   0.362463 0.682198 0.478900 -0.364095
H81   H     H_    0.326772 0.651208 0.476782 0.213337
H82   H     H_    0.331370 0.714056 0.495049 0.221028
N26   N     N_3   0.438005 0.410472 0.606031 -0.372949
H83   H     H_    0.385170 0.424753 0.598754 0.206067
H84   H     H_    0.459091 0.403279 0.553642 0.229707
N27   N     N_3   0.648413 0.406200 0.189377 -0.392158
H85   H     H_    0.649894 0.413066 0.132915 0.216937
H86   H     H_    0.633967 0.440602 0.215451 0.226160
N28   N     N_3   0.594611 0.570902 0.749256 -0.397101
H87   H     H_    0.589552 0.554702 0.801390 0.238104
H88   H     H_    0.573763 0.544658 0.711390 0.222017
Br29  Br    Br    0.060225 0.368841 0.866132 -0.488513
Br30  Br    Br    0.977576 0.735012 0.025843 -0.453717
Br31  Br    Br    0.073225 0.645059 0.925348 -0.610541
Br32  Br    Br    0.061671 0.348179 0.065678 -0.534859
Br33  Br    Br    0.594870 0.881558 0.333281 -0.519336
Br34  Br    Br    0.590197 0.123609 0.657415 -0.548862
Br35  Br    Br    0.554674 0.160641 0.444969 -0.535030
Br36  Br    Br    0.574438 0.857950 0.578774 -0.521999
N29   N     N_3   0.124584 0.420666 0.721756 -0.451610
H89   H     H_    0.173448 0.420513 0.692303 0.196012
H90   H     H_    0.091113 0.449325 0.699752 0.214531
N30   N     N_3   0.895944 0.633528 0.054876 -0.442349
H91   H     H_    0.871112 0.658578 0.017724 0.244928
H92   H     H_    0.943837 0.619108 0.031334 0.220865
N31   N     N_3   0.982277 0.562075 0.854734 -0.437976
H93   H     H_    0.967918 0.567382 0.909754 0.218694
H94   H     H_    0.036473 0.549759 0.851684 0.203592
N32   N     N_3   0.984631 0.437284 0.143682 -0.453304
H95   H     H_    0.965570 0.432131 0.090181 0.239658
H96   H     H_    0.039701 0.446927 0.141635 0.194509
N33   N     N_3   0.655143 0.903566 0.175982 -0.407052
H97   H     H_    0.671059 0.910560 0.121851 0.208075
H98   H     H_    0.622063 0.934539 0.191651 0.197000
N34   N     N_3   0.656681 0.094150 0.812860 -0.439979
H99   H     H_    0.629365 0.064905 0.785204 0.202121
H100  H     H_    0.704669 0.102206 0.784471 0.223820
N35   N     N_3   0.461997 0.074683 0.381843 -0.435233
H101  H     H_    0.444400 0.085301 0.434341 0.242954
H102  H     H_    0.515313 0.060584 0.385153 0.208246
N36   N     N_3   0.495612 0.943213 0.661042 -0.441465
H103  H     H_    0.478077 0.940708 0.606626 0.238964
H104  H     H_    0.550784 0.952439 0.661749 0.201116

loop_
_geom_bond_atom_site_label_1
_geom_bond_atom_site_label_2
_geom_bond_distance
_ccdc_geom_bond_type
C122  C130  1.398096 A    
C125  Br5   1.927842 S    
C170  C174  1.425447 A    
C158  N14   1.433363 S    
C55   N35   1.433435 S    
C127  Br7   1.923873 S    
N13   H57   1.045080 S    
C54   N34   1.430414 S    
C163  C167  1.415997 A    
O26   C7    1.287142 A    
C94   C102  1.426991 A    
N2    H35   1.045554 S    
C28   N4    1.465766 S    
C78   C82   1.402982 A    
O30   C11   1.288753 A    
C176  N20   1.439613 S    
C157  N13   1.433097 S    
C171  C172  1.394191 A    
N22   H75   1.046280 S    
C78   C94   1.406230 A    
C93   C101  1.429869 A    
C142  N26   1.436406 S    
Zn12  O26   1.932913 S    
C138  C146  1.402029 A    
C29   C31   1.558761 S    
C176  C180  1.405665 A    
C154  C161  1.424686 A    
C7    C93   1.462042 S    
N3    H38   1.035265 S    
C29   C39   1.594091 S    
C71   C79   1.412501 A    
C103  C107  1.400811 A    
C19   C168  1.474771 S    
C26   C28   1.562307 S    
C51   N31   1.433944 S    
C67   C75   1.411514 A    
C153  N9    1.436161 S    
N33   H98   1.045389 S    
C11   C115  1.446973 S    
C12   C116  1.445327 S    
C54   C58   1.393670 A    
C32   C39   1.585901 S    
O11   C7    1.289502 A    
O34   C15   1.285204 A    
C100  C112  1.400253 A    
C21   C37   1.498039 S    
C90   C98   1.424008 A    
C105  C145  1.420659 A    
C67   H19   1.080600 S    
N30   H92   1.045152 S    
N14   H59   1.045242 S    
Zn1   O44   1.962062 S    
C25   H1    1.116826 S    
C31   C40   1.582090 S    
Zn2   O43   1.962069 S    
N28   H88   1.045640 S    
C159  N15   1.434595 S    
C133  C137  1.401913 A    
Zn5   O48   1.962062 S    
Zn6   O47   1.962069 S    
C140  C148  1.403456 A    
Zn7   O46   1.965246 S    
O16   C12   1.274187 A    
C47   C87   1.443158 A    
N19   H69   1.044365 S    
C70   C78   1.417700 A    
C71   H23   1.080342 S    
Zn16  O4    1.952681 S    
C45   C85   1.411651 A    
N18   H67   1.044336 S    
Zn12  O4    1.968904 S    
Zn1   O13   1.940843 S    
C147  Br11  1.934815 S    
C8    C94   1.452585 S    
C24   C40   1.498874 S    
Zn4   O16   1.939704 S    
C44   Br32  1.936762 S    
N6    H43   1.046243 S    
C56   N36   1.433725 S    
C28   H4    1.116611 S    
C63   H15   1.083733 S    
N25   H81   1.045743 S    
C42   C82   1.433002 A    
N27   H85   1.045514 S    
Zn6   O4    1.953178 S    
Zn9   O21   1.933766 S    
C121  Br1   1.892148 S    
C4    C90   1.454568 S    
Zn16  O34   1.934581 S    
N26   H84   1.045727 S    
N23   H77   1.045539 S    
C139  N23   1.432295 S    
C30   H6    1.116276 S    
Zn10  O22   1.932913 S    
N34   H99   1.045064 S    
O25   C8    1.272154 A    
Zn13  O29   1.928786 S    
C35   Br25  1.952937 S    
Zn10  O2    1.968904 S    
C75   C91   1.417015 A    
O29   C12   1.290486 A    
Zn15  O33   1.928786 S    
C15   C119  1.441455 S    
C130  H30   1.083095 S    
C31   N7    1.471218 S    
C13   C117  1.495781 S    
C45   Br33  1.920445 S    
C26   H2    1.113791 S    
C43   C83   1.445995 A    
C44   C84   1.440123 A    
O37   C17   1.281504 A    
C106  C114  1.436483 A    
O48   C23   1.278539 A    
N24   H79   1.045477 S    
C128  Br8   1.925410 S    
C142  C150  1.406734 A    
C104  C108  1.398119 A    
N11   H54   1.045373 S    
N17   H65   1.044875 S    
C174  N18   1.435729 S    
C35   C36   1.597116 S    
Zn16  O35   1.934016 S    
C136  H28   1.080797 S    
C137  N21   1.434789 S    
N29   H89   1.045550 S    
C22   C38   1.504211 S    
C97   C109  1.413307 A    
Zn7   O10   1.939657 S    
O33   C16   1.292196 A    
C82   C114  1.424770 A    
C161  C162  1.393216 A    
O40   C20   1.280541 A    
C74   C90   1.422556 A    
C68   H20   1.079386 S    
C157  C158  1.400422 A    
C132  H32   1.082749 S    
C135  H27   1.081875 S    
N9    H50   1.045233 S    
C41   Br29  1.918901 S    
C168  C172  1.432246 A    
Zn5   O17   1.940843 S    
C126  Br6   1.932849 S    
C34   C38   1.598338 S    
C150  Br14  1.931303 S    
C59   C67   1.383819 A    
C109  C149  1.421294 A    
C25   C27   1.555790 S    
C177  C178  1.403509 A    
C95   C103  1.419991 A    
O28   C5    1.301411 A    
C105  C113  1.417222 A    
C125  C133  1.397333 A    
C27   H3    1.116419 S    
N8    H48   1.037601 S    
C32   H8    1.113530 S    
Zn8   O3    1.946791 S    
C79   C83   1.425191 A    
C146  Br10  1.944456 S    
C80   C84   1.423681 A    
C73   C89   1.420684 A    
N30   H91   1.045078 S    
O38   C18   1.278758 A    
N12   H55   1.043647 S    
C155  N11   1.433082 S    
C80   C96   1.418112 A    
O5    C1    1.270013 A    
O32   C9    1.282243 A    
N5    H41   1.045481 S    
C111  C151  1.433469 A    
N16   H64   1.045378 S    
C56   C60   1.383897 A    
Zn15  O51   1.960669 S    
C70   H22   1.081969 S    
C53   N33   1.436096 S    
C85   C117  1.408918 A    
Zn11  O28   1.934328 S    
Zn12  O40   1.960629 S    
C155  C164  1.428146 A    
N20   H72   1.045347 S    
C99   C123  1.413222 A    
N32   H95   1.045219 S    
N19   H70   1.044257 S    
C103  C127  1.420345 A    
N15   H62   1.044112 S    
N36   H103  1.045270 S    
C101  C125  1.419434 A    
O21   C4    1.281328 A    
C124  Br4   1.927235 S    
C27   N3    1.471651 S    
C36   C40   1.591098 S    
O8    C4    1.282672 A    
N4    H40   1.034889 S    
C91   C99   1.417245 A    
C154  N10   1.440297 S    
C92   C100  1.421041 A    
C17   C166  1.455023 S    
C110  C118  1.422553 A    
N10   H51   1.044792 S    
C112  C152  1.431010 A    
O50   C18   1.281846 A    
C88   C120  1.438703 A    
N1    H34   1.038900 S    
Zn1   O1    1.953179 S    
C46   C86   1.416775 A    
Zn13  O1    1.968605 S    
Zn2   O14   1.933615 S    
C9    C113  1.454567 S    
N2    H36   1.039175 S    
C52   C64   1.387113 A    
C29   H5    1.115889 S    
C68   C76   1.412685 A    
C16   C120  1.447641 S    
C101  C105  1.399572 A    
C156  C160  1.403945 A    
N22   H76   1.046298 S    
O9    C5    1.264642 A    
N31   H94   1.045213 S    
O39   C19   1.284360 A    
O36   C13   1.299561 A    
C99   C111  1.401414 A    
C153  C157  1.414714 A    
O13   C9    1.288717 A    
O7    C3    1.290962 A    
C124  C132  1.395230 A    
C3    C89   1.502947 S    
Zn2   O7    1.940798 S    
C72   H24   1.079946 S    
C134  H26   1.084562 S    
C122  Br2   1.926747 S    
Zn3   O6    1.939657 S    
O18   C14   1.282316 A    
O31   C10   1.271241 A    
C131  H31   1.083016 S    
O6    C2    1.270795 A    
C141  C149  1.401776 A    
N21   H74   1.044638 S    
C43   C51   1.415364 A    
C132  C144  1.392795 A    
N33   H97   1.045738 S    
C177  Br18  1.925010 S    
C121  C129  1.394382 A    
C163  C164  1.403695 A    
Zn14  O30   1.934581 S    
Zn15  O3    1.968605 S    
Zn11  O3    1.952980 S    
O41   C21   1.282306 A    
C29   N5    1.473619 S    
C61   C69   1.396617 A    
N35   H102  1.045469 S    
N14   H60   1.045385 S    
C46   Br34  1.922987 S    
C27   C38   1.593104 S    
C33   Br24  1.969779 S    
C144  C152  1.402516 A    
N4    H39   1.045276 S    
Zn8   O20   1.939704 S    
C165  C169  1.424735 A    
C76   C92   1.417453 A    
N8    H47   1.044689 S    
C137  C145  1.406431 A    
N35   H101  1.045239 S    
N18   H68   1.044424 S    
C179  C180  1.402839 A    
C108  C116  1.411008 A    
C96   C104  1.418409 A    
N6    H44   1.037898 S    
C59   H11   1.083495 S    
C169  C170  1.392604 A    
C151  Br15  1.933787 S    
Zn8   O9    1.937361 S    
C152  Br16  1.935093 S    
C100  C124  1.422031 A    
N13   H58   1.044236 S    
C74   C86   1.391515 A    
C106  C146  1.448299 A    
C83   C115  1.438822 A    
C84   C116  1.433291 A    
C138  N22   1.434777 S    
C47   Br35  1.941393 S    
O19   C15   1.267651 A    
C48   Br36  1.936002 S    
N27   H86   1.045736 S    
C42   Br30  1.925278 S    
Zn9   O24   1.934328 S    
C173  C177  1.405058 A    
Zn6   O18   1.933615 S    
C107  C115  1.413974 A    
Zn10  O23   1.928536 S    
N34   H100  1.045124 S    
C175  C179  1.405605 A    
N7    H45   1.044486 S    
C1    C91   1.471578 S    
C178  Br17  1.925458 S    
C161  C165  1.426952 A    
C2    C92   1.475885 S    
C58   C66   1.394588 A    
C35   Br28  1.974326 S    
C87   C119  1.432616 A    
C172  C176  1.426946 A    
C129  C141  1.393717 A    
C26   N2    1.472425 S    
C25   C37   1.582443 S    
Zn15  O36   1.933166 S    
Zn9   O1    1.952980 S    
O15   C11   1.267125 A    
O42   C22   1.281155 A    
Zn4   O1    1.946791 S    
C30   C32   1.560615 S    
C28   C37   1.587338 S    
C62   H14   1.083405 S    
C73   C85   1.406482 A    
N24   H80   1.045599 S    
O12   C8    1.288301 A    
C133  H25   1.083127 S    
Zn11  O39   1.968590 S    
C66   H18   1.078955 S    
C175  N19   1.436651 S    
C47   C55   1.413967 A    
C131  C143  1.393025 A    
C30   N6    1.473732 S    
C45   C53   1.404914 A    
C104  C128  1.416893 A    
C44   C52   1.413321 A    
C20   C167  1.446384 S    
N28   H87   1.045539 S    
Zn5   O3    1.953179 S    
C52   N32   1.433446 S    
C31   H7    1.111095 S    
C57   C65   1.394845 A    
C169  C173  1.424381 A    
C36   Br27  1.975111 S    
C49   C61   1.398699 A    
C66   C74   1.417205 A    
C60   C68   1.381009 A    
C33   C34   1.595913 S    
C167  C171  1.416043 A    
C156  N12   1.438118 S    
C129  H29   1.083382 S    
C23   C39   1.502986 S    
C77   C81   1.389867 A    
N9    H49   1.045260 S    
C57   H9    1.082718 S    
C14   C118  1.455567 S    
C143  N27   1.432208 S    
Zn3   O42   1.965246 S    
C34   Br23  1.943968 S    
Zn7   O4    1.946793 S    
C156  C163  1.424711 A    
C77   C93   1.427455 A    
N25   H82   1.045395 S    
C72   C80   1.411766 A    
C18   C165  1.456261 S    
C143  C151  1.404643 A    
C6    C96   1.473328 S    
C48   C88   1.445919 A    
C153  C162  1.421313 A    
C179  Br20  1.922998 S    
C135  C139  1.392094 A    
N15   H61   1.044816 S    
Zn2   O2    1.953178 S    
Zn14  O2    1.952681 S    
C10   C114  1.456284 S    
N11   H53   1.045715 S    
N26   H83   1.045735 S    
C64   C72   1.384487 A    
C25   N1    1.466494 S    
C26   C38   1.578899 S    
C65   C73   1.413229 A    
Zn13  O49   1.960669 S    
O44   C21   1.270285 A    
C130  C142  1.402476 A    
C171  C175  1.424405 A    
C60   H12   1.083821 S    
C48   C56   1.415406 A    
C127  C135  1.394873 A    
C62   C70   1.386498 A    
Zn12  O27   1.928536 S    
C55   C59   1.386816 A    
N12   H56   1.043964 S    
C154  C158  1.409021 A    
C89   C97   1.437228 A    
Zn3   O2    1.946793 S    
C123  Br3   1.912183 S    
C180  Br19  1.925575 S    
C136  C140  1.394136 A    
O46   C24   1.277015 A    
O47   C24   1.275839 A    
N31   H93   1.045039 S    
Zn16  O52   1.968633 S    
C64   H16   1.083469 S    
C5    C95   1.473392 S    
N32   H96   1.045578 S    
C33   C37   1.591230 S    
Zn8   O45   1.965240 S    
C69   C77   1.419873 A    
O27   C6    1.303699 A    
C58   H10   1.082748 S    
N17   H66   1.044849 S    
C141  N25   1.436964 S    
N36   H104  1.044189 S    
C128  C136  1.396664 A    
C51   C63   1.383579 A    
C126  C134  1.385615 A    
N29   H90   1.045232 S    
C160  N16   1.432672 S    
N23   H78   1.045648 S    
C155  C159  1.416379 A    
C98   C122  1.419768 A    
O24   C1    1.295213 A    
C41   C81   1.407034 A    
C34   Br22  1.963995 S    
N10   H52   1.045134 S    
C166  C170  1.426545 A    
N1    H33   1.045945 S    
C134  C138  1.381553 A    
C148  Br12  1.932497 S    
C144  N28   1.432255 S    
C33   Br21  1.972996 S    
O43   C22   1.274447 A    
Zn4   O41   1.965240 S    
Zn3   O15   1.937404 S    
C49   N29   1.428564 S    
Zn5   O12   1.933574 S    
C30   C40   1.590142 S    
Zn6   O11   1.940798 S    
C110  C150  1.421374 A    
C97   C121  1.414895 A    
C164  C168  1.440753 A    
C86   C118  1.422117 A    
C123  C131  1.392352 A    
Zn14  O50   1.968633 S    
C69   H21   1.077488 S    
C102  C106  1.436321 A    
N7    H46   1.038765 S    
O35   C14   1.281761 A    
C76   C88   1.425042 A    
Zn1   O8    1.933574 S    
C63   C71   1.380923 A    
C107  C147  1.431688 A    
C75   C87   1.423152 A    
C102  C126  1.437233 A    
N3    H37   1.046230 S    
O52   C20   1.273552 A    
C53   C57   1.400871 A    
C173  N17   1.438233 S    
C61   H13   1.082998 S    
C159  C160  1.396674 A    
C140  N24   1.432334 S    
N21   H73   1.045661 S    
C108  C148  1.427979 A    
O22   C3    1.306283 A    
C50   C62   1.386765 A    
C65   H17   1.081318 S    
C111  C119  1.415326 A    
C174  C178  1.406593 A    
Zn7   O19   1.937404 S    
C109  C117  1.404785 A    
C139  C147  1.402452 A    
C162  C166  1.423102 A    
Zn13  O32   1.933166 S    
O49   C17   1.278489 A    
Zn14  O31   1.934016 S    
O51   C19   1.286380 A    
N5    H42   1.036488 S    
C98   C110  1.395720 A    
Zn4   O5    1.937361 S    
N16   H63   1.043952 S    
C41   C49   1.403512 A    
C43   Br31  1.933497 S    
O20   C16   1.274255 A    
C149  Br13  1.921424 S    
O10   C6    1.272792 A    
O23   C2    1.306580 A    
Zn11  O25   1.933766 S    
C36   Br26  1.949220 S    
C32   N8    1.471826 S    
N20   H71   1.044917 S    
Zn10  O38   1.960629 S    
C81   C113  1.412073 A    
O14   C10   1.295024 A    
C79   C95   1.416036 A    
Zn9   O37   1.968590 S    
C112  C120  1.414560 A    
C50   N30   1.432950 S    
C35   C39   1.591185 S    
C42   C50   1.410667 A    
O17   C13   1.290394 A    
C46   C54   1.408873 A    
O45   C23   1.276586 A    
C145  Br9   1.932090 S    
