data_mof_unit_33475.cif
_audit_creation_date              2012-12-10T19:26:37-0500
_audit_creation_method            fapswitch 2.2
_symmetry_space_group_name_H-M    P1
_symmetry_Int_Tables_number       1
_space_group_crystal_system       triclinic
_cell_length_a                    19.14026
_cell_length_b                    10.915959
_cell_length_c                    10.096307
_cell_angle_alpha                 92.005368
_cell_angle_beta                  86.468074
_cell_angle_gamma                 84.952191
_cell_volume                      2095.55899386

loop_
_atom_site_label
_atom_site_type_symbol
_atom_type_description
_atom_site_fract_x
_atom_site_fract_y
_atom_site_fract_z
_atom_type_partial_charge
C1    C     C_R   0.505626 0.257226 0.497592 0.944246
C2    C     C_R   0.495337 0.742533 0.502252 0.886989
C3    C     C_3   0.530477 0.035414 0.608925 0.486721
C4    C     C_3   0.471917 0.964318 0.390107 0.422867
C5    C     C_3   0.563621 0.935351 0.507051 -0.468818
C6    C     C_3   0.438765 0.063762 0.493318 -0.429395
C7    C     C_3   0.492443 0.879486 0.504311 -0.344734
C8    C     C_3   0.509942 0.119610 0.495080 -0.267803
C9    C     C_3   0.459914 0.979254 0.606273 0.477297
C10   C     C_3   0.542889 0.019450 0.393115 0.466150
C11   C     C_3   0.497975 0.391440 0.043339 0.308419
C12   C     C_3   0.502629 0.608369 0.956350 0.367124
C13   C     C_3   0.553200 0.432201 0.943333 0.398164
C14   C     C_3   0.447157 0.568083 0.056016 0.415508
C15   C     C_3   0.445097 0.459021 0.956332 -0.295449
C16   C     C_3   0.555513 0.541122 0.044146 -0.277315
C17   C     C_R   0.365418 0.497149 0.503653 0.900478
C18   C     C_R   0.633853 0.501186 0.496410 0.938495
C19   C     C_R   0.242453 0.507335 0.626689 0.298103
C20   C     C_R   0.754674 0.455384 0.384290 0.348780
C21   C     C_R   0.169871 0.540272 0.620502 0.401953
C22   C     C_R   0.823682 0.487548 0.367041 0.407305
C23   C     C_R   0.141764 0.548280 0.495424 -0.106065
C24   C     C_R   0.850814 0.559304 0.467180 -0.101524
C25   C     C_R   0.184557 0.522344 0.379703 -0.208797
C26   C     C_R   0.806383 0.614921 0.571260 -0.227871
C27   C     C_R   0.256045 0.496478 0.386705 -0.112063
C28   C     C_R   0.735838 0.594000 0.580141 -0.246655
C29   C     C_R   0.287241 0.499102 0.508381 -0.263043
C30   C     C_R   0.709436 0.513911 0.487892 -0.207484
C31   C     C_R   0.926571 0.561762 0.471083 0.323112
C32   C     C_R   0.066667 0.556516 0.484191 0.349047
H1    H     H_    0.398749 0.419797 0.919769 0.294703
H2    H     H_    0.602376 0.578990 0.083840 0.255796
H3    H     H_    0.162291 0.519721 0.283558 0.194508
H4    H     H_    0.826581 0.671890 0.647378 0.192347
H5    H     H_    0.287143 0.471817 0.296072 0.259374
H6    H     H_    0.701947 0.639942 0.659890 0.239445
H7    H     H_    0.613694 0.878302 0.518519 0.206199
H8    H     H_    0.387131 0.117447 0.486710 0.206166
N1    N     N_R   0.038011 0.459226 0.430495 -0.145852
N2    N     N_R   0.955287 0.659748 0.524599 -0.185847
N3    N     N_R   0.969064 0.461759 0.424538 -0.100600
N4    N     N_R   0.024603 0.657212 0.530589 -0.189589
N5    N     N_3   0.499950 0.500030 0.863290 -0.207780
N6    N     N_3   0.500050 0.499970 0.136710 -0.213685
O1    O     O_R   0.500000 0.313960 0.616610 -0.550307
O2    O     O_R   0.500000 0.686040 0.383390 -0.566998
O3    O     O_R   0.500030 0.313950 0.383350 -0.563151
O4    O     O_R   0.499970 0.686050 0.616650 -0.561860
O5    O     O_R   0.398120 0.499990 0.616660 -0.546963
O6    O     O_R   0.601880 0.500010 0.383340 -0.612172
O7    O     O_R   0.398150 0.499980 0.383410 -0.562595
O8    O     O_R   0.601850 0.500020 0.616590 -0.548304
Zn1   Zn    Zn3+2 0.499980 0.500010 0.655740 1.137001
Zn2   Zn    Zn3+2 0.500020 0.499990 0.344260 1.100645
S1    S     S_3+6 0.274988 0.464571 0.778750 0.033148
O9    O     O_2   0.313381 0.570146 0.825696 -0.277279
O10   O     O_2   0.218462 0.440326 0.881995 -0.240923
O11   O     O_3   0.330152 0.335973 0.753139 -0.554508
H9    H     H_    0.302546 0.276340 0.708058 0.338457
S2    S     S_3+6 0.726686 0.339558 0.278679 0.070051
O12   O     O_2   0.688580 0.403273 0.171838 -0.288411
O13   O     O_2   0.787328 0.255990 0.216375 -0.221586
O14   O     O_3   0.672096 0.254984 0.365101 -0.554167
H10   H     H_    0.631018 0.252091 0.310777 0.415347
O15   O     O_3   0.125320 0.543535 0.734595 -0.591478
C33   C     C_3   0.103170 0.666484 0.778137 0.093720
H11   H     H_    0.044783 0.675756 0.787346 0.180659
H12   H     H_    0.119604 0.737477 0.708626 0.122613
C34   C     C_3   0.129355 0.692963 0.915581 -0.292609
H13   H     H_    0.114154 0.620719 0.983890 0.259214
H14   H     H_    0.187508 0.691299 0.908172 0.267892
C35   C     C_3   0.098414 0.818292 0.974017 -0.957159
H15   H     H_    0.112866 0.892582 0.908031 0.277022
H16   H     H_    0.119378 0.835043 0.072534 0.283604
H17   H     H_    0.040238 0.820873 0.987072 0.273684
O16   O     O_3   0.866211 0.439107 0.258072 -0.575487
C36   C     C_3   0.882227 0.533550 0.171245 0.060682
H18   H     H_    0.934470 0.505462 0.119816 0.190918
H19   H     H_    0.886809 0.624239 0.222869 0.117334
C37   C     C_3   0.827723 0.548109 0.067102 -0.268626
H20   H     H_    0.822904 0.456899 0.017882 0.284914
H21   H     H_    0.775920 0.582687 0.116508 0.243619
C38   C     C_3   0.848467 0.637914 0.962220 -0.955505
H22   H     H_    0.856046 0.728777 0.009474 0.267567
H23   H     H_    0.806134 0.650779 0.892317 0.287827
H24   H     H_    0.897882 0.601357 0.905330 0.269312
S3    S     S_3+6 0.587350 0.072794 0.731693 0.136394
O17   O     O_2   0.652335 0.111739 0.660137 -0.271993
O18   O     O_2   0.550717 0.174571 0.819101 -0.187979
O19   O     O_3   0.612435 0.955018 0.823712 -0.467039
H25   H     H_    0.647017 0.987025 0.882052 0.386681
S4    S     S_3+6 0.418011 0.922952 0.263237 0.097745
O20   O     O_2   0.454235 0.812622 0.189032 -0.232590
O21   O     O_2   0.348981 0.894989 0.328770 -0.310815
O22   O     O_3   0.401360 0.032421 0.156085 -0.434202
H26   H     H_    0.370495 0.996633 0.092681 0.400402
O23   O     O_3   0.412515 0.971137 0.717152 -0.546594
C39   C     C_3   0.355338 0.904540 0.683932 0.167707
H27   H     H_    0.352157 0.827802 0.752773 0.220944
H28   H     H_    0.359945 0.861681 0.581711 0.131990
C40   C     C_3   0.287136 0.988725 0.701972 -0.339640
H29   H     H_    0.280956 0.029007 0.805159 0.248447
H30   H     H_    0.289018 0.064717 0.631994 0.220097
C41   C     C_3   0.224056 0.917678 0.675451 -0.933247
H31   H     H_    0.227864 0.880515 0.571130 0.288720
H32   H     H_    0.174891 0.979623 0.692577 0.275525
H33   H     H_    0.222122 0.840345 0.743515 0.260855
O24   O     O_3   0.589684 0.044420 0.285815 -0.579283
C42   C     C_3   0.640195 0.943980 0.251426 0.137780
H34   H     H_    0.652720 0.944232 0.142745 0.202761
H35   H     H_    0.620253 0.853074 0.272012 0.159905
C43   C     C_3   0.709213 0.959920 0.316981 -0.302240
H36   H     H_    0.735872 0.034498 0.268543 0.292089
H37   H     H_    0.699211 0.987010 0.423749 0.271472
C44   C     C_3   0.758202 0.841451 0.302991 -0.969133
H38   H     H_    0.770804 0.815247 0.196441 0.273074
H39   H     H_    0.733085 0.765518 0.352057 0.263597
H40   H     H_    0.807847 0.855319 0.350547 0.289615
S5    S     S_3+6 0.640359 0.368956 0.887119 0.144480
O25   O     O_2   0.661608 0.259681 0.966788 -0.188744
O26   O     O_2   0.644830 0.328955 0.744088 -0.213911
O27   O     O_3   0.696848 0.476869 0.906040 -0.565445
H41   H     H_    0.737502 0.451030 0.842734 0.376013
S6    S     S_3+6 0.359913 0.635379 0.107127 0.113949
O28   O     O_2   0.307449 0.544304 0.081794 -0.297233
O29   O     O_2   0.352684 0.672359 0.251301 -0.232700
O30   O     O_3   0.341211 0.759972 0.018078 -0.504204
H42   H     H_    0.291812 0.788836 0.045983 0.371826
S7    S     S_3+6 0.468780 0.248891 0.085303 0.142592
O31   O     O_2   0.530723 0.162822 0.112372 -0.175241
O32   O     O_2   0.417436 0.266868 0.204536 -0.274923
O33   O     O_3   0.428049 0.189349 0.957746 -0.453547
H43   H     H_    0.377231 0.212889 0.977836 0.379046
S8    S     S_3+6 0.530934 0.749568 0.908959 0.137944
O34   O     O_2   0.584063 0.727605 0.793154 -0.247105
O35   O     O_2   0.468725 0.831336 0.874837 -0.201146
O36   O     O_3   0.569559 0.814793 0.034627 -0.569194
H44   H     H_    0.548653 0.901258 0.041838 0.432433

loop_
_geom_bond_atom_site_label_1
_geom_bond_atom_site_label_2
_ccdc_geom_bond_type
S6    O28   D    
C31   N2    A    
C27   C29   A    
C1    C8    S    
C17   C29   S    
C42   H34   S    
S7    O33   S    
C17   O5    A    
C6    C9    S    
O22   H26   S    
C18   O6    A    
C14   N6    S    
C20   C30   A    
C38   H22   S    
C19   S1    S    
C31   N3    A    
O1    Zn1   S    
C19   C21   A    
C24   C26   A    
C44   H39   S    
S1    O10   D    
C41   H31   S    
C34   H14   S    
O2    Zn2   S    
O24   C42   S    
O19   H25   S    
S5    O27   S    
S2    O13   D    
C2    O4    A    
C2    C7    S    
C16   H2    S    
C11   C15   S    
C42   H35   S    
C12   C16   S    
C33   H11   S    
C35   H17   S    
C32   N1    A    
C14   S6    S    
C18   C30   S    
S3    O18   D    
O5    Zn1   S    
C3    C5    S    
C9    O23   S    
C21   O15   S    
N1    N3    A    
C42   C43   S    
N2    N4    A    
S8    O36   S    
C43   H36   S    
C38   H23   S    
C35   H15   S    
O15   C33   S    
C22   O16   S    
C4    C6    S    
C3    C8    S    
C44   H40   S    
C16   N6    S    
C36   H19   S    
O16   C36   S    
C1    O1    A    
S1    O11   S    
C6    C8    S    
S4    O22   S    
C4    C7    S    
C39   C40   S    
O11   H9    S    
S2    O12   D    
C3    C9    S    
C36   C37   S    
C13   S5    S    
O23   C39   S    
C28   H6    S    
C39   H28   S    
C32   N4    A    
C40   H30   S    
S3    O19   S    
S4    O21   D    
S5    O25   D    
C35   H16   S    
C25   H3    S    
C4    S4    S    
S8    O35   D    
C12   C14   S    
O14   H10   S    
C37   H21   S    
C21   C23   A    
C6    H8    S    
C15   N5    S    
C4    C10   S    
S7    O31   D    
O3    Zn2   S    
C17   O7    A    
C38   H24   S    
C5    C7    S    
O30   H42   S    
O7    Zn2   S    
C26   H4    S    
C7    C9    S    
O8    Zn1   S    
S6    O29   D    
S2    O14   S    
C20   C22   A    
C12   N5    S    
S7    O32   D    
C11   S7    S    
C34   C35   S    
C43   H37   S    
O36   H44   S    
O33   H43   S    
C25   C27   A    
C37   C38   S    
C26   C28   A    
O4    Zn1   S    
S6    O30   S    
C3    S3    S    
C2    O2    A    
C23   C32   S    
C5    H7    S    
C24   C31   S    
C34   H13   S    
C44   H38   S    
C13   N5    S    
C11   C13   S    
S1    O9    D    
C41   H32   S    
C27   H5    S    
C33   C34   S    
C28   C30   A    
C39   H27   S    
C10   O24   S    
C40   C41   S    
C22   C24   A    
C23   C25   A    
C20   S2    S    
S4    O20   D    
S5    O26   D    
C43   C44   S    
C18   O8    A    
C36   H18   S    
C5    C10   S    
N5    Zn1   S    
C8    C10   S    
C37   H20   S    
C12   S8    S    
C13   C16   S    
N6    Zn2   S    
C40   H29   S    
C33   H12   S    
C14   C15   S    
S8    O34   D    
C11   N6    S    
S3    O17   D    
C1    O3    A    
C15   H1    S    
O6    Zn2   S    
O27   H41   S    
C41   H33   S    
C19   C29   A    
