data_mof_unit_58156.cif
_audit_creation_date              2013-03-05T16:09:36-0500
_audit_creation_method            fapswitch 2.2
_symmetry_space_group_name_H-M    P1
_symmetry_Int_Tables_number       1
_space_group_crystal_system       triclinic
_cell_length_a                    10.315449
_cell_length_b                    10.618475
_cell_length_c                    9.905249
_cell_angle_alpha                 90.423339
_cell_angle_beta                  101.307702
_cell_angle_gamma                 90.435554
_cell_volume                      1063.82952479

loop_
_atom_site_label
_atom_site_type_symbol
_atom_site_description
_atom_site_fract_x
_atom_site_fract_y
_atom_site_fract_z
_atom_type_partial_charge
O1    O     O_R   0.499990 0.316750 0.614620 -0.580499
O2    O     O_R   0.500010 0.683250 0.385380 -0.573020
O3    O     O_R   0.499990 0.316780 0.385290 -0.588744
O4    O     O_R   0.500010 0.683220 0.614710 -0.570400
C1    C     C_R   0.502153 0.260496 0.499942 0.859545
C2    C     C_R   0.497825 0.739491 0.500059 0.923778
O5    O     O_R   0.317810 0.500000 0.571850 -0.543009
O6    O     O_R   0.682190 0.500000 0.428150 -0.575134
O7    O     O_R   0.317810 0.500030 0.342520 -0.587476
O8    O     O_R   0.682190 0.499970 0.657480 -0.580307
C3    C     C_R   0.256630 0.505772 0.445563 0.956632
C4    C     C_R   0.743432 0.502177 0.554920 0.948603
Zn1   Zn    Zn3+2 0.500000 0.499980 0.653120 1.092169
Zn2   Zn    Zn3+2 0.500000 0.500020 0.346880 1.075316
C5    C     C_R   0.583542 0.577693 0.089379 0.222626
C6    C     C_R   0.417254 0.421415 0.910414 0.237383
C7    C     C_R   0.582720 0.578462 0.945575 0.234347
C8    C     C_R   0.417161 0.421487 0.054178 0.232388
C9    C     C_2   0.116096 0.533154 0.425554 -0.312340
C10   C     C_2   0.885471 0.519935 0.578226 -0.301683
C11   C     C_2   0.074862 0.618008 0.509780 0.343694
C12   C     C_2   0.934770 0.618991 0.520966 0.389209
H1    H     H_    0.948839 0.444555 0.625476 0.152616
H2    H     H_    0.046156 0.476021 0.353703 0.160864
C13   C     C_R   0.398179 0.066225 0.417148 -0.112021
C14   C     C_R   0.601722 0.933702 0.582970 -0.091976
H3    H     H_    0.318117 0.118840 0.356052 0.216541
H4    H     H_    0.681728 0.881067 0.644171 0.227975
C15   C     C_R   0.390963 0.936985 0.417072 0.485878
C16   C     C_R   0.609012 0.062953 0.582858 0.473232
C17   C     C_R   0.494844 0.871808 0.500608 -0.233412
C18   C     C_R   0.505101 0.128131 0.499394 -0.231039
N1    N     N_R   0.499970 0.499970 0.857200 -0.218376
N2    N     N_R   0.500030 0.500030 0.142800 -0.221931
O9    O     O_3   0.855575 0.720904 0.476449 -0.704218
H5    H     H_    0.909971 0.783671 0.438219 0.377390
O10   O     O_3   0.164213 0.699750 0.589231 -0.730852
H6    H     H_    0.115453 0.752088 0.645630 0.369156
N3    N     N_R   0.676208 0.655776 0.178953 0.274849
O11   O     O_R   0.645374 0.771820 0.200047 -0.293227
O12   O     O_R   0.800136 0.624283 0.203337 -0.339818
N4    N     N_R   0.329298 0.339002 0.820757 0.260922
O13   O     O_R   0.359662 0.220922 0.812349 -0.304204
O14   O     O_R   0.208095 0.373738 0.775141 -0.349258
N5    N     N_R   0.667780 0.663964 0.893107 0.256038
O15   O     O_R   0.635794 0.782157 0.881165 -0.322672
O16   O     O_R   0.789646 0.632359 0.894695 -0.311324
N6    N     N_R   0.330955 0.337014 0.106268 0.254789
O17   O     O_R   0.363345 0.219149 0.121874 -0.324421
O18   O     O_R   0.208386 0.368484 0.100459 -0.320729
O19   O     O_3   0.281073 0.879754 0.337068 -0.687159
H7    H     H_    0.277469 0.789734 0.360892 0.346138
O20   O     O_3   0.718994 0.120282 0.662567 -0.690609
H8    H     H_    0.723302 0.209931 0.637352 0.327780

loop_
_geom_bond_atom_site_label_1
_geom_bond_atom_site_label_2
_geom_bond_distance
_ccdc_geom_bond_type
Zn2   N2    2.021526 S    
O5    C3    1.287997 A    
O7    Zn2   1.871385 S    
Zn1   N1    2.021524 S    
O10   H6    0.991859 S    
C6    N1    1.368833 A    
C13   H3    1.084646 S    
O7    C3    1.302321 A    
C5    N2    1.369888 A    
C14   H4    1.084813 S    
O9    H5    0.991881 S    
C10   H1    1.086514 S    
O6    C4    1.290213 A    
C1    C18   1.406072 S    
C5    N3    1.425784 S    
C4    C10   1.448512 S    
C13   C18   1.393193 A    
N6    O18   1.300675 A    
C9    H2    1.086588 S    
C14   C17   1.393315 A    
N3    O12   1.300395 A    
C11   C12   1.470968 S    
C16   C18   1.408414 A    
C12   O9    1.382787 S    
C8    N2    1.371479 A    
C3    C9    1.456007 S    
O2    C2    1.283621 A    
O3    Zn2   1.985337 S    
N4    O14   1.300494 A    
C14   C16   1.373951 A    
O1    C1    1.283632 A    
O8    C4    1.297478 A    
O4    C2    1.283518 A    
N6    O17   1.300326 A    
C9    C11   1.350058 D    
C10   C12   1.341795 D    
C2    C17   1.405573 S    
N5    O16   1.300733 A    
C13   C15   1.373767 A    
O2    Zn2   1.979873 S    
C16   O20   1.382820 S    
N5    O15   1.300443 A    
O1    Zn1   1.979873 S    
N4    O13   1.300692 A    
O19   H7    0.988441 S    
C6    N4    1.427636 S    
O5    Zn1   1.893881 S    
C11   O10   1.384021 S    
C6    C8    1.424194 A    
C15   O19   1.382900 S    
N3    O11   1.300530 A    
C5    C7    1.422860 A    
O6    Zn2   1.893880 S    
C7    N1    1.369295 A    
C15   C17   1.408521 A    
O4    Zn1   1.985338 S    
O20   H8    0.988815 S    
C7    N5    1.427573 S    
O3    C1    1.283627 A    
O8    Zn1   1.871384 S    
C8    N6    1.426958 S    
