data_mof_unit_29412.cif
_audit_creation_date              2012-12-11T14:50:40-0500
_audit_creation_method            fapswitch 2.2
_symmetry_space_group_name_H-M    P1
_symmetry_Int_Tables_number       1
_space_group_crystal_system       triclinic
_cell_length_a                    10.908479
_cell_length_b                    10.910531
_cell_length_c                    18.845933
_cell_angle_alpha                 90.062035
_cell_angle_beta                  89.63715
_cell_angle_gamma                 60.281054
_cell_volume                      1947.90389595

loop_
_atom_site_label
_atom_site_type_symbol
_atom_type_description
_atom_site_fract_x
_atom_site_fract_y
_atom_site_fract_z
_atom_type_partial_charge
C1    C     C_R   0.235695 0.646834 0.609679 0.543732
C2    C     C_3   0.731129 0.515092 0.797032 -0.026669
C3    C     C_3   0.698521 0.668601 0.813693 0.048625
C4    C     C_3   0.666192 0.643088 0.678426 0.028290
C5    C     C_3   0.791019 0.669909 0.689594 -0.243119
C6    C     C_3   0.691873 0.508388 0.719676 -0.203447
C7    C     C_R   0.788267 0.142183 0.708266 0.323801
C8    C     C_R   0.805315 0.123443 0.781605 0.385769
C9    C     C_R   0.687220 0.161500 0.825659 -0.086695
C10   C     C_R   0.553056 0.221008 0.795973 -0.184463
C11   C     C_R   0.537609 0.227011 0.723745 0.285465
C12   C     C_R   0.651219 0.619106 0.602653 0.536433
C13   C     C_R   0.654014 0.191857 0.678724 -0.034493
C14   C     C_R   0.182641 0.558196 0.721076 -0.104737
C15   C     C_R   0.176086 0.561338 0.795067 -0.139500
C16   C     C_R   0.173174 0.674196 0.832576 -0.002692
C17   C     C_R   0.186188 0.778023 0.795399 -0.092722
C18   C     C_R   0.188098 0.777205 0.722245 -0.090195
C19   C     C_R   0.191501 0.664865 0.684220 0.005977
C20   C     C_R   0.711450 0.523809 0.270264 -0.087498
C21   C     C_R   0.711942 0.539200 0.197513 -0.054752
C22   C     C_R   0.649824 0.674146 0.168080 0.096763
C23   C     C_R   0.625652 0.231874 0.604197 0.589649
C24   C     C_R   0.575874 0.793691 0.212025 -0.054664
C25   C     C_R   0.573397 0.777936 0.285343 -0.128985
C26   C     C_R   0.646090 0.642902 0.314843 0.016062
C27   C     C_R   0.507595 0.249499 0.277398 0.352769
C28   C     C_R   0.517025 0.232535 0.204795 0.098396
C29   C     C_R   0.650746 0.170051 0.172989 -0.057600
C30   C     C_R   0.771731 0.134848 0.213622 -0.165976
C31   C     C_R   0.763521 0.146449 0.286255 -0.008011
C32   C     C_R   0.630939 0.202471 0.318743 0.006202
C33   C     C_R   0.266410 0.695501 0.280459 -0.081752
C34   C     C_R   0.225060 0.648100 0.400505 0.559742
C35   C     C_R   0.242505 0.700903 0.208838 0.317999
C36   C     C_R   0.140757 0.670206 0.183887 0.055119
C37   C     C_R   0.068453 0.626296 0.230466 0.345862
C38   C     C_R   0.094522 0.619046 0.302496 -0.048488
C39   C     C_R   0.189600 0.658710 0.327249 -0.037896
C40   C     C_R   0.701958 0.103447 0.896609 0.567724
C41   C     C_R   0.721523 0.685692 0.889283 0.538822
C42   C     C_R   0.117558 0.706794 0.905111 0.545267
C43   C     C_R   0.673977 0.110201 0.102840 0.557662
C44   C     C_R   0.694070 0.690194 0.097227 0.570182
C45   C     C_R   0.639898 0.619562 0.390529 0.533383
C46   C     C_R   0.090995 0.709579 0.112956 0.614779
C47   C     C_R   0.613555 0.235040 0.393285 0.578563
C48   C     C_3   0.544196 0.774398 0.791258 -0.260304
C49   C     C_3   0.530543 0.769472 0.710163 -0.237280
C50   C     C_3   0.797836 0.702644 0.768499 -0.212598
Cr1   Cr    Cr6+3 0.392930 0.397900 0.502230 1.116757
Cr2   Cr    Cr6+3 0.398240 0.708600 0.501260 1.063910
Cr3   Cr    Cr6+3 0.708800 0.393470 0.496460 1.100673
Cr4   Cr    Cr6+3 0.937620 0.938540 0.007640 1.106674
Cr5   Cr    Cr6+3 0.625150 0.937450 0.994520 1.062260
Cr6   Cr    Cr6+3 0.937990 0.625080 0.001190 1.102813
H1    H     H_    0.513207 0.884544 0.806720 0.171082
H2    H     H_    0.776221 0.410947 0.694200 0.204991
H3    H     H_    0.907924 0.641037 0.786879 0.158592
H4    H     H_    0.891642 0.575163 0.673233 0.158329
H5    H     H_    0.460197 0.250209 0.828551 0.187145
H6    H     H_    0.180094 0.473343 0.692691 0.212694
H7    H     H_    0.164615 0.480445 0.822512 0.170831
H8    H     H_    0.186416 0.865371 0.822604 0.206296
H9    H     H_    0.470134 0.746771 0.818180 0.114319
H10   H     H_    0.192566 0.862898 0.695694 0.198635
H11   H     H_    0.762679 0.417972 0.291654 0.162032
H12   H     H_    0.768841 0.445778 0.164630 0.142053
H13   H     H_    0.528167 0.899271 0.190376 0.161688
H14   H     H_    0.518301 0.870486 0.318918 0.147647
H15   H     H_    0.876134 0.086756 0.189887 0.194701
H16   H     H_    0.345056 0.720233 0.299557 0.168562
H17   H     H_    0.437541 0.758172 0.698162 0.141813
H18   H     H_    0.038675 0.586524 0.338789 0.162993
H19   H     H_    0.513037 0.870049 0.686177 0.163122
H20   H     H_    0.766338 0.816068 0.774789 0.125117
H21   H     H_    0.777969 0.760068 0.656585 0.123754
H22   H     H_    0.666628 0.487361 0.832500 0.116484
H23   H     H_    0.594591 0.499280 0.718393 0.086736
O1    O     O_R   0.507430 0.255570 0.581420 -0.447337
O2    O     O_R   0.524460 0.695920 0.424060 -0.506513
O3    O     O_R   0.736530 0.504260 0.414810 -0.499718
O4    O     O_R   0.691460 0.277160 0.422180 -0.490532
O5    O     O_3   0.499990 0.499990 0.499980 -0.299042
O6    O     O_R   0.089490 0.825610 0.930610 -0.481147
O7    O     O_R   0.818370 0.054540 0.929880 -0.431706
O8    O     O_R   0.605870 0.077310 0.915530 -0.533269
O9    O     O_R   0.646440 0.806700 0.917570 -0.513778
O10   O     O_R   0.837200 0.593290 0.915250 -0.490902
O11   O     O_R   0.065330 0.635370 0.931590 -0.512307
O12   O     O_R   0.280190 0.527390 0.578910 -0.487672
O13   O     O_R   0.068300 0.828790 0.091860 -0.479449
O14   O     O_R   0.798730 0.057480 0.079370 -0.520254
O15   O     O_R   0.584680 0.080480 0.076790 -0.487683
O16   O     O_R   0.626790 0.809640 0.067050 -0.500171
O17   O     O_R   0.816010 0.596460 0.076500 -0.468692
O18   O     O_R   0.045680 0.638310 0.081070 -0.447867
O19   O     O_3   0.833590 0.833690 0.001120 -0.287262
O20   O     O_R   0.260310 0.739740 0.584580 -0.509400
O21   O     O_R   0.532250 0.695150 0.573830 -0.507027
O22   O     O_R   0.744930 0.503430 0.576380 -0.506003
O23   O     O_R   0.699250 0.276390 0.571950 -0.463051
O24   O     O_R   0.499020 0.256400 0.419850 -0.446840
O25   O     O_R   0.272400 0.528160 0.429140 -0.463367
O26   O     O_R   0.251910 0.740570 0.423020 -0.496918
F1    F     F_    0.902548 0.107815 0.666308 -0.589595
F2    F     F_    0.936906 0.062308 0.808925 -0.588655
F3    F     F_    0.407479 0.265565 0.698568 -0.625571
F4    F     F_    0.376367 0.313991 0.307078 -0.597175
I1    I     I_    0.324630 0.300455 0.148366 -0.190960
I2    I     I_    0.958082 0.066094 0.341423 -0.306901
F5    F     F_    0.314350 0.740992 0.164203 -0.627212
F6    F     F_    0.967725 0.598083 0.206952 -0.616446
I3    I     I_    0.950589 0.351880 0.811794 -0.270784

loop_
_geom_bond_atom_site_label_1
_geom_bond_atom_site_label_2
_ccdc_geom_bond_type
C41   O10   A    
C11   C13   A    
C6    H2    S    
C20   H11   S    
C35   C36   A    
Cr6   O19   S    
C1    O20   A    
C30   H15   S    
C7    C8    A    
C29   C30   A    
Cr3   O5    S    
C44   O17   A    
C50   H3    S    
C40   O8    A    
C28   C29   A    
C17   H8    S    
C38   C39   A    
C23   O23   A    
C37   F6    S    
Cr1   O24   S    
C15   C16   A    
C14   H6    S    
C3    C48   S    
C43   O15   A    
C13   C23   S    
C18   C19   A    
C40   O7    A    
Cr5   O9    S    
Cr2   O5    S    
Cr1   O1    S    
Cr4   O14   S    
C26   C45   S    
Cr1   O12   S    
C22   C44   S    
C45   O3    A    
Cr3   O22   S    
C8    C9    A    
C49   H19   S    
C36   C46   S    
C47   O4    A    
C48   H9    S    
C4    C12   S    
C9    C10   A    
C33   H16   S    
Cr6   O11   S    
C1    O12   A    
C21   C22   A    
C29   C43   S    
C2    C6    S    
Cr6   O18   S    
Cr5   O15   S    
C43   O14   A    
C3    C50   S    
C24   H13   S    
C1    C19   S    
C47   O24   A    
C34   C39   S    
C48   H1    S    
C24   C25   A    
C4    C6    S    
Cr4   O7    S    
C16   C17   A    
C28   I1    S    
Cr1   O25   S    
Cr2   O21   S    
C9    C40   S    
C34   O25   A    
Cr3   O3    S    
C42   O11   A    
Cr4   O13   S    
C37   C38   A    
C2    H22   S    
C50   H20   S    
C31   C32   A    
Cr3   O23   S    
C17   C18   A    
C7    F1    S    
C42   O6    A    
C33   C39   A    
Cr5   O16   S    
C48   C49   S    
C46   O18   A    
Cr2   O26   S    
C21   H12   S    
C23   O1    A    
C32   C47   S    
C22   C24   A    
C5    C50   S    
C10   H5    S    
C5    H21   S    
C8    F2    S    
C16   C42   S    
C11   F3    S    
C38   H18   S    
Cr6   O17   S    
C41   O9    A    
Cr6   O10   S    
C36   C37   A    
C31   I2    S    
C5    H4    S    
C27   C32   A    
C34   O26   A    
C14   C19   A    
C45   O2    A    
C4    C5    S    
Cr4   O6    S    
C18   H10   S    
Cr2   O20   S    
C4    C49   S    
Cr3   O4    S    
C2    C3    S    
C25   C26   A    
C12   O22   A    
C44   O16   A    
C2    I3    S    
C6    H23   S    
C30   C31   A    
C20   C26   A    
Cr5   O19   S    
C33   C35   A    
C49   H17   S    
Cr5   O8    S    
Cr2   O2    S    
C12   O21   A    
C3    C41   S    
C10   C11   A    
C7    C13   A    
C46   O13   A    
C20   C21   A    
C27   F4    S    
C27   C28   A    
C15   H7    S    
C14   C15   A    
Cr4   O19   S    
C25   H14   S    
Cr1   O5    S    
C35   F5    S    
