data_mof_unit_17987.cif
_audit_creation_date              2012-10-26T18:53:43-0400
_audit_creation_method            fapswitch 2.2
_symmetry_space_group_name_H-M    P1
_symmetry_Int_Tables_number       1
_space_group_crystal_system       triclinic
_cell_length_a                    14.743056
_cell_length_b                    14.781346
_cell_length_c                    17.232521
_cell_angle_alpha                 106.349992
_cell_angle_beta                  72.528669
_cell_angle_gamma                 115.094232
_cell_volume                      3191.90967525

loop_
_atom_site_label
_atom_site_type_symbol
_atom_type_description
_atom_site_fract_x
_atom_site_fract_y
_atom_site_fract_z
_atom_type_partial_charge
Br1   Br    Br    0.888796 0.709615 0.684038 -0.483104
Br2   Br    Br    0.111208 0.290387 0.315959 -0.483129
Br3   Br    Br    0.235980 0.542524 0.219962 -0.500451
Br4   Br    Br    0.764006 0.457585 0.780036 -0.500418
C1    C     C_R   0.119069 0.687893 0.511162 0.551998
C2    C     C_R   0.708073 0.176394 0.520637 -0.041150
C3    C     C_R   0.359747 0.923094 0.504318 0.036151
C4    C     C_R   0.640247 0.076907 0.495784 0.036156
C5    C     C_R   0.318779 0.000597 0.539071 0.055098
C6    C     C_R   0.681208 0.999400 0.461040 0.055103
C7    C     C_R   0.466824 0.948332 0.494330 0.030891
C8    C     C_R   0.533168 0.051668 0.505791 0.030887
C9    C     C_R   0.491239 0.126602 0.522439 -0.144374
C10   C     C_R   0.508747 0.873396 0.477696 -0.144376
C11   C     C_R   0.386144 0.102197 0.543696 -0.134147
C12   C     C_R   0.880931 0.312107 0.488842 0.551976
C13   C     C_R   0.613840 0.897800 0.456441 -0.134162
C14   C     C_R   0.287917 0.315643 0.371557 -0.007721
C15   C     C_R   0.712083 0.684359 0.628443 -0.007715
C16   C     C_R   0.989182 0.503825 0.653153 0.572553
C17   C     C_R   0.010814 0.496169 0.346848 0.572578
C18   C     C_R   0.210587 0.354422 0.385740 0.338812
C19   C     C_R   0.789413 0.645579 0.614260 0.338832
C20   C     C_R   0.286425 0.490736 0.487304 -0.004229
C21   C     C_R   0.713578 0.509267 0.512693 -0.004224
C22   C     C_R   0.372296 0.461556 0.470155 -0.017340
C23   C     C_R   0.186904 0.795836 0.516326 -0.002650
C24   C     C_R   0.627710 0.538451 0.529838 -0.017339
C25   C     C_R   0.369843 0.370545 0.413372 0.027636
C26   C     C_R   0.630161 0.629462 0.586623 0.027631
C27   C     C_R   0.459326 0.518318 0.508455 0.032989
C28   C     C_R   0.540682 0.481692 0.491535 0.032988
C29   C     C_R   0.531700 0.388692 0.437747 -0.143676
C30   C     C_R   0.468310 0.611322 0.562239 -0.143682
C31   C     C_R   0.449550 0.335537 0.399101 -0.126033
C32   C     C_R   0.550458 0.664475 0.600888 -0.126042
C33   C     C_R   0.988294 0.514397 0.740512 0.035016
C34   C     C_R   0.813093 0.204165 0.483704 -0.002654
C35   C     C_R   0.011675 0.485557 0.259491 0.035048
C36   C     C_R   0.082056 0.542038 0.762764 -0.157896
C37   C     C_R   0.917887 0.457814 0.237246 -0.157871
C38   C     C_R   0.085895 0.554100 0.844685 -0.128822
C39   C     C_R   0.914020 0.445698 0.155324 -0.128827
C40   C     C_R   0.996000 0.538042 0.905304 0.015646
C41   C     C_R   0.003915 0.461815 0.094698 0.015644
C42   C     C_R   0.902462 0.512266 0.884534 -0.078026
C43   C     C_R   0.097480 0.487686 0.115461 -0.078004
C44   C     C_R   0.897560 0.500064 0.802488 0.168427
C45   C     C_R   0.211491 0.974305 0.565673 -0.006504
C46   C     C_R   0.102407 0.499931 0.197509 0.168418
C47   C     C_2   0.998511 0.540492 0.990073 0.002227
C48   C     C_2   0.001369 0.459345 0.009933 0.002223
C49   C     C_3   0.283847 0.216089 0.312789 -0.389255
C50   C     C_3   0.716144 0.783908 0.687221 -0.389246
C51   C     C_3   0.002164 0.364631 0.947180 -0.384222
C52   C     C_3   0.997611 0.635162 0.052842 -0.384221
C53   C     C_3   0.675155 0.242356 0.600047 -0.359123
C54   C     C_3   0.324888 0.757678 0.400014 -0.359113
C55   C     C_3   0.164086 0.053455 0.604802 -0.401157
C56   C     C_R   0.788489 0.025692 0.434412 -0.006517
C57   C     C_3   0.835883 0.946542 0.395307 -0.401170
C58   C     C_R   0.147531 0.871628 0.558527 -0.112697
C59   C     C_R   0.852452 0.128368 0.441511 -0.112712
C60   C     C_R   0.291935 0.823615 0.479429 -0.041146
Cu1   Cu    Cu3+1 0.916740 0.524770 0.521640 1.013352
Cu2   Cu    Cu3+1 0.083260 0.475230 0.478360 1.013357
H1    H     H_    0.152823 0.554734 0.716711 0.128197
H2    H     H_    0.412857 0.646054 0.575978 0.091432
H3    H     H_    0.832921 0.498790 0.931970 0.148481
H4    H     H_    0.167018 0.501199 0.068020 0.148477
H5    H     H_    0.841418 0.425849 0.139269 0.126025
H6    H     H_    0.158475 0.573867 0.860743 0.126032
H7    H     H_    0.358569 0.163863 0.562149 0.121390
H8    H     H_    0.641412 0.836135 0.438001 0.121394
H9    H     H_    0.933784 0.149031 0.416385 0.167696
H10   H     H_    0.066191 0.850962 0.583626 0.167702
H11   H     H_    0.214016 0.174799 0.287084 0.180465
H12   H     H_    0.847123 0.445081 0.283307 0.128171
H13   H     H_    0.350297 0.230485 0.259849 0.146652
H14   H     H_    0.285809 0.162907 0.346170 0.116547
H15   H     H_    0.785964 0.825194 0.712940 0.180463
H16   H     H_    0.714195 0.837100 0.653841 0.116537
H17   H     H_    0.649682 0.769504 0.740153 0.146653
H18   H     H_    0.001397 0.306250 0.976526 0.146111
H19   H     H_    0.933332 0.331845 0.919578 0.143309
H20   H     H_    0.072250 0.382856 0.897690 0.136279
H21   H     H_    0.998357 0.693535 0.023501 0.146116
H22   H     H_    0.927489 0.616869 0.102291 0.136268
H23   H     H_    0.538876 0.205195 0.520022 0.117355
H24   H     H_    0.066393 0.667983 0.080507 0.143327
H25   H     H_    0.664810 0.306497 0.587307 0.165768
H26   H     H_    0.603168 0.197722 0.638600 0.142894
H27   H     H_    0.734000 0.273556 0.638314 0.176234
H28   H     H_    0.396885 0.802332 0.361482 0.142894
H29   H     H_    0.335233 0.693532 0.412746 0.165736
H30   H     H_    0.266064 0.726485 0.361726 0.176269
H31   H     H_    0.079481 0.018614 0.624158 0.138228
H32   H     H_    0.194994 0.100707 0.660536 0.142622
H33   H     H_    0.181373 0.102509 0.559801 0.130230
H34   H     H_    0.461104 0.794804 0.480119 0.117343
H35   H     H_    0.920482 0.981383 0.375924 0.138232
H36   H     H_    0.818624 0.897533 0.440329 0.130238
H37   H     H_    0.804946 0.899249 0.339602 0.142619
H38   H     H_    0.450286 0.265796 0.357328 0.117231
H39   H     H_    0.549724 0.734218 0.642658 0.117235
H40   H     H_    0.721239 0.445939 0.465513 0.121089
H41   H     H_    0.278763 0.554062 0.534485 0.121093
H42   H     H_    0.587158 0.353965 0.424003 0.091439
N1    N     N_R   0.208390 0.438070 0.445820 -0.229439
N2    N     N_R   0.791610 0.561930 0.554180 -0.229436
O1    O     O_R   0.020090 0.662480 0.528530 -0.475405
O2    O     O_R   0.979910 0.337520 0.471470 -0.475407
O3    O     O_R   0.160710 0.620650 0.491980 -0.515709
O4    O     O_R   0.839290 0.379350 0.508020 -0.515724
O5    O     O_R   0.921540 0.523360 0.633990 -0.409934
O6    O     O_R   0.078460 0.476640 0.366010 -0.409936
O7    O     O_R   0.062170 0.481520 0.597440 -0.531989
O8    O     O_R   0.937830 0.518480 0.402560 -0.531987

loop_
_geom_bond_atom_site_label_1
_geom_bond_atom_site_label_2
_ccdc_geom_bond_type
Cu2   O3    S    
C40   C47   S    
C55   H33   S    
Cu1   O4    S    
C15   C19   A    
C2    C53   S    
C35   C37   A    
C21   C24   A    
C3    C7    A    
Cu2   O6    S    
C56   C59   A    
C57   H37   S    
C20   C22   A    
C33   C36   A    
C7    C10   A    
C52   H22   S    
C6    C13   A    
C49   H13   S    
C47   C52   S    
C54   H30   S    
Cu1   O1    S    
C42   H3    S    
C14   C49   S    
C1    C23   S    
C36   H1    S    
Br2   C18   S    
Cu1   O8    S    
C2    C34   A    
C48   C51   S    
C1    O3    A    
C52   H24   S    
C22   C27   A    
C53   H27   S    
C37   C39   A    
C10   C13   A    
C58   H10   S    
C29   H42   S    
C38   C40   A    
C17   O6    A    
C50   H17   S    
Br3   C46   S    
C40   C42   A    
C21   H40   S    
C43   C46   A    
C41   C43   A    
C54   C60   S    
C3    C60   A    
C42   C44   A    
C47   C48   D    
C24   C28   A    
C49   H14   S    
C5    C45   A    
C31   H38   S    
C30   H2    S    
C37   H12   S    
C20   H41   S    
C52   H21   S    
C2    C4    A    
C1    O1    A    
C41   C48   S    
Cu2   O7    S    
C57   H35   S    
C56   C57   S    
C51   H19   S    
C6    C56   A    
C54   H29   S    
C43   H4    S    
C17   O8    A    
C23   C58   A    
C27   C28   A    
C17   C35   S    
C4    C8    A    
C18   N1    A    
C38   H6    S    
C27   C30   A    
C14   C25   A    
C33   C44   A    
C39   C41   A    
C21   N2    A    
C15   C50   S    
C11   H7    S    
Br1   C19   S    
C9    C11   A    
C13   H8    S    
C55   H31   S    
C50   H16   S    
C12   O2    A    
C34   C59   A    
Br4   C44   S    
C3    C5    A    
C19   N2    A    
C39   H5    S    
C45   C58   A    
C53   H25   S    
C9    H23   S    
C32   H39   S    
C14   C18   A    
C20   N1    A    
C12   O4    A    
C16   O5    A    
C7    C8    A    
C10   H34   S    
C25   C31   A    
C45   C55   S    
C26   C32   A    
C28   C29   A    
C51   H20   S    
C24   C26   A    
C57   H36   S    
Cu1   O5    S    
C16   C33   S    
C59   H9    S    
C36   C38   A    
C29   C31   A    
C53   H26   S    
C30   C32   A    
Cu2   N1    S    
C54   H28   S    
Cu1   N2    S    
C23   C60   A    
C35   C46   A    
C8    C9    A    
C22   C25   A    
C4    C6    A    
Cu1   Cu2   S    
C55   H32   S    
Cu2   O2    S    
C49   H11   S    
C15   C26   A    
C16   O7    A    
C51   H18   S    
C50   H15   S    
C5    C11   A    
C12   C34   S    
