data_mof_unit_25487.cif
_audit_creation_date              2012-12-10T19:46:43-0500
_audit_creation_method            fapswitch 2.2
_symmetry_space_group_name_H-M    P1
_symmetry_Int_Tables_number       1
_space_group_crystal_system       triclinic
_cell_length_a                    12.983566
_cell_length_b                    14.969825
_cell_length_c                    14.096637
_cell_angle_alpha                 90.573847
_cell_angle_beta                  97.430133
_cell_angle_gamma                 90.133793
_cell_volume                      2716.68631535

loop_
_atom_site_label
_atom_site_type_symbol
_atom_type_description
_atom_site_fract_x
_atom_site_fract_y
_atom_site_fract_z
_atom_type_partial_charge
C1    C     C_R   0.501610 0.327929 0.500016 0.982751
C2    C     C_R   0.496446 0.952089 0.509208 -0.077059
C3    C     C_R   0.438513 0.438863 0.096415 0.092976
C4    C     C_R   0.458374 0.573720 0.890586 0.096538
C5    C     C_R   0.440415 0.439848 0.196467 0.007870
C6    C     C_R   0.459549 0.571138 0.790969 0.028550
C7    C     C_R   0.560491 0.559694 0.212319 0.062192
C8    C     C_R   0.540689 0.429807 0.800460 0.017748
C9    C     C_R   0.561771 0.560861 0.112795 -0.283485
C10   C     C_R   0.542404 0.429800 0.900265 -0.275661
C11   C     C_R   0.499913 0.500443 0.053142 0.107229
C12   C     C_R   0.497349 0.672124 0.500140 0.977147
C13   C     C_R   0.500568 0.501972 0.946932 0.099519
C14   C     C_R   0.297474 0.497748 0.481520 0.967009
C15   C     C_R   0.702061 0.498558 0.518701 0.981840
C16   C     C_R   0.814043 0.501092 0.530021 -0.303936
C17   C     C_R   0.184596 0.497989 0.471035 -0.319410
C18   C     C_R   0.018050 0.502778 0.370838 0.414608
C19   C     C_R   0.977443 0.542643 0.621992 0.417443
C20   C     C_R   0.126592 0.499266 0.378713 0.345177
C21   C     C_R   0.869783 0.532873 0.616475 0.320710
C22   C     C_R   0.133872 0.500396 0.554302 0.176790
C23   C     C_R   0.502607 0.232402 0.501185 -0.248615
C24   C     C_R   0.864765 0.479243 0.450385 0.193234
C25   C     C_R   0.027688 0.515348 0.543988 -0.173961
C26   C     C_R   0.969569 0.499452 0.454117 -0.171322
C27   C     C_R   0.593373 0.094758 0.542304 0.472865
C28   C     C_R   0.423108 0.905219 0.555171 0.439598
C29   C     C_R   0.595223 0.187151 0.532217 0.021523
C30   C     C_R   0.419662 0.812499 0.547882 0.028158
C31   C     C_3   0.844531 0.512825 0.776247 0.138024
C32   C     C_3   0.823300 0.411998 0.763998 -0.374867
C33   C     C_3   0.836436 0.364774 0.860193 -0.933965
C34   C     C_R   0.494255 0.767776 0.501197 -0.260775
C35   C     C_3   0.153247 0.420369 0.240554 0.079511
C36   C     C_3   0.188068 0.334407 0.293586 -0.370193
C37   C     C_3   0.171134 0.252425 0.228297 -0.858991
C38   C     C_3   0.968285 0.599378 0.248187 0.100566
C39   C     C_3   0.876642 0.617209 0.171312 -0.337378
C40   C     C_3   0.882718 0.710497 0.129749 -0.963623
C41   C     C_3   0.026867 0.677571 0.688873 0.072750
C42   C     C_3   0.082350 0.723363 0.778520 -0.256871
C43   C     C_3   0.076422 0.824839 0.770378 -0.954857
C44   C     C_3   0.685469 0.014140 0.664389 0.090038
C45   C     C_R   0.408569 0.186401 0.479034 0.414297
C46   C     C_3   0.695791 0.086263 0.743444 -0.371691
C47   C     C_3   0.696515 0.044840 0.841957 -0.943050
C48   C     C_3   0.392233 0.973510 0.693931 0.076948
C49   C     C_3   0.308004 0.015735 0.745787 -0.321345
C50   C     C_3   0.350989 0.044452 0.847423 -0.909959
C51   C     C_3   0.262663 0.244859 0.531051 0.069382
C52   C     C_3   0.167990 0.182817 0.523757 -0.380495
C53   C     C_3   0.096178 0.207935 0.597333 -0.862052
C54   C     C_3   0.735768 0.766932 0.465907 0.072601
C55   C     C_3   0.821445 0.775056 0.401902 -0.313561
C56   C     C_R   0.567909 0.814932 0.456949 0.418646
C57   C     C_3   0.928754 0.765587 0.459049 -0.986609
C58   C     C_R   0.408657 0.094285 0.479859 -0.225727
C59   C     C_R   0.566533 0.907217 0.458868 -0.249058
C60   C     C_R   0.499799 0.048491 0.511856 -0.083693
H1    H     H_    0.608192 0.606567 0.257639 0.156937
H2    H     H_    0.926106 0.524903 0.807713 0.190751
H3    H     H_    0.742978 0.400944 0.728676 0.253153
H4    H     H_    0.878194 0.381918 0.718571 0.239589
H5    H     H_    0.917066 0.373572 0.896439 0.280366
H6    H     H_    0.820620 0.292261 0.848683 0.275347
H7    H     H_    0.781076 0.392003 0.906859 0.258977
H8    H     H_    0.195633 0.425729 0.177299 0.185362
H9    H     H_    0.069970 0.415820 0.211367 0.197047
H10   H     H_    0.271562 0.340299 0.321538 0.271756
H11   H     H_    0.143050 0.324983 0.354558 0.222826
H12   H     H_    0.571806 0.373309 0.765380 0.138896
H13   H     H_    0.087690 0.245601 0.199508 0.262756
H14   H     H_    0.195619 0.191581 0.269553 0.285271
H15   H     H_    0.217882 0.257749 0.168091 0.279378
H16   H     H_    0.041569 0.605756 0.215800 0.189419
H17   H     H_    0.967942 0.650434 0.306029 0.138495
H18   H     H_    0.876106 0.566848 0.112736 0.234061
H19   H     H_    0.802899 0.610572 0.202909 0.228404
H20   H     H_    0.882181 0.762109 0.186840 0.269637
H21   H     H_    0.814627 0.721292 0.074833 0.269747
H22   H     H_    0.954659 0.717736 0.095528 0.274123
H23   H     H_    0.610693 0.608699 0.082469 0.162851
H24   H     H_    0.944613 0.700587 0.678077 0.154371
H25   H     H_    0.065935 0.697326 0.626514 0.177351
H26   H     H_    0.045918 0.702305 0.841915 0.222399
H27   H     H_    0.165182 0.702701 0.789081 0.271335
H28   H     H_    0.110937 0.847277 0.706537 0.285488
H29   H     H_    0.120104 0.856233 0.835171 0.278305
H30   H     H_    0.994299 0.847130 0.764290 0.256332
H31   H     H_    0.753645 0.969152 0.677485 0.165909
H32   H     H_    0.616762 0.971210 0.669231 0.106898
H33   H     H_    0.769220 0.124149 0.741831 0.255246
H34   H     H_    0.575494 0.373382 0.940854 0.170253
H35   H     H_    0.629666 0.133577 0.731834 0.214784
H36   H     H_    0.622668 0.008217 0.845904 0.263299
H37   H     H_    0.704581 0.098386 0.897534 0.275203
H38   H     H_    0.762802 0.998058 0.856757 0.268707
H39   H     H_    0.455123 0.023772 0.692644 0.130284
H40   H     H_    0.423408 0.913631 0.734378 0.160008
H41   H     H_    0.276075 0.075212 0.705739 0.225234
H42   H     H_    0.243997 0.966927 0.748649 0.242316
H43   H     H_    0.381893 0.985764 0.889435 0.274322
H44   H     H_    0.288014 0.074949 0.883073 0.279192
H45   H     H_    0.337456 0.058415 0.455307 0.202970
H46   H     H_    0.414005 0.094598 0.846066 0.268453
H47   H     H_    0.235133 0.314896 0.528337 0.171388
H48   H     H_    0.310961 0.236925 0.602119 0.145594
H49   H     H_    0.123745 0.186940 0.450994 0.246407
H50   H     H_    0.194090 0.112782 0.535711 0.233222
H51   H     H_    0.138802 0.205441 0.670841 0.267329
H52   H     H_    0.030101 0.160148 0.592133 0.279907
H53   H     H_    0.064731 0.276230 0.583573 0.279522
H54   H     H_    0.742106 0.701336 0.502498 0.150274
H55   H     H_    0.748103 0.820806 0.521824 0.131354
H56   H     H_    0.621167 0.943834 0.421856 0.207499
H57   H     H_    0.810529 0.722315 0.345516 0.228781
H58   H     H_    0.815907 0.841296 0.366701 0.233369
H59   H     H_    0.938940 0.813745 0.520046 0.273125
H60   H     H_    0.989464 0.779198 0.412366 0.276311
H61   H     H_    0.938706 0.696486 0.486191 0.249529
H62   H     H_    0.394016 0.392398 0.229583 0.141003
H63   H     H_    0.426996 0.625940 0.747998 0.177024
H64   H     H_    0.796219 0.539115 0.829746 0.156022
I1    I     I_    0.795239 0.390048 0.337451 -0.264871
I2    I     I_    0.201752 0.450018 0.692809 -0.293788
I3    I     I_    0.739546 0.255446 0.563760 -0.391402
I4    I     I_    0.295290 0.743870 0.600890 -0.387157
I5    I     I_    0.338809 0.346065 0.014867 -0.406618
I6    I     I_    0.387220 0.684948 0.949583 -0.391535
N1    N     N_R   0.500000 0.499980 0.252470 -0.105603
N2    N     N_R   0.500000 0.500020 0.747530 -0.103146
O1    O     O_R   0.500010 0.369070 0.579480 -0.647542
O2    O     O_3   0.177054 0.498484 0.297398 -0.620567
O3    O     O_3   0.958618 0.511890 0.282522 -0.631979
O4    O     O_3   0.032626 0.584205 0.700875 -0.615312
O5    O     O_3   0.685891 0.050787 0.572057 -0.619282
O6    O     O_3   0.349013 0.949738 0.599939 -0.627941
O7    O     O_3   0.317150 0.231310 0.451378 -0.671708
O8    O     O_3   0.638532 0.771030 0.407852 -0.629157
O9    O     O_R   0.499990 0.630930 0.420520 -0.587808
O10   O     O_R   0.500010 0.369060 0.420520 -0.605198
O11   O     O_R   0.499990 0.630940 0.579480 -0.627539
O12   O     O_R   0.346360 0.499990 0.566340 -0.593108
O13   O     O_R   0.653640 0.500010 0.433660 -0.610625
O14   O     O_R   0.346360 0.499980 0.407390 -0.576770
O15   O     O_R   0.653640 0.500020 0.592610 -0.586773
O16   O     O_3   0.816775 0.561723 0.690869 -0.634111
Zn1   Zn    Zn3+2 0.500000 0.500010 0.606140 0.982927
Zn2   Zn    Zn3+2 0.500000 0.499990 0.393860 1.013120

loop_
_geom_bond_atom_site_label_1
_geom_bond_atom_site_label_2
_ccdc_geom_bond_type
C37   H14   S    
C34   C56   A    
C44   O5    S    
C23   C45   A    
C27   C29   A    
C41   C42   S    
C35   C36   S    
C18   C26   A    
C33   H5    S    
C38   H16   S    
C50   H44   S    
C27   O5    S    
C47   H38   S    
C43   H28   S    
C23   C29   A    
C36   C37   S    
O15   Zn1   S    
C24   C26   A    
C31   H64   S    
C27   C60   A    
C49   H41   S    
C38   C39   S    
C56   O8    S    
C2    C60   S    
C22   I2    S    
C10   H34   S    
C58   C60   A    
C15   C16   S    
C45   O7    S    
C17   C20   A    
C12   O9    A    
C46   C47   S    
C4    C13   A    
C7    H1    S    
C1    O10   A    
C53   H53   S    
O14   Zn2   S    
C54   O8    S    
C46   H35   S    
C44   C46   S    
C51   H48   S    
C22   C25   A    
C33   H6    S    
O11   Zn1   S    
C47   H36   S    
C40   H20   S    
C42   H26   S    
C7    N1    A    
O13   Zn2   S    
C44   H32   S    
C36   H11   S    
C57   H59   S    
C53   H51   S    
C37   H15   S    
C50   H43   S    
C16   C24   A    
N2    Zn1   S    
C14   C17   S    
C6    H63   S    
C51   H47   S    
C1    O1    A    
C35   O2    S    
C36   H10   S    
O9    Zn2   S    
C30   I4    S    
C48   H40   S    
C14   O12   A    
C45   C58   A    
C8    H12   S    
C43   H30   S    
C30   C34   A    
C51   C52   S    
C39   H18   S    
C40   H22   S    
C28   O6    S    
C32   H4    S    
C4    C6    A    
C39   C40   S    
C15   O13   A    
C2    C59   A    
C59   H56   S    
C4    I6    S    
C25   C26   A    
C41   H24   S    
C5    H62   S    
C39   H19   S    
C21   O16   S    
C8    N2    A    
O12   Zn1   S    
C31   C32   S    
C52   H50   S    
C54   H55   S    
O1    Zn1   S    
C18   O3    S    
C43   H29   S    
C38   O3    S    
C9    C11   A    
C31   H2    S    
C44   H31   S    
C9    H23   S    
C57   H60   S    
C31   O16   S    
C53   H52   S    
C6    N2    A    
C48   C49   S    
C1    C23   S    
C29   I3    S    
C24   I1    S    
C42   C43   S    
C12   C34   S    
C49   H42   S    
C52   C53   S    
C33   H7    S    
C55   H57   S    
C7    C9    A    
C48   H39   S    
C37   H13   S    
C54   C55   S    
C19   C21   A    
C3    I5    S    
C40   H21   S    
C32   H3    S    
C3    C5    A    
C10   C13   A    
C12   O11   A    
C16   C21   A    
C38   H17   S    
C52   H49   S    
C41   H25   S    
C14   O14   A    
C17   C22   A    
C47   H37   S    
C56   C59   A    
C48   O6    S    
C58   H45   S    
C32   C33   S    
O10   Zn2   S    
C55   C57   S    
C19   O4    S    
C15   O15   A    
C11   C13   S    
C46   H33   S    
C35   H8    S    
C54   H54   S    
C28   C30   A    
C18   C20   A    
C19   C25   A    
C3    C11   A    
C57   H61   S    
C5    N1    A    
C35   H9    S    
C8    C10   A    
C49   C50   S    
C50   H46   S    
N1    Zn2   S    
C2    C28   A    
C42   H27   S    
C20   O2    S    
C41   O4    S    
C55   H58   S    
C51   O7    S    
