data_mof_unit_32370.cif
_audit_creation_date              2012-12-10T17:39:20-0500
_audit_creation_method            fapswitch 2.2
_symmetry_space_group_name_H-M    P1
_symmetry_Int_Tables_number       1
_space_group_crystal_system       triclinic
_cell_length_a                    12.441105
_cell_length_b                    13.077454
_cell_length_c                    27.799729
_cell_angle_alpha                 75.798958
_cell_angle_beta                  101.144126
_cell_angle_gamma                 116.468345
_cell_volume                      3906.73441302

loop_
_atom_site_label
_atom_site_type_symbol
_atom_type_description
_atom_site_fract_x
_atom_site_fract_y
_atom_site_fract_z
_atom_type_partial_charge
C1    C     C_R   0.855799 0.285368 0.504604 0.899473
C2    C     C_R   0.916087 0.525244 0.711012 -0.131665
C3    C     C_R   0.000547 0.498533 0.746585 0.319359
C4    C     C_R   0.997433 0.496186 0.898397 -0.045687
C5    C     C_R   0.904686 0.408757 0.874455 -0.023859
C6    C     C_R   0.811760 0.320602 0.901376 -0.133916
C7    C     C_R   0.090369 0.585371 0.870923 -0.031528
C8    C     C_R   0.001601 0.501677 0.645304 -0.071600
C9    C     C_R   0.997428 0.495629 0.355190 -0.032257
C10   C     C_R   0.910011 0.396159 0.029373 -0.009362
C11   C     C_R   0.083984 0.587237 0.023266 0.054952
C12   C     C_R   0.000669 0.500928 0.592322 0.842922
C13   C     C_R   0.996589 0.490624 0.051779 0.073258
C14   C     C_R   0.831480 0.298270 0.059963 -0.229792
C15   C     C_R   0.831767 0.294618 0.110439 0.312691
C16   C     C_R   0.912697 0.391210 0.132727 -0.110017
C17   C     C_R   0.995865 0.488737 0.103147 -0.084928
C18   C     C_R   0.078646 0.585064 0.124901 -0.002116
C19   C     C_R   0.077455 0.583562 0.175284 0.516944
C20   C     C_R   0.914891 0.394809 0.183418 0.619897
C21   C     C_R   0.954956 0.562427 0.267374 -0.146576
C22   C     C_R   0.954489 0.564618 0.317166 -0.189454
C23   C     C_R   0.144348 0.714245 0.496509 0.829006
C24   C     C_R   0.037035 0.421399 0.342757 -0.265821
C25   C     C_R   0.038984 0.419176 0.292862 0.304602
C26   C     C_R   0.997695 0.490594 0.254900 0.328059
C27   C     C_R   0.905660 0.401335 0.977377 0.060320
C28   C     C_R   0.997189 0.494486 0.949695 0.074946
C29   C     C_R   0.088473 0.585941 0.972731 0.041241
C30   C     C_R   0.811830 0.316918 0.951744 -0.196782
C31   C     C_R   0.182480 0.672433 0.894416 -0.132619
C32   C     C_R   0.163537 0.682774 0.046302 -0.199717
C33   C     C_R   0.160803 0.681424 0.096049 -0.130797
C34   C     C_R   0.999786 0.499626 0.407742 0.823674
C35   C     C_R   0.181883 0.672847 0.944280 -0.197457
C36   C     C_R   0.280160 0.038085 0.455364 -0.209555
C37   C     C_R   0.226639 0.838944 0.497040 -0.151620
C38   C     C_R   0.812495 0.080310 0.546832 0.197540
C39   C     C_R   0.727026 0.985681 0.575223 0.306474
C40   C     C_R   0.606575 0.966190 0.565833 -0.243747
C41   C     C_R   0.563639 0.022187 0.521766 0.026562
C42   C     C_R   0.649985 0.122310 0.494206 0.014736
C43   C     C_R   0.438029 0.984128 0.504741 0.049274
C44   C     C_R   0.402015 0.062470 0.468097 0.013692
C45   C     C_R   0.906894 0.411783 0.823829 0.526366
C46   C     C_R   0.487268 0.160662 0.441622 -0.193273
C47   C     C_R   0.608586 0.183118 0.450872 0.278806
C48   C     C_R   0.347891 0.869235 0.518983 0.174433
C49   C     C_R   0.191984 0.928702 0.471281 0.230963
C50   C     C_R   0.774660 0.159222 0.511398 -0.196883
C51   C     C_R   0.388070 0.420576 0.598944 0.185138
C52   C     C_R   0.744622 0.630149 0.425728 0.512197
C53   C     C_R   0.639288 0.648141 0.409532 -0.237932
C54   C     C_R   0.545383 0.600627 0.438625 -0.194695
C55   C     C_R   0.550655 0.531008 0.484893 0.002487
C56   C     C_R   0.089446 0.584887 0.820411 0.587673
C57   C     C_R   0.658788 0.513312 0.502402 0.184179
C58   C     C_R   0.453254 0.485653 0.515605 -0.072645
C59   C     C_R   0.478241 0.455901 0.567280 0.019791
C60   C     C_R   0.588523 0.450727 0.585679 -0.196132
C61   C     C_R   0.663990 0.455348 0.553253 0.232732
C62   C     C_R   0.331664 0.466775 0.496549 0.394012
C63   C     C_R   0.274502 0.413768 0.578673 -0.055963
C64   C     C_R   0.086912 0.473727 0.731550 0.302606
C65   C     C_R   0.087309 0.476294 0.680940 -0.288640
C66   C     C_R   0.916650 0.527072 0.660777 -0.161166
Cu1   Cu    Cu3+1 0.098270 0.475420 0.511360 0.935225
Cu2   Cu    Cu3+1 0.901730 0.524580 0.488640 1.017343
H1    H     H_    0.850609 0.548528 0.634135 0.183981
H2    H     H_    0.256054 0.741003 0.874330 0.192400
H3    H     H_    0.227628 0.761759 0.026618 0.146288
H4    H     H_    0.065068 0.364156 0.371789 0.160068
H5    H     H_    0.223917 0.757025 0.111832 0.196243
H6    H     H_    0.257981 0.741437 0.959694 0.145379
H7    H     H_    0.458237 0.213408 0.410127 0.171913
H8    H     H_    0.253227 0.102799 0.430821 0.168451
H9    H     H_    0.850126 0.545154 0.722402 0.177718
H10   H     H_    0.548400 0.905934 0.593461 0.203492
H11   H     H_    0.208840 0.388736 0.604270 0.167102
H12   H     H_    0.604075 0.418085 0.624893 0.227877
H13   H     H_    0.738078 0.253584 0.883596 0.193842
H14   H     H_    0.471758 0.626112 0.425510 0.163916
H15   H     H_    0.628623 0.701952 0.374311 0.165981
H16   H     H_    0.921869 0.621039 0.325905 0.182944
H17   H     H_    0.922016 0.616627 0.238325 0.159848
H18   H     H_    0.770097 0.220374 0.045945 0.169808
H19   H     H_    0.734927 0.247979 0.969216 0.148704
H20   H     H_    0.153914 0.456910 0.669772 0.168914
N1    N     N_R   0.999051 0.498368 0.798090 -0.458624
N2    N     N_R   0.996959 0.489349 0.203340 -0.464287
N3    N     N_R   0.246290 0.438210 0.528570 -0.214707
N4    N     N_R   0.754320 0.561170 0.471730 -0.224324
O1    O     O_R   0.972510 0.318140 0.514280 -0.585936
O2    O     O_2   0.835425 0.306188 0.212781 -0.453286
O3    O     O_2   0.177722 0.670453 0.793699 -0.520130
O4    O     O_2   0.156924 0.675276 0.196362 -0.535138
O5    O     O_R   0.806530 0.359640 0.495100 -0.514862
O6    O     O_R   0.082990 0.479270 0.579320 -0.619016
O7    O     O_R   0.917010 0.520770 0.560140 -0.554981
O8    O     O_R   0.193470 0.640360 0.504900 -0.554007
O9    O     O_R   0.027490 0.681860 0.485720 -0.575530
O10   O     O_R   0.082990 0.479230 0.439860 -0.600274
O11   O     O_R   0.917010 0.520730 0.420680 -0.554955
O12   O     O_2   0.818583 0.328081 0.800623 -0.517464
N5    N     N_2   0.174256 0.447664 0.767113 -0.415465
H21   H     H_    0.255784 0.475004 0.753270 0.279709
C67   C     C_3   0.131144 0.328231 0.792793 -0.610755
H22   H     H_    0.051245 0.304604 0.812322 0.241930
H23   H     H_    0.107003 0.269165 0.765891 0.235454
H24   H     H_    0.203119 0.316625 0.821054 0.235788
N6    N     N_2   0.080594 0.343965 0.281001 -0.411519
H25   H     H_    0.062709 0.267791 0.306625 0.266404
C68   C     C_3   0.205047 0.399738 0.269949 -0.654275
H26   H     H_    0.228809 0.336387 0.259337 0.240710
H27   H     H_    0.265620 0.431344 0.303255 0.221105
H28   H     H_    0.219249 0.473769 0.238328 0.253070
Br1   Br    Br    0.028286 0.911334 0.455313 -0.544611
N7    N     N_2   0.379282 0.779882 0.549865 -0.433048
H29   H     H_    0.451279 0.768325 0.542972 0.266941
C69   C     C_3   0.328436 0.724699 0.597307 -0.575446
H30   H     H_    0.398676 0.751301 0.628657 0.226793
H31   H     H_    0.293722 0.629351 0.601315 0.245898
H32   H     H_    0.253738 0.746818 0.600313 0.214607
N8    N     N_2   0.934106 0.093472 0.553190 -0.395860
H33   H     H_    0.980490 0.129813 0.521866 0.273877
C70   C     C_3   0.004722 0.125101 0.599453 -0.502048
H34   H     H_    0.088443 0.203794 0.591275 0.200398
H35   H     H_    0.030472 0.054025 0.620223 0.259041
H36   H     H_    0.954582 0.142422 0.623266 0.226910
Br2   Br    Br    0.769265 0.878867 0.627208 -0.488139
Br3   Br    Br    0.706093 0.279532 0.397276 -0.500797
Br4   Br    Br    0.413277 0.382443 0.670375 -0.520279
N9    N     N_2   0.294552 0.446840 0.446902 -0.441851
H37   H     H_    0.265521 0.503586 0.421843 0.265267
C71   C     C_3   0.234644 0.325835 0.442192 -0.641037
H38   H     H_    0.229853 0.318291 0.402860 0.211142
H39   H     H_    0.142166 0.286322 0.454114 0.242554
H40   H     H_    0.286483 0.277506 0.465494 0.233271
N10   N     N_2   0.840947 0.684243 0.394049 -0.411861
H41   H     H_    0.925954 0.709987 0.411710 0.313921
C72   C     C_3   0.835051 0.764906 0.348354 -0.705253
H42   H     H_    0.919628 0.800005 0.330196 0.234541
H43   H     H_    0.825804 0.839415 0.356592 0.264543
H44   H     H_    0.759143 0.719763 0.321783 0.238822
Br5   Br    Br    0.696545 0.320256 0.578313 -0.504370
Br6   Br    Br    0.718409 0.150914 0.145011 -0.408797

loop_
_geom_bond_atom_site_label_1
_geom_bond_atom_site_label_2
_ccdc_geom_bond_type
C10   C27   A    
C58   C62   A    
C56   O3    S    
C21   C26   A    
C35   H6    S    
C8    C66   A    
C70   H34   S    
C57   N4    A    
C71   H40   S    
C67   H23   S    
C41   C42   A    
N6    H25   S    
Cu2   O11   S    
C71   H38   S    
C63   H11   S    
C53   C54   A    
C52   C53   A    
N5    C67   S    
C34   O10   A    
C62   N9    S    
C28   C29   A    
C72   H43   S    
C5    C6    A    
C9    C22   A    
C66   H1    S    
C23   O9    A    
C15   C16   A    
C11   C13   A    
C52   N10   S    
C18   C19   A    
C46   C47   A    
C61   Br5   S    
Cu2   O5    S    
C12   O7    A    
C36   H8    S    
Cu1   O6    S    
N7    H29   S    
C31   H2    S    
C49   Br1   S    
C44   C46   A    
C16   C17   A    
C67   H22   S    
C45   N1    A    
C43   C48   A    
C12   O6    A    
C69   H32   S    
C8    C12   S    
C68   H28   S    
C23   O8    A    
C59   C60   A    
C6    H13   S    
C21   C22   A    
C27   C30   A    
N9    C71   S    
C41   C43   A    
C7    C56   A    
C4    C7    A    
C51   Br4   S    
C46   H7    S    
C4    C28   A    
C69   H31   S    
C32   H3    S    
C3    N1    S    
C21   H17   S    
C7    C31   A    
Cu1   Cu2   S    
C64   N5    S    
C51   C63   A    
Cu2   O9    S    
C14   H18   S    
C10   C14   A    
C72   H44   S    
C1    O5    A    
C39   C40   A    
C48   N7    S    
C70   H36   S    
C58   C59   A    
C23   C37   S    
C20   N2    A    
C47   Br3   S    
C60   C61   A    
C22   H16   S    
C43   C44   A    
C36   C49   A    
C45   O12   S    
C37   C49   A    
C16   C20   A    
C62   N3    A    
Cu1   N3    S    
C17   C18   A    
N6    C68   S    
C24   C25   A    
C37   C48   A    
Cu1   O8    S    
C42   C50   A    
C33   H5    S    
C56   N1    A    
C6    C30   A    
C11   C32   A    
C55   C57   A    
N9    H37   S    
C67   H24   S    
C31   C35   A    
C36   C44   A    
C51   C59   A    
C54   H14   S    
C69   H30   S    
C24   H4    S    
C65   H20   S    
N8    C70   S    
C68   H26   S    
C1    C50   S    
C71   H39   S    
C20   O2    S    
C54   C55   A    
C60   H12   S    
C70   H35   S    
C4    C5    A    
C2    C66   A    
C10   C13   A    
C15   Br6   S    
N10   H41   S    
C9    C24   A    
C57   C61   A    
C38   C50   A    
C39   Br2   S    
C26   N2    S    
N5    H21   S    
C29   C35   A    
C34   O11   A    
C13   C17   A    
C53   H15   S    
C32   C33   A    
C2    C3    A    
C25   C26   A    
Cu2   O7    S    
C19   N2    A    
C72   H42   S    
C64   C65   A    
N10   C72   S    
C38   C39   A    
C5    C45   A    
Cu2   N4    S    
C9    C34   S    
C40   H10   S    
C42   C47   A    
C3    C64   A    
C18   C33   A    
N7    C69   S    
C52   N4    A    
C25   N6    S    
C8    C65   A    
C11   C29   A    
C1    O1    A    
C55   C58   A    
C63   N3    A    
C27   C28   A    
Cu1   O1    S    
C2    H9    S    
C14   C15   A    
C40   C41   A    
C30   H19   S    
C38   N8    S    
C19   O4    S    
Cu1   O10   S    
N8    H33   S    
C68   H27   S    
