data_mof_unit_39608.cif
_audit_creation_date              2012-12-10T17:03:53-0500
_audit_creation_method            fapswitch 2.2
_symmetry_space_group_name_H-M    P1
_symmetry_Int_Tables_number       1
_space_group_crystal_system       triclinic
_cell_length_a                    9.792459
_cell_length_b                    11.036908
_cell_length_c                    15.903088
_cell_angle_alpha                 94.62868
_cell_angle_beta                  79.531953
_cell_angle_gamma                 111.335306
_cell_volume                      1574.14240444

loop_
_atom_site_label
_atom_site_type_symbol
_atom_type_description
_atom_site_fract_x
_atom_site_fract_y
_atom_site_fract_z
_atom_type_partial_charge
C1    C     C_R   0.556399 0.745540 0.505934 0.858878
C2    C     C_R   0.443971 0.254520 0.493475 0.859544
C3    C     C_R   0.328141 0.393709 0.066195 0.621384
C4    C     C_R   0.675716 0.602737 0.931897 0.634367
C5    C     C_R   0.220265 0.379860 0.015329 0.306783
C6    C     C_R   0.781148 0.622588 0.985146 0.324821
C7    C     C_2   0.588711 0.884820 0.508542 -0.337496
C8    C     C_2   0.412585 0.115377 0.489421 -0.334215
C9    C     C_2   0.485575 0.930719 0.496376 -0.147636
C10   C     C_2   0.517131 0.069696 0.499260 -0.152052
C11   C     C_2   0.922639 0.489751 0.492923 -0.071372
C12   C     C_2   0.076956 0.509578 0.507475 -0.065484
C13   C     C_R   0.411399 0.484485 0.662731 0.838589
C14   C     C_R   0.588520 0.515147 0.337276 0.831573
C15   C     C_R   0.359899 0.470953 0.755722 -0.209052
C16   C     C_R   0.640322 0.528844 0.244371 -0.190076
C17   C     C_R   0.161853 0.408415 0.877207 -0.095261
C18   C     C_R   0.839374 0.595895 0.123801 -0.173112
C19   C     C_R   0.208959 0.435805 0.790364 -0.278349
C20   C     C_R   0.791879 0.568779 0.210538 -0.315036
C21   C     C_R   0.463671 0.487704 0.810433 0.685047
C22   C     C_R   0.536420 0.507762 0.189045 0.675312
C23   C     C_R   0.420122 0.483171 0.899560 -0.061693
C24   C     C_R   0.581642 0.515803 0.099993 -0.052537
C25   C     C_R   0.266304 0.426910 0.931745 -0.098151
C26   C     C_R   0.735335 0.575045 0.068697 -0.112750
C27   C     C_R   0.525369 0.520869 0.956695 -0.191390
C28   C     C_R   0.477408 0.477900 0.042258 -0.183369
Cu1   Cu    Cu3+1 0.362980 0.479380 0.485080 0.990437
Cu2   Cu    Cu3+1 0.637020 0.520620 0.514920 0.993809
H1    H     H_    0.874063 0.586364 0.251769 0.190337
H2    H     H_    0.126712 0.421134 0.749605 0.195250
H3    H     H_    0.043639 0.370848 0.901247 0.193840
H4    H     H_    0.957701 0.635850 0.100417 0.183287
H5    H     H_    0.626693 0.134982 0.510043 0.184305
H6    H     H_    0.376586 0.865523 0.484599 0.184474
H7    H     H_    0.303266 0.049829 0.478556 0.154671
H8    H     H_    0.697461 0.950272 0.520406 0.155371
H9    H     H_    0.122979 0.577424 0.557196 0.164331
H10   H     H_    0.876152 0.421222 0.443670 0.156437
H11   H     H_    0.110884 0.384698 0.415719 0.216445
H12   H     H_    0.889522 0.616044 0.583837 0.224314
N1    N     N_2   0.842890 0.551600 0.537350 -0.266925
N2    N     N_2   0.157110 0.448400 0.462650 -0.273233
O1    O     O_R   0.426810 0.668300 0.492040 -0.582821
O2    O     O_R   0.573190 0.331700 0.507960 -0.580128
O3    O     O_R   0.658240 0.703130 0.517240 -0.573665
O4    O     O_R   0.341760 0.296870 0.482760 -0.573570
O5    O     O_R   0.319390 0.472820 0.610170 -0.596790
O6    O     O_R   0.680610 0.527180 0.389830 -0.599191
O7    O     O_R   0.550820 0.507640 0.635370 -0.491182
O8    O     O_R   0.449180 0.492360 0.364630 -0.494720
O9    O     O_3   0.074998 0.296515 0.039560 -0.618871
C29   C     C_3   0.004182 0.344082 0.113380 0.107180
H13   H     H_    0.920179 0.376488 0.093471 0.159317
H14   H     H_    0.079951 0.428509 0.146104 0.156457
C30   C     C_3   0.924416 0.233384 0.176917 -0.281350
H15   H     H_    0.847789 0.149420 0.144985 0.214845
H16   H     H_    0.007498 0.201095 0.198203 0.265288
C31   C     C_3   0.835435 0.275548 0.255082 -0.920808
H17   H     H_    0.908839 0.361987 0.286637 0.253734
H18   H     H_    0.785323 0.195157 0.301636 0.255551
H19   H     H_    0.744532 0.299121 0.235945 0.266074
O10   O     O_3   0.929458 0.691286 0.955112 -0.580389
C32   C     C_3   0.959638 0.825021 0.973847 0.079058
H20   H     H_    0.931570 0.842246 0.043837 0.129066
H21   H     H_    0.894965 0.863025 0.939067 0.188132
C33   C     C_3   0.125203 0.899802 0.945274 -0.352383
H22   H     H_    0.191036 0.862531 0.979433 0.225633
H23   H     H_    0.154941 0.884041 0.875462 0.243221
C34   C     C_3   0.164948 0.045342 0.963887 -0.819357
H24   H     H_    0.102357 0.085185 0.929071 0.271647
H25   H     H_    0.285702 0.096847 0.942493 0.255993
H26   H     H_    0.138524 0.063484 0.033614 0.287569
F1    F     F_    0.394941 0.498361 0.222265 -0.635709
F2    F     F_    0.601411 0.487275 0.776807 -0.610761
F3    F     F_    0.288513 0.313864 0.134071 -0.640323
F4    F     F_    0.720585 0.672799 0.859089 -0.621162

loop_
_geom_bond_atom_site_label_1
_geom_bond_atom_site_label_2
_ccdc_geom_bond_type
Cu2   O7    S    
C18   C26   A    
Cu1   O5    S    
O9    C29   S    
C2    O2    A    
C15   C19   A    
C21   F2    S    
C31   H19   S    
C22   C24   A    
C5    O9    S    
C3    C28   A    
C24   C26   A    
C30   H16   S    
C31   H18   S    
C6    O10   S    
C13   O7    A    
C14   O8    A    
C33   H22   S    
C32   H21   S    
C9    H6    S    
C11   N1    D    
C10   H5    S    
C23   C27   A    
C9    C10   S    
Cu2   O6    S    
C17   H3    S    
C22   F1    S    
C19   H2    S    
C29   H14   S    
Cu1   O4    S    
Cu2   O3    S    
C4    C6    A    
C34   H25   S    
C1    O3    A    
C30   C31   S    
C2    O4    A    
Cu1   O1    S    
C31   H17   S    
C4    F4    S    
Cu1   Cu2   S    
C16   C20   A    
C32   C33   S    
C6    C26   A    
C18   H4    S    
C13   O5    A    
C5    C25   A    
C8    C10   D    
C21   C23   A    
Cu1   N2    S    
H11   N2    S    
C14   C16   S    
Cu2   N1    S    
H12   N1    S    
C3    F3    S    
C4    C27   A    
C7    C9    D    
C29   H13   S    
C16   C22   A    
C1    C7    S    
Cu2   O2    S    
C2    C8    S    
C24   C28   A    
C3    C5    A    
C34   H26   S    
C11   C12   S    
C17   C25   A    
O10   C32   S    
C12   H9    S    
C13   C15   S    
C34   H24   S    
C12   N2    D    
C29   C30   S    
C1    O1    A    
C30   H15   S    
C14   O6    A    
C33   C34   S    
C17   C19   A    
C7    H8    S    
C18   C20   A    
C23   C25   A    
C11   H10   S    
C15   C21   A    
C33   H23   S    
C32   H20   S    
C8    H7    S    
C27   C28   A    
Cu1   O8    S    
C20   H1    S    
