data_mof_unit_55205.cif
_audit_creation_date              2012-12-11T14:58:42-0500
_audit_creation_method            fapswitch 2.2
_symmetry_space_group_name_H-M    P1
_symmetry_Int_Tables_number       1
_space_group_crystal_system       triclinic
_cell_length_a                    10.948837
_cell_length_b                    10.91139
_cell_length_c                    18.799645
_cell_angle_alpha                 90.341404
_cell_angle_beta                  90.811423
_cell_angle_gamma                 59.724405
_cell_volume                      1939.41883568

loop_
_atom_site_label
_atom_site_type_symbol
_atom_type_description
_atom_site_fract_x
_atom_site_fract_y
_atom_site_fract_z
_atom_type_partial_charge
C1    C     C_R   0.359785 0.769210 0.396152 0.537494
C2    C     C_R   0.236563 0.433308 0.201359 -0.155374
C3    C     C_R   0.236403 0.437544 0.275432 -0.041542
C4    C     C_R   0.385290 0.353852 0.387816 0.532517
C5    C     C_R   0.878385 0.762543 0.387524 -0.114209
C6    C     C_R   0.941862 0.621552 0.409931 -0.096268
C7    C     C_R   0.052034 0.514040 0.370944 -0.053966
C8    C     C_R   0.106486 0.548083 0.311695 0.046332
C9    C     C_R   0.361515 0.339634 0.312351 -0.002942
C10   C     C_R   0.861877 0.227785 0.296279 -0.145250
C11   C     C_R   0.883619 0.215549 0.223695 -0.132061
C12   C     C_R   0.614022 0.130248 0.165169 0.051622
C13   C     C_R   0.861205 0.334170 0.183846 0.025292
C14   C     C_R   0.813194 0.465301 0.216381 -0.138814
C15   C     C_R   0.792887 0.477064 0.288496 -0.123425
C16   C     C_R   0.774162 0.381058 0.401972 0.542146
C17   C     C_R   0.818667 0.358099 0.329005 0.030246
C18   C     C_R   0.342697 0.710562 0.272939 -0.122095
C19   C     C_R   0.339824 0.733620 0.200569 -0.144762
C20   C     C_R   0.357082 0.844113 0.176051 0.033122
C21   C     C_R   0.385686 0.926064 0.224107 -0.132840
C22   C     C_R   0.387809 0.902993 0.297064 -0.153581
C23   C     C_R   0.354963 0.330950 0.163765 -0.005725
C24   C     C_R   0.358970 0.799589 0.321315 0.038239
C25   C     C_R   0.380411 0.199065 0.693474 -0.139356
C26   C     C_R   0.368071 0.185671 0.765363 -0.122085
C27   C     C_R   0.297260 0.307044 0.808548 0.030912
C28   C     C_R   0.345359 0.768258 0.604984 0.546871
C29   C     C_R   0.228168 0.442036 0.778403 -0.159174
C30   C     C_R   0.239304 0.455602 0.705854 -0.135032
C31   C     C_R   0.321388 0.333983 0.664035 0.029654
C32   C     C_R   0.906953 0.394520 0.707953 -0.130606
C33   C     C_R   0.943977 0.376124 0.779268 -0.131147
C34   C     C_R   0.481889 0.242988 0.274168 -0.149231
C35   C     C_R   0.921162 0.283768 0.820861 0.027823
C36   C     C_R   0.870680 0.201042 0.788945 -0.135334
C37   C     C_R   0.831242 0.221006 0.717191 -0.136881
C38   C     C_R   0.843291 0.322917 0.677339 0.026982
C39   C     C_R   0.196207 0.848689 0.710981 -0.137127
C40   C     C_R   0.368955 0.350551 0.595446 0.545612
C41   C     C_R   0.185617 0.859454 0.784078 -0.137514
C42   C     C_R   0.300484 0.842590 0.825431 0.034100
C43   C     C_R   0.427897 0.809836 0.793018 -0.140734
C44   C     C_R   0.439173 0.797357 0.719766 -0.141785
C45   C     C_R   0.482152 0.238967 0.200720 -0.030984
C46   C     C_R   0.323548 0.815828 0.678336 0.029623
C47   C     C_R   0.912018 0.314935 0.112117 0.554743
C48   C     C_R   0.328858 0.295010 0.092375 0.541167
C49   C     C_R   0.309526 0.897527 0.104825 0.547039
C50   C     C_R   0.948503 0.280217 0.897196 0.571575
C51   C     C_R   0.292470 0.285381 0.883876 0.538656
C52   C     C_R   0.768581 0.373530 0.609341 0.547816
C53   C     C_R   0.275483 0.893396 0.898071 0.538773
C54   C     C_R   0.845425 0.919450 0.089768 -0.108157
C55   C     C_R   0.779916 0.060864 0.067819 -0.083974
C56   C     C_R   0.040113 0.690482 0.289041 -0.099816
C57   C     C_R   0.667133 0.166562 0.106235 -0.062602
C58   C     C_R   0.926727 0.796772 0.326767 -0.110375
C59   C     C_R   0.681301 0.987281 0.186997 -0.103454
C60   C     C_R   0.796416 0.882776 0.149465 -0.124137
Cr1   Cr    Cr6+3 0.601770 0.606860 0.505860 0.995695
Cr2   Cr    Cr6+3 0.291380 0.601660 0.495070 1.019322
Cr3   Cr    Cr6+3 0.606880 0.291510 0.499120 1.007349
Cr4   Cr    Cr6+3 0.062440 0.063090 0.008210 0.980639
Cr5   Cr    Cr6+3 0.062880 0.375170 0.998920 1.000092
Cr6   Cr    Cr6+3 0.374700 0.061720 0.992470 1.018909
H1    H     H_    0.580553 0.172033 0.301467 0.140844
H2    H     H_    0.317203 0.670214 0.164004 0.113486
H3    H     H_    0.395236 0.014550 0.205497 0.136419
H4    H     H_    0.846082 0.772918 0.165951 0.109727
H5    H     H_    0.405859 0.968755 0.334168 0.110748
H6    H     H_    0.442492 0.104720 0.661803 0.122256
H7    H     H_    0.417279 0.079674 0.787492 0.140570
H8    H     H_    0.170210 0.535852 0.810965 0.117005
H9    H     H_    0.192654 0.561465 0.683708 0.139913
H10   H     H_    0.919518 0.471992 0.678070 0.129168
H11   H     H_    0.984132 0.439635 0.802888 0.135212
H12   H     H_    0.792261 0.845325 0.417444 0.104391
H13   H     H_    0.854465 0.127283 0.819982 0.125478
H14   H     H_    0.782841 0.164044 0.694404 0.131167
H15   H     H_    0.105927 0.861658 0.680281 0.127469
H16   H     H_    0.877924 0.906098 0.309558 0.104930
H17   H     H_    0.517184 0.798331 0.824114 0.128446
H18   H     H_    0.539588 0.768944 0.695974 0.134998
H19   H     H_    0.815927 0.088440 0.020611 0.150984
H20   H     H_    0.617442 0.275721 0.088406 0.102145
H21   H     H_    0.078078 0.720195 0.243162 0.103686
H22   H     H_    0.642718 0.955854 0.232009 0.099576
H23   H     H_    0.906590 0.595810 0.458042 0.132821
H24   H     H_    0.139063 0.504384 0.173191 0.136836
H25   H     H_    0.085351 0.887151 0.807770 0.125997
H26   H     H_    0.933381 0.838180 0.060168 0.108506
H27   H     H_    0.099138 0.405140 0.388839 0.099032
H28   H     H_    0.878201 0.136545 0.326626 0.119479
H29   H     H_    0.922591 0.112326 0.199436 0.151821
H30   H     H_    0.795168 0.557796 0.186559 0.130242
H31   H     H_    0.753121 0.581073 0.311966 0.153917
H32   H     H_    0.330431 0.624069 0.291594 0.142030
O1    O     O_R   0.748800 0.497470 0.428000 -0.542657
O2    O     O_R   0.417600 0.174890 0.067840 -0.501685
O3    O     O_R   0.375320 0.946260 0.070860 -0.495496
O4    O     O_R   0.476420 0.724060 0.429470 -0.504500
O5    O     O_R   0.160600 0.919630 0.926660 -0.538468
O6    O     O_R   0.933060 0.190520 0.936020 -0.524443
O7    O     O_R   0.908880 0.403460 0.925020 -0.516690
O8    O     O_R   0.179600 0.361450 0.918490 -0.528116
O9    O     O_R   0.391510 0.170860 0.907530 -0.523337
O10   O     O_R   0.351130 0.942530 0.922260 -0.510809
O11   O     O_3   0.166667 0.166667 0.999870 -0.266007
O12   O     O_R   0.300070 0.471040 0.567100 -0.510700
O13   O     O_R   0.264580 0.744340 0.416750 -0.509138
O14   O     O_R   0.309380 0.472470 0.418200 -0.494873
O15   O     O_R   0.501710 0.260430 0.414300 -0.534037
O16   O     O_R   0.728090 0.305600 0.428960 -0.504387
O17   O     O_R   0.738760 0.495930 0.588610 -0.530465
O18   O     O_R   0.467110 0.722640 0.578360 -0.506358
O19   O     O_R   0.254530 0.742800 0.577360 -0.527510
O20   O     O_R   0.491670 0.258900 0.574910 -0.520676
O21   O     O_R   0.718780 0.304180 0.577850 -0.502045
O22   O     O_3   0.500010 0.500010 0.500020 -0.242040
O23   O     O_R   0.186690 0.923650 0.086970 -0.521018
O24   O     O_R   0.957250 0.194250 0.084630 -0.513460
O25   O     O_R   0.934970 0.407490 0.085330 -0.520381
O26   O     O_R   0.203780 0.365190 0.067090 -0.508010

loop_
_geom_bond_atom_site_label_1
_geom_bond_atom_site_label_2
_ccdc_geom_bond_type
C25   C31   A    
Cr4   O5    S    
C40   O20   A    
C50   O6    A    
C23   C45   A    
C27   C29   A    
C43   H17   S    
C41   C42   A    
Cr5   O8    S    
C19   C20   A    
Cr6   O9    S    
C8    C56   A    
C7    C8    A    
C39   C41   A    
C54   C60   A    
C57   H20   S    
C28   C46   S    
C26   C27   A    
C29   C30   A    
C5    C58   A    
C18   C24   A    
C36   C37   A    
C37   C38   A    
C28   O19   A    
C58   H16   S    
C42   C53   S    
C49   O3    A    
C30   C31   A    
C38   C52   S    
C10   H28   S    
C10   C17   A    
Cr6   O2    S    
Cr4   O23   S    
C26   H7    S    
C31   C40   S    
C15   C17   A    
C18   C19   A    
Cr5   O26   S    
C14   H30   S    
C2    H24   S    
C59   H22   S    
Cr2   O19   S    
C28   O18   A    
C12   C59   A    
Cr2   O13   S    
C35   C36   A    
C27   C51   S    
C16   C17   S    
Cr1   O17   S    
C50   O7    A    
C32   C38   A    
Cr2   O22   S    
C4    O14   A    
C59   C60   A    
C21   C22   A    
Cr1   O22   S    
Cr3   O16   S    
Cr6   O3    S    
Cr1   O1    S    
C15   H31   S    
C7    H27   S    
Cr5   O7    S    
C44   C46   A    
C48   O2    A    
C37   H14   S    
C4    O15   A    
C39   H15   S    
C3    C8    S    
C13   C47   S    
Cr3   O20   S    
C47   O24   A    
C40   O12   A    
C29   H8    S    
C44   H18   S    
C25   C26   A    
C21   H3    S    
C55   H19   S    
C43   C44   A    
C54   H26   S    
C20   C49   S    
C3    C9    A    
Cr3   O21   S    
C47   O25   A    
Cr2   O12   S    
C60   H4    S    
C49   O23   A    
C35   C50   S    
Cr2   O14   S    
C19   H2    S    
C25   H6    S    
Cr5   O11   S    
C34   C45   A    
C39   C46   A    
C12   C57   A    
C41   H25   S    
C55   C57   A    
C9    C34   A    
C22   C24   A    
C42   C43   A    
C22   H5    S    
C52   O17   A    
C11   H29   S    
Cr4   O6    S    
C54   C55   A    
C23   C48   S    
Cr1   O18   S    
Cr6   O10   S    
C12   C45   S    
C56   H21   S    
C36   H13   S    
C16   O16   A    
C34   H1    S    
C32   H10   S    
C16   O1    A    
C6    C7    A    
C6    H23   S    
C32   C33   A    
Cr1   O4    S    
C4    C9    S    
C1    O13   A    
Cr3   O22   S    
C11   C13   A    
C53   O10   A    
C33   H11   S    
Cr4   O11   S    
C5    C6    A    
C53   O5    A    
C51   O8    A    
Cr4   O24   S    
C33   C35   A    
C56   C58   A    
C2    C3    A    
Cr5   O25   S    
Cr6   O11   S    
C10   C11   A    
Cr3   O15   S    
C52   O21   A    
C30   H9    S    
C20   C21   A    
C1    C24   S    
C51   O9    A    
C48   O26   A    
C2    C23   A    
C14   C15   A    
C18   H32   S    
C5    H12   S    
C13   C14   A    
C1    O4    A    
