data_mof_unit_48668.cif
_audit_creation_date              2012-10-26T18:32:03-0400
_audit_creation_method            fapswitch 2.2
_symmetry_space_group_name_H-M    P1
_symmetry_Int_Tables_number       1
_space_group_crystal_system       triclinic
_cell_length_a                    12.499519
_cell_length_b                    13.486043
_cell_length_c                    14.42642
_cell_angle_alpha                 95.651545
_cell_angle_beta                  108.0878
_cell_angle_gamma                 117.438005
_cell_volume                      1965.74656131

loop_
_atom_site_label
_atom_site_type_symbol
_atom_type_description
_atom_site_fract_x
_atom_site_fract_y
_atom_site_fract_z
_atom_type_partial_charge
C1    C     C_R   0.649735 0.713769 0.506975 0.535957
C2    C     C_R   0.152170 0.420710 0.996394 -0.010342
C3    C     C_R   0.137134 0.479702 0.073248 0.017717
C4    C     C_R   0.614377 0.512157 0.685873 0.558578
C5    C     C_R   0.244907 0.386911 0.021936 -0.052034
C6    C     C_R   0.318603 0.404361 0.123123 0.274486
C7    C     C_R   0.231219 0.517454 0.175046 -0.064056
C8    C     C_R   0.199037 0.960925 0.447013 0.303803
C9    C     C_R   0.252532 0.161822 0.472084 -0.012142
C10   C     C_R   0.726641 0.929063 0.556904 -0.011574
C11   C     C_R   0.829813 0.044115 0.586275 -0.118255
C12   C     C_R   0.844059 0.494486 0.916376 -0.006411
C13   C     C_R   0.938684 0.071205 0.564634 -0.051196
C14   C     C_R   0.941550 0.985269 0.503591 0.065177
C15   C     C_R   0.838930 0.867745 0.473903 -0.027083
C16   C     C_R   0.344410 0.285153 0.484171 0.582769
C17   C     C_R   0.048047 0.013869 0.474627 -0.009048
C18   C     C_R   0.071442 0.926031 0.443139 0.069643
C19   C     C_R   0.962462 0.810238 0.402120 0.273437
C20   C     C_R   0.842275 0.786664 0.406378 -0.004412
C21   C     C_R   0.126181 0.125866 0.469063 0.196100
C22   C     C_R   0.290130 0.079136 0.466004 -0.101880
C23   C     C_R   0.796843 0.509763 0.990649 0.048624
C24   C     C_R   0.735079 0.837246 0.508720 -0.011476
C25   C     C_R   0.265738 0.699769 0.657273 0.012959
C26   C     C_R   0.652271 0.333188 0.366336 0.391527
C27   C     C_R   0.726994 0.308714 0.324030 -0.024150
C28   C     C_R   0.381064 0.482277 0.312506 0.564041
C29   C     C_R   0.863730 0.381810 0.363931 -0.038586
C30   C     C_R   0.929435 0.475366 0.454387 -0.009892
C31   C     C_R   0.848400 0.506103 0.489642 0.100320
C32   C     C_R   0.071995 0.539883 0.511843 -0.027400
C33   C     C_R   0.132014 0.645230 0.588714 0.013740
C34   C     C_R   0.948036 0.470338 0.940556 0.031455
C35   C     C_R   0.055635 0.691069 0.598432 0.197542
C36   C     C_R   0.920700 0.616543 0.568122 0.006983
C37   C     C_R   0.158684 0.503602 0.499389 0.039767
C38   C     C_R   0.343966 0.660382 0.638426 0.373363
C39   C     C_R   0.673761 0.512359 0.792096 -0.038555
C40   C     C_R   0.311182 0.468449 0.202475 0.003953
C41   C     C_R   0.682340 0.516835 0.963268 0.234804
C42   C     C_R   0.616626 0.511579 0.862762 -0.000436
C43   C     C_R   0.789230 0.508378 0.821698 -0.118907
C44   C     C_1   0.613716 0.911233 0.576281 0.302767
C45   C     C_R   0.026352 0.494400 0.045355 0.035666
C46   C     C_1   0.721560 0.697211 0.323547 0.306518
C47   C     C_1   0.267124 0.622983 0.245214 0.226533
C48   C     C_1   0.320727 0.785282 0.754007 0.335063
C49   C     C_1   0.929913 0.362434 0.303810 0.220375
C50   C     C_1   0.661158 0.207036 0.236768 0.313977
C51   C     C_1   0.880294 0.661373 0.636439 0.314334
C52   C     C_1   0.490244 0.503236 0.834019 0.338379
C53   C     C_1   0.879074 0.359823 0.759369 0.172631
C54   C     C_R   0.981465 0.517524 0.118460 -0.086750
C55   C     C_R   0.865239 0.517890 0.090717 -0.048354
C56   C     C_R   0.969880 0.413973 0.865298 -0.006932
C57   C     C_R   0.071015 0.390715 0.894361 -0.105530
Cl1   Cl    Cl    0.963683 0.698106 0.329041 -0.559627
Cl2   Cl    Cl    0.257998 0.865623 0.443476 -0.458836
Cl3   Cl    Cl    0.045225 0.200341 0.422377 -0.615038
Cl4   Cl    Cl    0.512012 0.731823 0.721848 -0.514364
Cl5   Cl    Cl    0.128312 0.844362 0.650853 -0.571357
Cl6   Cl    Cl    0.481730 0.229619 0.313828 -0.467098
Cl7   Cl    Cl    0.418395 0.343737 0.142262 -0.429704
Cl8   Cl    Cl    0.619387 0.532718 0.053840 -0.516106
Cu1   Cu    Cu3+1 0.416420 0.526630 0.522910 1.105978
Cu2   Cu    Cu3+1 0.583580 0.473370 0.477090 1.094045
H1    H     H_    0.830551 0.526004 0.149160 0.228837
H2    H     H_    0.254947 0.340368 0.962541 0.171127
H3    H     H_    0.388709 0.105517 0.472249 0.197874
H4    H     H_    0.020309 0.160619 0.595288 0.165021
H5    H     H_    0.827116 0.113787 0.627901 0.147262
H6    H     H_    0.125450 0.424536 0.446539 0.202594
H7    H     H_    0.083249 0.343941 0.836563 0.125080
H8    H     H_    0.838912 0.519869 0.771008 0.156216
H9    H     H_    0.028883 0.526363 0.197523 0.171297
N1    N     N_R   0.290690 0.566960 0.557640 -0.243595
N2    N     N_1   0.389045 0.496024 0.811502 -0.251465
N3    N     N_1   0.806794 0.316262 0.674589 -0.295429
N4    N     N_R   0.709100 0.433710 0.442970 -0.240649
N5    N     N_1   0.523807 0.899620 0.591667 -0.153206
N6    N     N_1   0.624859 0.627468 0.256243 -0.159322
N7    N     N_1   0.297111 0.707777 0.301244 -0.154179
N8    N     N_1   0.365227 0.853130 0.831525 -0.155193
N9    N     N_1   0.980434 0.344169 0.254986 -0.249909
N10   N     N_1   0.608917 0.126241 0.167362 -0.167207
N11   N     N_1   0.858759 0.706566 0.694824 -0.233617
O1    O     O_R   0.545970 0.684450 0.528810 -0.453882
O2    O     O_R   0.687130 0.639470 0.490120 -0.526715
O3    O     O_R   0.519670 0.535100 0.660030 -0.451707
O4    O     O_R   0.660830 0.490120 0.621340 -0.518485
O5    O     O_R   0.312870 0.360530 0.509880 -0.470033
O6    O     O_R   0.454030 0.315550 0.471190 -0.462239
O7    O     O_R   0.339170 0.509880 0.378660 -0.505424
O8    O     O_R   0.480330 0.464900 0.339970 -0.418530

loop_
_geom_bond_atom_site_label_1
_geom_bond_atom_site_label_2
_ccdc_geom_bond_type
C34   C56   A    
C27   C29   A    
C41   C42   A    
C19   C20   A    
C55   H1    S    
C2    C57   A    
C31   N4    A    
Cu1   O3    S    
C29   C49   S    
C12   C23   A    
C26   C27   A    
C28   O8    A    
C53   N3    T    
C9    C16   S    
C12   C43   A    
C3    C7    A    
C8    Cl2   S    
Cu1   O1    S    
C30   C31   A    
C9    C22   A    
C28   C40   S    
Cu2   O2    S    
C56   C57   A    
C28   O7    A    
C18   C19   A    
C6    Cl7   S    
C5    H2    S    
C46   N6    T    
C35   C36   A    
C8    C22   A    
C7    C40   A    
C47   N7    T    
C27   C50   S    
Cu1   O7    S    
C4    O4    A    
C1    O1    A    
Cu1   Cu2   S    
C13   C14   A    
Cu2   O8    S    
C14   C17   A    
C52   N2    T    
C39   C42   A    
C4    O3    A    
C19   Cl1   S    
C43   H8    S    
C15   C20   A    
C10   C44   S    
C49   N9    T    
C21   Cl3   S    
C44   N5    T    
C51   N11   T    
C11   H5    S    
Cu1   O5    S    
C13   H4    S    
C10   C24   A    
C37   N1    A    
C3    C45   A    
C8    C18   A    
C48   N8    T    
C7    C47   S    
C57   H7    S    
C26   Cl6   S    
C29   C30   A    
C25   C38   A    
C4    C39   S    
Cu2   O4    S    
C17   C18   A    
C16   O6    A    
C34   C45   A    
C32   C37   A    
C25   C48   S    
C36   C51   S    
C54   H9    S    
C15   C24   A    
C45   C54   A    
C16   O5    A    
C6    C40   A    
C2    C5    A    
C12   C34   A    
C53   C56   S    
Cu1   N1    S    
C37   H6    S    
C54   C55   A    
C1    O2    A    
C31   C36   A    
Cu2   N4    S    
C39   C43   A    
C23   C55   A    
C38   N1    A    
C23   C41   A    
C32   C33   A    
C38   Cl4   S    
C2    C3    A    
C30   C32   A    
C11   C13   A    
C9    C21   A    
C5    C6    A    
C33   C35   A    
C35   Cl5   S    
C41   Cl8   S    
C26   N4    A    
C10   C11   A    
C50   N10   T    
C1    C24   S    
C42   C52   S    
Cu2   O6    S    
C14   C15   A    
C22   H3    S    
C20   C46   S    
C25   C33   A    
C17   C21   A    
