data_mof_unit_32128.cif
_audit_creation_date              2012-12-11T14:01:18-0500
_audit_creation_method            fapswitch 2.2
_symmetry_space_group_name_H-M    P1
_symmetry_Int_Tables_number       1
_space_group_crystal_system       triclinic
_cell_length_a                    19.170652
_cell_length_b                    10.82471
_cell_length_c                    18.974131
_cell_angle_alpha                 90.012055
_cell_angle_beta                  90.498623
_cell_angle_gamma                 90.044647
_cell_volume                      3937.29957941

loop_
_atom_site_label
_atom_site_type_symbol
_atom_type_description
_atom_site_fract_x
_atom_site_fract_y
_atom_site_fract_z
_atom_type_partial_charge
C1    C     C_R   0.272251 0.044857 0.852648 0.531568
C2    C     C_R   0.727754 0.044837 0.147359 0.533043
C3    C     C_R   0.772250 0.544859 0.852646 0.532042
C4    C     C_R   0.227754 0.544836 0.147358 0.532726
C5    C     C_R   0.536118 0.066339 0.062563 -0.100045
C6    C     C_R   0.463882 0.066257 0.937563 -0.101172
C7    C     C_R   0.036107 0.566336 0.062564 -0.100293
C8    C     C_R   0.963863 0.566255 0.937569 -0.100408
C9    C     C_R   0.018377 0.677491 0.031161 -0.092305
C10   C     C_R   0.981594 0.677449 0.969007 -0.092300
C11   C     C_R   0.518389 0.177494 0.031159 -0.092052
C12   C     C_R   0.481610 0.177452 0.969002 -0.092806
C13   C     C_2   0.253242 0.584390 0.922019 -0.086432
C14   C     C_2   0.746721 0.584311 0.077981 -0.086361
C15   C     C_2   0.753239 0.084385 0.922017 -0.087077
C16   C     C_2   0.246720 0.084310 0.077981 -0.086306
C17   C     C_2   0.251378 0.601184 0.081147 -0.034895
C18   C     C_2   0.748641 0.601178 0.918862 -0.035725
C19   C     C_2   0.751378 0.101182 0.081146 -0.035203
C20   C     C_2   0.248642 0.101175 0.918864 -0.034703
C21   C     C_2   0.303199 0.552406 0.041651 -0.047033
C22   C     C_2   0.696787 0.552324 0.958335 -0.046832
C23   C     C_2   0.803196 0.052397 0.041650 -0.047010
C24   C     C_2   0.196788 0.052325 0.958336 -0.046769
C25   C     C_2   0.308972 0.578799 0.965656 -0.140084
C26   C     C_2   0.691002 0.578723 0.034329 -0.140048
C27   C     C_2   0.808968 0.078785 0.965654 -0.139822
C28   C     C_2   0.191001 0.078730 0.034329 -0.140273
C29   C     C_2   0.510016 0.827055 0.583152 -0.130918
C30   C     C_2   0.549290 0.827858 0.433272 -0.131291
C31   C     C_2   0.972379 0.326514 0.570773 -0.126407
C32   C     C_2   0.027434 0.326526 0.429184 -0.126522
C33   C     C_2   0.551100 0.728246 0.475396 -0.066788
C34   C     C_2   0.508730 0.729652 0.538173 -0.050107
C35   C     C_2   0.023605 0.225806 0.470546 -0.053627
C36   C     C_2   0.976138 0.225786 0.529400 -0.053537
C37   C     C_2   0.253809 0.609551 0.570471 -0.083748
C38   C     C_2   0.747793 0.608407 0.429098 -0.089188
C39   C     C_2   0.753038 0.108977 0.570690 -0.091673
C40   C     C_2   0.246820 0.109188 0.429370 -0.085294
C41   C     C_2   0.254352 0.600926 0.415840 -0.110235
C42   C     C_2   0.745692 0.600056 0.583837 -0.115755
C43   C     C_2   0.754321 0.100440 0.416029 -0.112742
C44   C     C_2   0.245579 0.100557 0.584053 -0.111569
C45   C     C_R   0.442692 0.819401 0.861698 0.543951
C46   C     C_R   0.557358 0.819415 0.138305 0.546739
C47   C     C_R   0.942680 0.319399 0.861697 0.546938
C48   C     C_R   0.057349 0.319416 0.138305 0.546624
C49   C     C_2   0.213729 0.675672 0.452993 -0.163314
C50   C     C_2   0.785581 0.676361 0.546865 -0.164639
C51   C     C_2   0.714100 0.175968 0.453099 -0.165047
C52   C     C_2   0.285708 0.176360 0.547006 -0.162462
C53   C     C_2   0.225966 0.696003 0.527513 -0.148449
C54   C     C_2   0.772277 0.697338 0.472550 -0.156592
C55   C     C_2   0.726996 0.196777 0.527481 -0.156358
C56   C     C_2   0.272795 0.197117 0.472606 -0.154026
C57   C     C_R   0.261759 0.636677 0.851724 0.547533
C58   C     C_R   0.738232 0.636616 0.148278 0.549526
C59   C     C_R   0.761758 0.136674 0.851723 0.548045
C60   C     C_R   0.238232 0.136617 0.148278 0.549360
C61   C     C_R   0.271689 0.047381 0.648956 0.555185
C62   C     C_R   0.728283 0.047314 0.351072 0.544944
C63   C     C_R   0.771738 0.547230 0.648868 0.546606
C64   C     C_R   0.228332 0.547488 0.350973 0.546773
C65   C     C_R   0.469419 0.822982 0.647249 0.567530
C66   C     C_R   0.564894 0.819237 0.359097 0.573437
C67   C     C_R   0.941684 0.319850 0.639416 0.563446
C68   C     C_R   0.058249 0.319908 0.360595 0.562645
C69   C     C_R   0.261694 0.641747 0.644077 0.555971
C70   C     C_R   0.738693 0.640949 0.355631 0.549022
C71   C     C_R   0.761509 0.141365 0.644221 0.548254
C72   C     C_R   0.238458 0.141407 0.355807 0.550785
C73   C     C_R   0.529967 0.832859 0.067033 0.005914
C74   C     C_R   0.470101 0.832847 0.932969 0.006825
C75   C     C_R   0.029949 0.332858 0.067036 0.005795
C76   C     C_R   0.970077 0.332845 0.932975 0.005742
C77   C     C_R   0.517114 0.949477 0.033198 0.019770
C78   C     C_R   0.482934 0.949454 0.966865 0.019874
C79   C     C_R   0.017095 0.449475 0.033202 0.019945
C80   C     C_R   0.982912 0.449451 0.966872 0.019845
C81   C     C_R   0.486075 0.722387 0.967079 -0.159473
C82   C     C_R   0.514003 0.722392 0.032865 -0.159484
C83   C     C_R   0.986049 0.222386 0.967086 -0.159277
C84   C     C_R   0.013981 0.222391 0.032870 -0.159279
Cr1   Cr    Cr6+3 0.230530 0.836340 0.748870 1.059874
Cr2   Cr    Cr6+3 0.769470 0.836340 0.251130 1.053919
Cr3   Cr    Cr6+3 0.730530 0.336340 0.748870 1.050403
Cr4   Cr    Cr6+3 0.269470 0.336340 0.251130 1.057174
Cr5   Cr    Cr6+3 0.387420 0.989430 0.750820 1.025383
Cr6   Cr    Cr6+3 0.612580 0.989430 0.249180 1.025740
Cr7   Cr    Cr6+3 0.887420 0.489430 0.750820 1.025644
Cr8   Cr    Cr6+3 0.112580 0.489430 0.249180 1.025945
Cr9   Cr    Cr6+3 0.385640 0.677860 0.749230 1.052754
Cr10  Cr    Cr6+3 0.614360 0.677860 0.250770 1.053240
Cr11  Cr    Cr6+3 0.885640 0.177860 0.749230 1.051989
Cr12  Cr    Cr6+3 0.114360 0.177860 0.250770 1.052794
H1    H     H_    0.477257 0.633051 0.942870 0.150322
H2    H     H_    0.522813 0.633065 0.057036 0.150255
H3    H     H_    0.977235 0.133049 0.942875 0.150152
H4    H     H_    0.022795 0.133063 0.057040 0.150138
H5    H     H_    0.167099 0.716823 0.430042 0.174725
H6    H     H_    0.831793 0.718992 0.569871 0.175995
H7    H     H_    0.667670 0.217812 0.430152 0.177237
H8    H     H_    0.332117 0.218395 0.569969 0.171545
H9    H     H_    0.206626 0.783003 0.548293 0.163344
H10   H     H_    0.787791 0.787143 0.452294 0.160921
H11   H     H_    0.709743 0.285366 0.547981 0.162094
H12   H     H_    0.290046 0.285730 0.452095 0.160132
H13   H     H_    0.302923 0.565430 0.437752 0.126800
H14   H     H_    0.697520 0.563222 0.561626 0.118065
H15   H     H_    0.802695 0.064332 0.438083 0.124073
H16   H     H_    0.197210 0.064265 0.562002 0.122146
H17   H     H_    0.273555 0.521913 0.551325 0.109521
H18   H     H_    0.733034 0.517375 0.447725 0.115289
H19   H     H_    0.770009 0.019349 0.551838 0.114259
H20   H     H_    0.229829 0.019534 0.448213 0.116909
H21   H     H_    0.565062 0.079461 0.109444 0.192675
H22   H     H_    0.434876 0.079274 0.890722 0.192644
H23   H     H_    0.065060 0.579456 0.109439 0.192558
H24   H     H_    0.934861 0.579270 0.890727 0.192524
H25   H     H_    0.032984 0.764285 0.055604 0.158526
H26   H     H_    0.966974 0.764209 0.944599 0.158590
H27   H     H_    0.532991 0.264289 0.055605 0.158689
H28   H     H_    0.466989 0.264211 0.944595 0.158331
H29   H     H_    0.360813 0.592786 0.945038 0.139160
H30   H     H_    0.639167 0.592700 0.054934 0.138680
H31   H     H_    0.860809 0.092759 0.945034 0.138936
H32   H     H_    0.139165 0.092721 0.054932 0.138712
H33   H     H_    0.200873 0.567672 0.941244 0.124315
H34   H     H_    0.799082 0.567608 0.058762 0.124446
H35   H     H_    0.700869 0.067676 0.941243 0.123794
H36   H     H_    0.299080 0.067597 0.058764 0.124576
H37   H     H_    0.527521 0.914651 0.451774 0.108049
H38   H     H_    0.542627 0.907298 0.573466 0.092225
H39   H     H_    0.999273 0.410679 0.441783 0.103852
H40   H     H_    0.000539 0.410723 0.558146 0.103414
O1    O     O_R   0.215090 0.709860 0.828130 -0.485010
O2    O     O_R   0.784910 0.709860 0.171870 -0.483556
O3    O     O_R   0.715090 0.209860 0.828130 -0.484774
O4    O     O_R   0.284910 0.209860 0.171870 -0.483581
O5    O     O_R   0.445660 0.919250 0.676780 -0.489125
O6    O     O_R   0.554340 0.919250 0.323220 -0.485788
O7    O     O_R   0.945660 0.419250 0.676780 -0.486416
O8    O     O_R   0.054340 0.419250 0.323220 -0.486167
O9    O     O_R   0.456260 0.718170 0.670000 -0.492254
O10   O     O_R   0.543740 0.718170 0.330000 -0.478301
O11   O     O_R   0.956260 0.218170 0.670000 -0.482374
O12   O     O_R   0.043740 0.218170 0.330000 -0.481889
O13   O     O_R   0.320940 0.626760 0.674370 -0.482550
O14   O     O_R   0.679060 0.626760 0.325630 -0.496794
O15   O     O_R   0.820940 0.126760 0.674370 -0.493912
O16   O     O_R   0.179060 0.126760 0.325630 -0.495024
O17   O     O_3   0.334530 0.834540 0.749640 -0.278014
O18   O     O_3   0.665470 0.834540 0.250360 -0.301869
O19   O     O_3   0.834530 0.334540 0.749640 -0.293375
O20   O     O_3   0.165470 0.334540 0.250360 -0.294887
O21   O     O_R   0.236990 0.958390 0.823710 -0.483249
O22   O     O_R   0.763010 0.958390 0.176290 -0.481036
O23   O     O_R   0.736990 0.458390 0.823710 -0.481902
O24   O     O_R   0.263010 0.458390 0.176290 -0.481566
O25   O     O_R   0.332380 0.074750 0.830850 -0.546637
O26   O     O_R   0.667620 0.074750 0.169150 -0.545082
O27   O     O_R   0.832380 0.574750 0.830850 -0.545542
O28   O     O_R   0.167620 0.574750 0.169150 -0.545519
O29   O     O_R   0.445800 0.917770 0.825070 -0.520007
O30   O     O_R   0.554200 0.917770 0.174930 -0.512194
O31   O     O_R   0.945800 0.417770 0.825070 -0.512714
O32   O     O_R   0.054200 0.417770 0.174930 -0.512562
O33   O     O_R   0.456410 0.716580 0.829970 -0.510124
O34   O     O_R   0.543590 0.716580 0.170030 -0.503031
O35   O     O_R   0.956410 0.216580 0.829970 -0.503609
O36   O     O_R   0.043590 0.216580 0.170030 -0.503356
O37   O     O_R   0.321080 0.625290 0.822650 -0.515995
O38   O     O_R   0.678920 0.625290 0.177350 -0.514647
O39   O     O_R   0.821080 0.125290 0.822650 -0.514913
O40   O     O_R   0.178920 0.125290 0.177350 -0.514996
O41   O     O_R   0.214930 0.711450 0.668160 -0.511625
O42   O     O_R   0.785070 0.711450 0.331840 -0.508635
O43   O     O_R   0.714930 0.211450 0.668160 -0.511956
O44   O     O_R   0.285070 0.211450 0.331840 -0.508036
O45   O     O_R   0.236850 0.959870 0.675420 -0.500870
O46   O     O_R   0.763150 0.959870 0.324580 -0.502824
O47   O     O_R   0.736850 0.459870 0.675420 -0.503484
O48   O     O_R   0.263150 0.459870 0.324580 -0.502009
O49   O     O_R   0.332230 0.076350 0.670880 -0.507923
O50   O     O_R   0.667770 0.076350 0.329120 -0.515557
O51   O     O_R   0.832230 0.576350 0.670880 -0.513642
O52   O     O_R   0.167770 0.576350 0.329120 -0.514428
C85   C     C_1   0.358154 0.477625 0.072481 0.268315
N1    N     N_1   0.402276 0.418148 0.096961 -0.285648
C86   C     C_1   0.641835 0.477375 0.927495 0.267384
N2    N     N_1   0.597716 0.417762 0.903007 -0.288207
C87   C     C_1   0.858151 0.977618 0.072481 0.268188
N3    N     N_1   0.902273 0.918142 0.096962 -0.286162
C88   C     C_1   0.141836 0.977371 0.927498 0.267988
N4    N     N_1   0.097718 0.917754 0.903013 -0.286761
C89   C     C_1   0.211245 0.705801 0.056080 0.184921
N5    N     N_1   0.178776 0.789132 0.036748 -0.310493
C90   C     C_1   0.788821 0.705840 0.943956 0.183953
N6    N     N_1   0.821330 0.789212 0.963306 -0.310860
C91   C     C_1   0.711247 0.205800 0.056080 0.184896
N7    N     N_1   0.678780 0.289133 0.036747 -0.310219
C92   C     C_1   0.288825 0.205834 0.943960 0.184360
N8    N     N_1   0.321336 0.289203 0.963311 -0.311003
C93   C     C_1   0.577208 0.608272 0.453229 0.245288
N9    N     N_1   0.596006 0.511218 0.436292 -0.310115
C94   C     C_1   0.460144 0.626346 0.544288 0.269365
N10   N     N_1   0.422002 0.543836 0.548681 -0.308670
C95   C     C_1   0.060959 0.111496 0.456368 0.251614
N11   N     N_1   0.089551 0.019451 0.445472 -0.315840
C96   C     C_1   0.938797 0.111389 0.543625 0.252356
N12   N     N_1   0.910221 0.019272 0.554557 -0.315445

loop_
_geom_bond_atom_site_label_1
_geom_bond_atom_site_label_2
_ccdc_geom_bond_type
C16   C28   D    
C92   N8    T    
C38   C70   S    
Cr10  O10   S    
C37   C69   S    
C91   N7    T    
Cr9   O13   S    
C35   C36   S    
C70   O14   A    
Cr2   O42   S    
C67   O7    A    
C2    O26   A    
C81   C82   A    
C40   H20   S    
C77   C78   A    
C31   C67   S    
Cr9   O33   S    
C50   C54   S    
C75   C79   A    
C21   C25   S    
Cr6   O26   S    
Cr4   O20   S    
Cr7   O31   S    
Cr2   O18   S    
C47   C76   S    
C5    C11   A    
C59   O39   A    
C16   C60   S    
C38   H18   S    
C49   C53   S    
C75   C84   A    
Cr4   O48   S    
C15   H35   S    
C37   H17   S    
C89   N5    T    
C51   H7    S    
Cr12  O16   S    
C19   C91   S    
Cr12  O20   S    
C47   O31   A    
C3    C18   S    
C26   H30   S    
C71   O43   A    
Cr11  O39   S    
C56   H12   S    
C25   H29   S    
C69   O41   A    
C48   O36   A    
C27   H31   S    
C41   C49   D    
C71   O15   A    
C96   N12   T    
C72   O16   A    
C38   C54   D    
C9    H25   S    
C76   C80   A    
C4    O28   A    
C17   C89   S    
C23   C27   S    
Cr6   O18   S    
C40   C72   S    
C9    C10   A    
C51   C55   S    
C68   O12   A    
C3    O27   A    
C62   O50   A    
C37   C53   D    
Cr8   O28   S    
C29   H38   S    
C1    O25   A    
C90   N6    T    
C41   H13   S    
Cr6   O30   S    
C3    O23   A    
C82   H2    S    
C48   C75   S    
Cr7   O27   S    
C58   O38   A    
Cr1   O21   S    
C14   C58   S    
C76   C83   A    
Cr5   O25   S    
Cr9   O37   S    
Cr4   O44   S    
Cr7   O7    S    
C94   N10   T    
C15   C27   D    
Cr12  O12   S    
C44   C61   S    
C39   C55   D    
C63   O47   A    
C54   H10   S    
Cr8   O8    S    
C86   N2    T    
C84   H4    S    
C32   C35   D    
C7    H23   S    
C21   C85   S    
Cr11  O11   S    
C79   C80   A    
C95   N11   T    
Cr12  O36   S    
C70   O42   A    
Cr1   O17   S    
C61   O45   A    
Cr6   O50   S    
C24   C88   S    
C40   C56   D    
C39   C71   S    
C93   N9    T    
C29   C34   D    
C17   C21   D    
C46   O34   A    
C55   H11   S    
C45   C74   S    
C19   C23   D    
Cr7   O19   S    
C62   O46   A    
C65   O5    A    
Cr8   O32   S    
Cr5   O17   S    
C83   C84   A    
C48   O32   A    
C59   O3    A    
Cr10  O18   S    
C30   H37   S    
C33   C93   S    
C23   C87   S    
C61   O49   A    
C33   C34   S    
C57   O1    A    
Cr8   O20   S    
C64   O52   A    
C14   C26   D    
Cr9   O9    S    
Cr2   O22   S    
Cr5   O29   S    
C30   C66   S    
C42   C50   D    
C57   O37   A    
C4    C17   S    
C44   H16   S    
C8    C10   A    
C60   O4    A    
C50   H6    S    
C39   H19   S    
C74   C78   A    
C60   O40   A    
C29   C65   S    
Cr11  O15   S    
C72   O44   A    
C74   C81   A    
C5    C77   A    
C6    C12   A    
Cr1   O1    S    
C73   C82   A    
C8    H24   S    
C7    C79   A    
C14   H34   S    
Cr2   O46   S    
C7    C9    A    
Cr4   O4    S    
Cr7   O51   S    
C52   H8    S    
C1    C20   S    
Cr1   O45   S    
C46   O30   A    
C30   C33   D    
C2    C19   S    
C18   C22   D    
Cr5   O49   S    
Cr10  O38   S    
C11   H27   S    
C24   C28   S    
C20   C92   S    
Cr3   O3    S    
C31   H40   S    
C10   H26   S    
C45   O33   A    
C44   C52   D    
Cr12  O40   S    
C32   H39   S    
C47   O35   A    
C11   C12   A    
Cr8   O52   S    
C66   O6    A    
Cr3   O19   S    
C34   C94   S    
Cr6   O6    S    
C43   H15   S    
C63   O51   A    
C32   C68   S    
C69   O13   A    
C1    O21   A    
C35   C95   S    
C28   H32   S    
Cr10  O34   S    
Cr3   O47   S    
C58   O2    A    
C4    O24   A    
C81   H1    S    
C13   C25   D    
C43   C51   D    
Cr5   O5    S    
C42   C63   S    
C65   O9    A    
Cr9   O17   S    
Cr3   O23   S    
C68   O8    A    
Cr11  O19   S    
Cr4   O24   S    
C42   H14   S    
C85   N1    T    
C16   H36   S    
C15   C59   S    
C66   O10   A    
C6    C78   A    
Cr2   O2    S    
C36   C96   S    
Cr3   O43   S    
C88   N4    T    
C64   O48   A    
C53   H9    S    
Cr10  O14   S    
C13   C57   S    
C2    O22   A    
C43   C62   S    
Cr1   O41   S    
C87   N3    T    
C22   C26   S    
C67   O11   A    
C5    H21   S    
C18   C90   S    
C8    C80   A    
C73   C77   A    
C31   C36   D    
C83   H3    S    
C41   C64   S    
Cr11  O35   S    
C22   C86   S    
C45   O29   A    
C12   H28   S    
C20   C24   D    
C46   C73   S    
C13   H33   S    
C52   C56   S    
C49   H5    S    
C6    H22   S    
