data_mof_unit_22299.cif
_audit_creation_date              2012-12-11T15:53:42-0500
_audit_creation_method            fapswitch 2.2
_symmetry_space_group_name_H-M    P1
_symmetry_Int_Tables_number       1
_space_group_crystal_system       triclinic
_cell_length_a                    6.926336
_cell_length_b                    14.526854
_cell_length_c                    15.986473
_cell_angle_alpha                 90.535427
_cell_angle_beta                  90.206052
_cell_angle_gamma                 90.146289
_cell_volume                      1608.43887345

loop_
_atom_site_label
_atom_site_type_symbol
_atom_type_description
_atom_site_fract_x
_atom_site_fract_y
_atom_site_fract_z
_atom_type_partial_charge
O1    O     O_R   0.361600 0.167310 0.164620 -0.512853
O2    O     O_R   0.638400 0.832690 0.835380 -0.509074
O3    O     O_R   0.691080 0.157570 0.338750 -0.500627
O4    O     O_R   0.308920 0.842430 0.661250 -0.498950
O5    O     O_R   0.861410 0.336420 0.339360 -0.532478
O6    O     O_R   0.138590 0.663580 0.660640 -0.529469
C1    C     C_R   0.522390 0.134925 0.367257 0.825155
C2    C     C_R   0.477612 0.865085 0.632752 0.829126
O7    O     O_R   0.691320 0.156280 0.165240 -0.538418
O8    O     O_R   0.308680 0.843720 0.834760 -0.548085
O9    O     O_R   0.861640 0.335130 0.164600 -0.555760
O10   O     O_R   0.138360 0.664870 0.835400 -0.562485
C3    C     C_R   0.521960 0.136280 0.134279 0.794042
C4    C     C_R   0.477930 0.863744 0.865723 0.780826
O11   O     O_R   0.361370 0.168600 0.339370 -0.555747
O12   O     O_R   0.638630 0.831400 0.660630 -0.555375
O13   O     O_3   0.527990 0.310540 0.251980 -0.381084
O14   O     O_3   0.472010 0.689460 0.748020 -0.374770
V1    V     V_3+5 0.802830 0.240980 0.251990 1.674854
V2    V     V_3+5 0.197170 0.759020 0.748010 1.647582
O15   O     O_R   0.191360 0.346160 0.165220 -0.493180
O16   O     O_R   0.808640 0.653840 0.834780 -0.487517
C5    C     C_R   0.022487 0.368619 0.136344 0.841335
C6    C     C_R   0.977536 0.631199 0.863504 0.800452
O17   O     O_R   0.191130 0.347440 0.338740 -0.552756
O18   O     O_R   0.808870 0.652560 0.661260 -0.548201
C7    C     C_R   0.022545 0.369473 0.367635 0.751700
C8    C     C_R   0.977460 0.630486 0.632400 0.756136
V3    V     V_3+5 0.302840 0.262750 0.251990 1.668267
V4    V     V_3+5 0.697160 0.737250 0.748010 1.672752
O19   O     O_3   0.027820 0.193180 0.251990 -0.360628
O20   O     O_3   0.972180 0.806820 0.748010 -0.359453
C9    C     C_3   0.910059 0.423533 0.521502 0.464632
C10   C     C_3   0.089925 0.576361 0.478589 0.459436
C11   C     C_3   0.083758 0.465364 0.569320 -0.256489
C12   C     C_3   0.916263 0.534546 0.430758 -0.248367
H1    H     H_    0.150859 0.436446 0.626466 0.169633
H2    H     H_    0.849383 0.563536 0.373591 0.180573
C13   C     C_3   0.987946 0.560978 0.562402 -0.163240
C14   C     C_3   0.012050 0.438931 0.437678 -0.167775
C15   C     C_3   0.812686 0.518662 0.515712 -0.205601
C16   C     C_3   0.187290 0.481235 0.484370 -0.220514
H3    H     H_    0.658585 0.533114 0.529214 0.180150
H4    H     H_    0.341389 0.466805 0.470845 0.173880
C17   C     C_R   0.825153 0.511537 0.957100 0.705772
C18   C     C_R   0.174929 0.488195 0.042665 0.712055
C19   C     C_R   0.837899 0.449062 0.023081 -0.243836
C20   C     C_R   0.162171 0.550682 0.976695 -0.247065
H5    H     H_    0.710495 0.409823 0.039317 0.230699
H6    H     H_    0.289561 0.589939 0.960471 0.228561
C21   C     C_R   0.012268 0.436323 0.066859 -0.278577
C22   C     C_R   0.987791 0.563436 0.932933 -0.279550
C23   C     C_R   0.675129 0.013479 0.458311 0.709169
C24   C     C_R   0.324883 0.986554 0.541719 0.706550
C25   C     C_R   0.662089 0.948752 0.522253 -0.205118
C26   C     C_R   0.337923 0.051280 0.477775 -0.203399
H7    H     H_    0.789411 0.909262 0.537868 0.232539
H8    H     H_    0.210603 0.090772 0.462161 0.232257
C27   C     C_R   0.487521 0.934263 0.564866 -0.275601
C28   C     C_R   0.512487 0.065762 0.435156 -0.273462
C29   C     C_R   0.632047 0.991671 0.065438 -0.224134
C30   C     C_R   0.366962 0.008213 0.934766 -0.232349
H9    H     H_    0.733263 0.984549 0.116763 0.197900
H10   H     H_    0.265823 0.015422 0.883440 0.205549
C31   C     C_R   0.622070 0.922594 0.003483 0.475475
C32   C     C_R   0.376261 0.077027 0.996962 0.484297
C33   C     C_R   0.489658 0.931506 0.936060 -0.247572
C34   C     C_R   0.509624 0.068403 0.064083 -0.235907
S1    S     S_3+6 0.786420 0.321235 0.551293 0.027381
O21   O     O_2   0.609593 0.309116 0.497581 -0.337774
O22   O     O_2   0.916330 0.239408 0.539841 -0.313860
O23   O     O_3   0.719373 0.329775 0.652012 -0.464506
H11   H     H_    0.841575 0.337498 0.683709 0.339178
S2    S     S_3+6 0.213767 0.678533 0.448682 0.039174
O24   O     O_2   0.082819 0.759917 0.460307 -0.287678
O25   O     O_2   0.391209 0.691325 0.501930 -0.359200
O26   O     O_3   0.277903 0.670260 0.347598 -0.447453
H12   H     H_    0.358616 0.614157 0.344115 0.332103
F1    F     F_    0.653702 0.519798 0.916522 -0.646767
F2    F     F_    0.346401 0.479924 0.083224 -0.645689
F3    F     F_    0.846707 0.023424 0.418617 -0.637719
F4    F     F_    0.153312 0.976614 0.581419 -0.640530
S3    S     S_3+6 0.770540 0.824434 0.015815 0.022241
O27   O     O_2   0.839766 0.818046 0.104850 -0.307848
O28   O     O_2   0.659461 0.738548 0.993661 -0.330052
O29   O     O_3   0.962350 0.834255 0.952346 -0.507270
H13   H     H_    0.061772 0.793291 0.976448 0.347142
S4    S     S_3+6 0.226223 0.174708 0.985140 0.001060
O30   O     O_2   0.058901 0.167424 0.044318 -0.351121
O31   O     O_2   0.339382 0.260812 0.004411 -0.339805
O32   O     O_3   0.140945 0.180213 0.886657 -0.489870
H14   H     H_    0.056636 0.235199 0.886210 0.372973

loop_
_geom_bond_atom_site_label_1
_geom_bond_atom_site_label_2
_ccdc_geom_bond_type
C6    C22   S    
C32   C34   A    
C25   C27   A    
O13   V3    S    
C10   C16   S    
O4    C2    A    
V1    O19   S    
C19   H5    S    
O26   H12   S    
O9    V1    S    
S2    O25   D    
C30   C33   A    
C11   H1    S    
O3    C1    A    
C2    C27   S    
C32   S4    S    
C31   S3    S    
O12   V4    S    
C23   F3    S    
C17   C19   A    
O9    C5    A    
S1    O22   D    
C11   C16   S    
O7    C3    A    
C30   H10   S    
O13   V1    S    
O5    C7    A    
O7    V1    S    
O6    C8    A    
O8    V2    S    
C31   C33   A    
S2    O26   S    
C4    C33   S    
O3    V1    S    
O14   V4    S    
V4    O20   S    
C10   C12   S    
C9    S1    S    
C14   C16   S    
C2    O12   A    
C15   H3    S    
C12   C15   S    
C16   H4    S    
O1    V3    S    
C23   C28   A    
O11   V3    S    
C18   C20   A    
C24   C27   A    
C23   C25   A    
O17   V3    S    
C24   C26   A    
C9    C14   S    
S2    O24   D    
C30   C32   A    
C10   C13   S    
C12   C14   S    
C13   C15   S    
O8    C4    A    
O32   H14   S    
O29   H13   S    
C19   C21   A    
C1    O11   A    
C8    C13   S    
O15   V3    S    
C18   C21   A    
C26   C28   A    
S1    O23   S    
C11   C13   S    
C5    C21   S    
S3    O27   D    
S4    O32   S    
C7    C14   S    
O10   V2    S    
C29   H9    S    
C17   F1    S    
C10   S2    S    
S3    O28   D    
S4    O31   D    
O18   V4    S    
O15   C5    A    
O16   C6    A    
O1    C3    A    
C12   H2    S    
C1    C28   S    
C24   F4    S    
V2    O20   S    
O16   V4    S    
O23   H11   S    
O5    V1    S    
O17   C7    A    
O6    V2    S    
O10   C6    A    
O18   C8    A    
C17   C22   A    
O2    V4    S    
C9    C15   S    
C25   H7    S    
V3    O19   S    
C18   F2    S    
C29   C34   A    
C20   H6    S    
C9    C11   S    
C26   H8    S    
O14   V2    S    
S1    O21   D    
O2    C4    A    
O4    V2    S    
C29   C31   A    
C20   C22   A    
S3    O29   S    
S4    O30   D    
C3    C34   S    
