data_mof_unit_31450.cif
_audit_creation_date              2012-10-26T21:06:32-0400
_audit_creation_method            fapswitch 2.2
_symmetry_space_group_name_H-M    P1
_symmetry_Int_Tables_number       1
_space_group_crystal_system       triclinic
_cell_length_a                    15.871501
_cell_length_b                    10.801417
_cell_length_c                    9.534609
_cell_angle_alpha                 90.406892
_cell_angle_beta                  90.140809
_cell_angle_gamma                 90.273223
_cell_volume                      1634.49796504

loop_
_atom_site_label
_atom_site_type_symbol
_atom_type_description
_atom_site_fract_x
_atom_site_fract_y
_atom_site_fract_z
_atom_type_partial_charge
C1    C     C_R   0.502415 0.262373 0.499551 0.526883
C2    C     C_R   0.554182 0.574208 0.075980 -0.019063
C3    C     C_R   0.339858 0.500249 0.499823 0.535668
C4    C     C_R   0.660159 0.499680 0.500145 0.539332
C5    C     C_3   0.972722 0.424750 0.606113 -0.169349
C6    C     C_3   0.027407 0.574662 0.393148 -0.171587
C7    C     C_3   0.028387 0.385304 0.480443 0.263130
C8    C     C_3   0.971742 0.614109 0.518816 0.265552
C9    C     C_1   0.250267 0.501360 0.499512 -0.011081
C10   C     C_1   0.749785 0.498351 0.500274 0.004816
C11   C     C_3   0.027379 0.543132 0.622508 0.266210
C12   C     C_R   0.497345 0.737626 0.500409 0.527335
C13   C     C_3   0.972753 0.456275 0.376733 0.264609
C14   C     C_3   0.083212 0.502311 0.498754 0.007597
C15   C     C_3   0.916891 0.497095 0.500491 0.007705
C16   C     C_1   0.174798 0.502185 0.499309 0.012509
C17   C     C_1   0.825274 0.497345 0.500175 0.022212
C18   C     C_R   0.453288 0.066068 0.401181 -0.088220
C19   C     C_R   0.546174 0.934016 0.598589 -0.091669
C20   C     C_3   0.002432 0.176068 0.463149 -0.116346
C21   C     C_3   0.997758 0.823338 0.536030 -0.116258
C22   C     C_3   0.002171 0.387865 0.153124 -0.114336
C23   C     C_R   0.446584 0.938083 0.402981 0.216842
C24   C     C_3   0.998290 0.611565 0.846229 -0.112345
C25   C     C_3   0.307306 0.366598 0.109222 -0.115796
C26   C     C_3   0.651486 0.742412 0.923066 -0.139565
C27   C     C_R   0.552951 0.061917 0.596771 0.218074
C28   C     C_R   0.495010 0.871538 0.501431 -0.038024
C29   C     C_R   0.504528 0.128489 0.498399 -0.038130
C30   C     C_R   0.444606 0.426589 0.073988 0.387418
C31   C     C_R   0.554330 0.576393 0.925068 0.393148
C32   C     C_R   0.446270 0.425319 0.924435 -0.008254
Cu1   Cu    Cu3+1 0.500000 0.500020 0.640660 1.025089
Cu2   Cu    Cu3+1 0.500000 0.499980 0.359340 1.013603
H1    H     H_    0.949130 0.364425 0.691342 0.101055
H2    H     H_    0.020407 0.835030 0.426697 0.114515
H3    H     H_    0.051492 0.803933 0.607585 0.158372
H4    H     H_    0.969710 0.912294 0.570350 0.128863
H5    H     H_    0.048794 0.319779 0.192146 0.158044
H6    H     H_    0.034302 0.475656 0.124331 0.106714
H7    H     H_    0.973674 0.348415 0.056235 0.137270
H8    H     H_    0.966125 0.523815 0.875056 0.113199
H9    H     H_    0.951706 0.679787 0.807399 0.164919
H10   H     H_    0.026949 0.650891 0.943051 0.133860
H11   H     H_    0.372909 0.801765 0.347528 0.334860
H12   H     H_    0.051033 0.634978 0.307935 0.098610
H13   H     H_    0.626983 0.197915 0.651852 0.336902
H14   H     H_    0.292103 0.319120 0.008568 0.108744
H15   H     H_    0.291320 0.466843 0.103731 0.116073
H16   H     H_    0.266508 0.325163 0.190933 0.154684
H17   H     H_    0.699625 0.701473 0.993523 0.115013
H18   H     H_    0.606497 0.802229 0.981468 0.127432
H19   H     H_    0.685784 0.802593 0.848463 0.157929
H20   H     H_    0.415324 0.117397 0.327085 0.190426
H21   H     H_    0.584109 0.882760 0.672546 0.172134
H22   H     H_    0.405172 0.363572 0.866116 0.131057
H23   H     H_    0.596994 0.630700 0.137273 0.120779
H24   H     H_    0.948751 0.195432 0.391473 0.158268
H25   H     H_    0.979700 0.164383 0.572436 0.114713
H26   H     H_    0.030530 0.087122 0.428911 0.129371
N1    N     N_R   0.500020 0.500030 0.852070 -0.239761
N2    N     N_R   0.499980 0.499970 0.147930 -0.239406
O1    O     O_R   0.500000 0.319660 0.618740 -0.499310
O2    O     O_3   0.935012 0.731038 0.542367 -0.563803
O3    O     O_3   0.937524 0.408831 0.251298 -0.562928
O4    O     O_3   0.062784 0.590536 0.747826 -0.567486
O5    O     O_3   0.390661 0.883043 0.310229 -0.683552
O6    O     O_3   0.608978 0.116857 0.689424 -0.687162
O7    O     O_3   0.392248 0.347159 0.147203 -0.532562
O8    O     O_3   0.609101 0.649228 0.845857 -0.526992
O9    O     O_R   0.500000 0.680340 0.381260 -0.503031
O10   O     O_R   0.499990 0.319630 0.381170 -0.458466
O11   O     O_R   0.500010 0.680370 0.618830 -0.462695
O12   O     O_R   0.379080 0.500000 0.618760 -0.507204
O13   O     O_R   0.620920 0.500000 0.381240 -0.508274
O14   O     O_R   0.379080 0.499970 0.381190 -0.472718
O15   O     O_R   0.620920 0.500030 0.618810 -0.449654
O16   O     O_3   0.065160 0.268399 0.456924 -0.566510

loop_
_geom_bond_atom_site_label_1
_geom_bond_atom_site_label_2
_ccdc_geom_bond_type
C27   C29   A    
C24   H8    S    
C31   N1    A    
C2    H23   S    
C21   H2    S    
C13   O3    S    
C12   C28   S    
C9    C16   T    
C32   N1    A    
C5    C11   S    
C11   C14   S    
C22   H7    S    
C10   C17   T    
Cu2   N2    S    
C23   O5    S    
C3    O12   A    
C25   H16   S    
C4    O13   A    
C27   O6    S    
C7    C14   S    
C21   H4    S    
C21   O2    S    
H11   O5    S    
C20   H26   S    
C19   C27   A    
C11   O4    S    
C24   O4    S    
Cu2   O13   S    
C12   O11   A    
C1    O1    A    
C31   O8    S    
C1    O10   A    
C18   C23   A    
C5    C7    S    
C6    C8    S    
C2    C31   A    
C22   O3    S    
C3    C9    S    
C26   H18   S    
C6    C14   S    
Cu1   O1    S    
C22   H6    S    
C1    C29   S    
Cu1   Cu2   S    
C18   C29   A    
C23   C28   A    
C20   H25   S    
C3    O14   A    
C25   H14   S    
C8    O2    S    
C7    O16   S    
Cu1   O11   S    
C12   O9    A    
C8    C15   S    
C30   N2    A    
C19   C28   A    
C26   O8    S    
C14   C16   S    
C25   O7    S    
C4    C10   S    
C26   H19   S    
Cu2   O10   S    
H13   O6    S    
C30   O7    S    
C19   H21   S    
C15   C17   S    
C6    H12   S    
C20   O16   S    
C13   C15   S    
C4    O15   A    
C26   H17   S    
C6    C13   S    
C30   C32   A    
Cu1   O15   S    
C8    C11   S    
C24   H10   S    
C22   H5    S    
C5    H1    S    
C25   H15   S    
C5    C15   S    
C18   H20   S    
Cu1   O12   S    
C7    C13   S    
C21   H3    S    
Cu1   N1    S    
C24   H9    S    
C20   H24   S    
Cu2   O9    S    
C32   H22   S    
C2    N2    A    
Cu2   O14   S    
