data_mof_unit_54372.cif
_audit_creation_date              2012-12-10T20:48:17-0500
_audit_creation_method            fapswitch 2.2
_symmetry_space_group_name_H-M    P1
_symmetry_Int_Tables_number       1
_space_group_crystal_system       triclinic
_cell_length_a                    10.784643
_cell_length_b                    9.143344
_cell_length_c                    8.06509
_cell_angle_alpha                 90.44116
_cell_angle_beta                  89.570894
_cell_angle_gamma                 90.45917
_cell_volume                      795.208931906

loop_
_atom_site_label
_atom_site_type_symbol
_atom_type_description
_atom_site_fract_x
_atom_site_fract_y
_atom_site_fract_z
_atom_type_partial_charge
C1    C     C_R   0.499293 0.217421 0.499584 1.000147
C2    C     C_R   0.257351 0.496943 0.501046 0.936844
C3    C     C_R   0.743280 0.501309 0.499672 0.961265
C4    C     C_R   0.494139 0.782278 0.500307 0.875091
C5    C     C_1   0.496559 0.064615 0.499336 -0.131876
C6    C     C_3   0.067688 0.431915 0.667201 0.006549
C7    C     C_3   0.072495 0.416408 0.349374 0.014063
C8    C     C_3   0.926132 0.417139 0.653585 0.006044
C9    C     C_3   0.931727 0.434347 0.336274 0.010092
C10   C     C_1   0.494549 0.935190 0.500288 -0.184755
C11   C     C_3   0.080382 0.671667 0.505291 0.260348
C12   C     C_3   0.929590 0.672175 0.511682 0.303732
C13   C     C_3   0.122191 0.503557 0.504148 -0.196120
C14   C     C_3   0.879858 0.505556 0.500085 -0.219335
H1    H     H_    0.083184 0.509007 0.771793 0.126426
H2    H     H_    0.112837 0.458713 0.233236 0.164566
H3    H     H_    0.885748 0.463240 0.769691 0.148179
H4    H     H_    0.914775 0.513251 0.236370 0.123502
N1    N     N_1   0.500000 0.500030 0.073640 -0.019117
N2    N     N_1   0.500000 0.500030 0.926360 -0.023645
O1    O     O_R   0.500000 0.285340 0.636850 -0.588916
O2    O     O_R   0.500000 0.285340 0.363150 -0.589664
O3    O     O_R   0.314790 0.499970 0.636880 -0.629278
O4    O     O_R   0.314790 0.499970 0.363120 -0.623503
O5    O     O_R   0.685210 0.499970 0.636880 -0.621473
O6    O     O_R   0.685210 0.499970 0.363120 -0.622871
O7    O     O_R   0.500000 0.714650 0.636900 -0.633815
O8    O     O_R   0.500000 0.714650 0.363100 -0.624201
Zn1   Zn    Zn3+2 0.500000 0.499990 0.682780 1.010141
Zn2   Zn    Zn3+2 0.500000 0.499990 0.317220 1.019453
I1    I     I_    0.163665 0.254896 0.788371 -0.312058
I2    I     I_    0.143539 0.195201 0.330681 -0.331818
I3    I     I_    0.851128 0.198490 0.668327 -0.343572
I4    I     I_    0.833291 0.256639 0.211305 -0.308123
N3    N     N_2   0.128997 0.741672 0.659178 -0.371273
H5    H     H_    0.211071 0.704110 0.704494 0.241822
C15   C     C_3   0.126750 0.898546 0.683749 -0.689757
H6    H     H_    0.164467 0.924406 0.808469 0.252950
H7    H     H_    0.031870 0.941983 0.682995 0.299760
H8    H     H_    0.186071 0.954600 0.590893 0.261507
N4    N     N_2   0.137778 0.753582 0.365769 -0.272027
H9    H     H_    0.227892 0.786541 0.388080 0.239177
C16   C     C_3   0.119747 0.732194 0.188918 -0.756627
H10   H     H_    0.129577 0.839704 0.127002 0.264199
H11   H     H_    0.027745 0.689361 0.156613 0.238110
H12   H     H_    0.193419 0.661344 0.136121 0.237152
N5    N     N_2   0.888711 0.736344 0.671801 -0.308724
H13   H     H_    0.927732 0.697388 0.778812 0.225431
C17   C     C_3   0.768737 0.800480 0.701698 -0.678351
H14   H     H_    0.780984 0.904469 0.770542 0.262242
H15   H     H_    0.712343 0.728859 0.783349 0.252321
H16   H     H_    0.720050 0.821671 0.585707 0.236402
N6    N     N_2   0.879130 0.755581 0.372134 -0.335727
H17   H     H_    0.796316 0.722498 0.321510 0.221681
C18   C     C_3   0.896845 0.911409 0.357490 -0.583290
H18   H     H_    0.813450 0.969437 0.402891 0.246542
H19   H     H_    0.909948 0.937889 0.224518 0.257393
H20   H     H_    0.978766 0.950361 0.424591 0.296785

loop_
_geom_bond_atom_site_label_1
_geom_bond_atom_site_label_2
_ccdc_geom_bond_type
C6    C8    S    
C9    C14   S    
C1    O1    A    
C15   H6    S    
O7    Zn1   S    
C16   H11   S    
N4    H9    S    
N1    N2    T    
C12   N6    S    
C3    O5    A    
C11   C12   S    
C17   H16   S    
C18   H18   S    
O8    Zn2   S    
C6    I1    S    
C1    O2    A    
C15   H7    S    
C18   H19   S    
N6    H17   S    
C6    C13   S    
O5    Zn1   S    
N4    C16   S    
C3    C14   S    
N3    H5    S    
C12   N5    S    
C1    C5    S    
O3    Zn1   S    
C11   N3    S    
C7    H2    S    
C4    O8    A    
C12   C14   S    
C11   N4    S    
C15   H8    S    
N2    Zn1   S    
N6    C18   S    
C16   H10   S    
C2    O4    A    
C9    I4    S    
C16   H12   S    
O4    Zn2   S    
C11   C13   S    
C5    C10   T    
N5    H13   S    
C9    H4    S    
C7    C13   S    
C4    O7    A    
N5    C17   S    
C17   H14   S    
C18   H20   S    
C2    O3    A    
C7    C9    S    
C2    C13   S    
C8    C14   S    
C7    I2    S    
O2    Zn2   S    
N3    C15   S    
C6    H1    S    
N1    Zn2   S    
O1    Zn1   S    
C3    O6    A    
C8    H3    S    
C4    C10   S    
C8    I3    S    
C17   H15   S    
O6    Zn2   S    
