data_mof_unit_14888.cif
_audit_creation_date              2012-12-10T16:38:32-0500
_audit_creation_method            fapswitch 2.2
_symmetry_space_group_name_H-M    P1
_symmetry_Int_Tables_number       1
_space_group_crystal_system       triclinic
_cell_length_a                    10.826744
_cell_length_b                    10.919938
_cell_length_c                    17.73168
_cell_angle_alpha                 98.552601
_cell_angle_beta                  72.833222
_cell_angle_gamma                 98.507174
_cell_volume                      1968.65757853

loop_
_atom_site_label
_atom_site_type_symbol
_atom_type_description
_atom_site_fract_x
_atom_site_fract_y
_atom_site_fract_z
_atom_type_partial_charge
C1    C     C_R   0.157301 0.479802 0.517668 0.859026
C2    C     C_R   0.603760 0.391338 0.914042 -0.264337
C3    C     C_R   0.681328 0.339786 0.949315 0.109193
C4    C     C_R   0.843214 0.520685 0.482351 0.890085
C5    C     C_R   0.650543 0.350300 0.034424 0.016262
C6    C     C_R   0.543905 0.418225 0.079382 0.022291
C7    C     C_R   0.718672 0.296218 0.077471 0.333837
C8    C     C_R   0.695038 0.327247 0.160751 0.009385
C9    C     C_R   0.522209 0.445677 0.161804 -0.272927
C10   C     C_2   0.981329 0.528511 0.475097 -0.351967
C11   C     C_2   0.021066 0.473119 0.524622 -0.277079
C12   C     C_R   0.269367 0.603780 0.844946 0.365119
C13   C     C_2   0.540122 0.967136 0.479727 0.159373
C14   C     C_2   0.447625 0.038727 0.526523 -0.147880
C15   C     C_R   0.467756 0.169169 0.517581 0.952678
C16   C     C_R   0.529690 0.833252 0.483284 0.825205
C17   C     C_R   0.564358 0.436084 0.287745 0.804836
C18   C     C_R   0.435102 0.562932 0.712869 0.818530
C19   C     C_R   0.396984 0.579439 0.800842 -0.153257
C20   C     C_R   0.596782 0.403451 0.201678 -0.067390
C21   C     C_R   0.228863 0.597079 0.926416 -0.267632
C22   C     C_3   0.320671 0.989435 0.584705 -0.416780
C23   C     C_R   0.485291 0.557616 0.841270 -0.004809
C24   C     C_3   0.225453 0.086671 0.625917 -0.392974
C25   C     C_3   0.102674 0.027049 0.681959 -0.826554
C26   C     C_3   0.775960 0.280736 0.205841 -0.317073
C27   C     C_3   0.908835 0.358974 0.194014 -0.369413
C28   C     C_3   0.988855 0.317372 0.241555 -0.788465
C29   C     C_3   0.800249 0.286066 0.891342 -0.366972
C30   C     C_3   0.927064 0.366881 0.896586 -0.291966
C31   C     C_3   0.045579 0.306983 0.842433 -0.798288
C32   C     C_3   0.630332 0.599321 0.805848 -0.377612
C33   C     C_3   0.687726 0.693110 0.863785 -0.372605
C34   C     C_R   0.434113 0.523223 0.920160 0.070223
C35   C     C_3   0.826157 0.746181 0.823190 -0.783359
C36   C     C_R   0.308287 0.554271 0.963871 0.073437
C37   C     C_R   0.503134 0.461687 0.957924 0.045236
C38   C     C_R   0.463126 0.462042 0.041188 0.101332
C39   C     C_R   0.339750 0.500292 0.083475 -0.196076
C40   C     C_R   0.262214 0.541670 0.044785 -0.186486
Cl1   Cl    Cl    0.820555 0.176562 0.033787 -0.690253
Cl2   Cl    Cl    0.680263 0.032930 0.410921 -0.616119
Cl3   Cl    Cl    0.154129 0.640714 0.801807 -0.663149
H1    H     H_    0.165984 0.565154 0.078683 0.146282
H2    H     H_    0.032838 0.097107 0.708066 0.241346
H3    H     H_    0.272497 0.162576 0.660753 0.219219
H4    H     H_    0.196643 0.127515 0.580663 0.237000
H5    H     H_    0.268345 0.915495 0.551616 0.239546
H6    H     H_    0.344988 0.949746 0.632114 0.251074
H7    H     H_    0.937467 0.328496 0.306037 0.263982
H8    H     H_    0.006092 0.218313 0.222293 0.282429
H9    H     H_    0.084294 0.375433 0.231622 0.234692
H10   H     H_    0.964075 0.350519 0.130113 0.254597
H11   H     H_    0.894600 0.458696 0.213757 0.230576
H12   H     H_    0.050910 0.579277 0.429324 0.148426
H13   H     H_    0.726132 0.284664 0.270417 0.190360
H14   H     H_    0.788260 0.180670 0.186987 0.262292
H15   H     H_    0.043183 0.210414 0.855977 0.280110
H16   H     H_    0.047942 0.305498 0.779281 0.249097
H17   H     H_    0.135864 0.361243 0.851686 0.257015
H18   H     H_    0.927274 0.459989 0.878311 0.242982
H19   H     H_    0.935303 0.381925 0.958225 0.245137
H20   H     H_    0.800384 0.186926 0.897597 0.255894
H21   H     H_    0.796839 0.282643 0.828943 0.173528
H22   H     H_    0.888615 0.669570 0.798542 0.294962
H23   H     H_    0.953502 0.422251 0.570991 0.164523
H24   H     H_    0.826688 0.799486 0.774370 0.248383
H25   H     H_    0.866971 0.809833 0.867006 0.277357
H26   H     H_    0.626320 0.771077 0.886484 0.240671
H27   H     H_    0.690541 0.647792 0.915132 0.241113
H28   H     H_    0.689165 0.520264 0.783336 0.202003
H29   H     H_    0.643749 0.648116 0.752824 0.199039
H30   H     H_    0.450815 0.506445 0.196639 0.140364
H31   H     H_    0.131731 0.618639 0.959839 0.179925
H32   H     H_    0.296721 0.491089 0.145811 0.140948
H33   H     H_    0.618504 0.370617 0.850918 0.154828
H34   H     H_    0.054995 0.948765 0.649161 0.267007
H35   H     H_    0.127022 0.991660 0.730825 0.281803
O1    O     O_3   0.500000 0.500000 0.500000 -0.501294
O2    O     O_R   0.470800 0.371790 0.332500 -0.627566
O3    O     O_R   0.380610 0.619380 0.674980 -0.578945
O4    O     O_R   0.632640 0.524780 0.317540 -0.636172
O5    O     O_R   0.515950 0.484050 0.674980 -0.659292
O6    O     O_R   0.535460 0.243030 0.556410 -0.632532
O7    O     O_R   0.437420 0.784080 0.535340 -0.687721
O8    O     O_R   0.223560 0.397520 0.472140 -0.637234
O9    O     O_R   0.803560 0.575360 0.436110 -0.640707
O10   O     O_R   0.209690 0.568800 0.556400 -0.617578
O11   O     O_R   0.763190 0.458310 0.535350 -0.633895
O12   O     O_R   0.414000 0.207090 0.472140 -0.642594
O13   O     O_R   0.613120 0.765800 0.436110 -0.585851
Zn1   Zn    Zn3+2 0.577310 0.422690 0.565550 0.971161
Zn2   Zn    Zn3+2 0.403760 0.371330 0.445150 0.985459
Zn3   Zn    Zn3+2 0.634990 0.589920 0.423760 1.002220
Zn4   Zn    Zn3+2 0.383940 0.616050 0.565540 0.989400

loop_
_geom_bond_atom_site_label_1
_geom_bond_atom_site_label_2
_ccdc_geom_bond_type
C22   H5    S    
C29   H20   S    
O4    Zn3   S    
C34   C37   A    
C8    C26   S    
C1    C11   S    
C18   O3    A    
C6    C9    A    
C27   H11   S    
C7    C8    A    
C32   H29   S    
C4    O9    A    
O5    Zn1   S    
C26   C27   S    
C8    C20   A    
C25   H34   S    
C5    C6    A    
C31   H15   S    
O1    Zn2   S    
C12   Cl3   S    
C30   C31   S    
O3    Zn4   S    
C28   H8    S    
C35   H22   S    
O9    Zn3   S    
C17   C20   S    
C17   O4    A    
C31   H16   S    
C3    C29   S    
C28   H7    S    
C6    C38   A    
C39   H32   S    
C29   C30   S    
C11   H23   S    
C33   H26   S    
C1    O10   A    
O10   Zn4   S    
C13   C14   D    
C9    H30   S    
C13   Cl2   S    
C32   H28   S    
C25   H35   S    
C36   C40   A    
C24   C25   S    
O1    Zn3   S    
C39   C40   A    
C21   C36   A    
C18   C19   S    
C12   C21   A    
C17   O2    A    
C31   H17   S    
C19   C23   A    
O1    Zn4   S    
C37   C38   A    
O8    Zn2   S    
C9    C20   A    
C35   H24   S    
C23   C34   A    
C18   O5    A    
O11   Zn1   S    
C10   H12   S    
O1    Zn1   S    
C33   H27   S    
C22   H6    S    
C30   H19   S    
C16   O7    A    
C22   C24   S    
C30   H18   S    
C4    C10   S    
C25   H2    S    
C2    H33   S    
O12   Zn2   S    
C5    C7    A    
C4    O11   A    
C1    O8    A    
C24   H4    S    
C3    C5    A    
C26   H13   S    
C27   H10   S    
C15   O6    A    
C28   H9    S    
C24   H3    S    
C23   C32   S    
C14   C22   S    
C2    C3    A    
C32   C33   S    
O13   Zn3   S    
O7    Zn4   S    
C2    C37   A    
C38   C39   A    
C35   H25   S    
C21   H31   S    
C12   C19   A    
C33   C35   S    
C34   C36   A    
C7    Cl1   S    
C26   H14   S    
C29   H21   S    
C10   C11   D    
C40   H1    S    
C16   O13   A    
C13   C16   S    
C27   C28   S    
C14   C15   S    
O6    Zn1   S    
O2    Zn2   S    
C15   O12   A    
