data_mof_unit_55540.cif
_audit_creation_date              2012-12-10T17:51:25-0500
_audit_creation_method            fapswitch 2.2
_symmetry_space_group_name_H-M    P1
_symmetry_Int_Tables_number       1
_space_group_crystal_system       triclinic
_cell_length_a                    9.924712
_cell_length_b                    10.634896
_cell_length_c                    16.713957
_cell_angle_alpha                 91.880651
_cell_angle_beta                  84.949199
_cell_angle_gamma                 90.203366
_cell_volume                      1756.33241669

loop_
_atom_site_label
_atom_site_type_symbol
_atom_type_description
_atom_site_fract_x
_atom_site_fract_y
_atom_site_fract_z
_atom_type_partial_charge
C1    C     C_R   0.500542 0.739302 0.498093 0.854278
C2    C     C_R   0.343205 0.528844 0.784486 -0.200113
C3    C     C_R   0.425675 0.534522 0.137831 -0.130848
C4    C     C_R   0.425923 0.492073 0.215291 -0.233178
C5    C     C_R   0.636935 0.602970 0.230315 -0.195927
C6    C     C_R   0.637286 0.644795 0.152539 -0.171123
C7    C     C_R   0.530213 0.613263 0.106684 0.217484
C8    C     C_2   0.427916 0.661942 0.983422 -0.228492
C9    C     C_2   0.538542 0.649394 0.023015 -0.229512
C10   C     C_R   0.530464 0.527664 0.262106 -0.029336
C11   C     C_R   0.382942 0.860623 0.367748 -0.313845
C12   C     C_R   0.480699 0.505625 0.653272 0.846717
C13   C     C_R   0.316252 0.921428 0.308830 0.545249
C14   C     C_R   0.318209 0.052594 0.308624 -0.193908
C15   C     C_R   0.378968 0.122226 0.367891 -0.290765
C16   C     C_R   0.438368 0.061505 0.430107 0.102133
C17   C     C_R   0.439960 0.929906 0.430051 0.048905
C18   C     C_R   0.502561 0.871277 0.491642 -0.060507
C19   C     C_R   0.567920 0.938953 0.549378 -0.219362
C20   C     C_R   0.567273 0.067324 0.549183 -0.205817
C21   C     C_R   0.500938 0.127837 0.491405 -0.085291
C22   C     C_R   0.846332 0.669323 0.602716 -0.166516
C23   C     C_R   0.500226 0.260526 0.496960 0.877279
C24   C     C_R   0.909260 0.751740 0.654029 -0.212826
C25   C     C_R   0.048473 0.749640 0.655340 -0.182306
C26   C     C_R   0.125563 0.665868 0.604847 -0.152361
C27   C     C_R   0.065226 0.582170 0.551387 0.158641
C28   C     C_R   0.920868 0.582959 0.550857 0.176121
C29   C     C_R   0.935555 0.421452 0.450673 -0.121470
C30   C     C_R   0.078623 0.421733 0.450521 -0.116807
C31   C     C_R   0.519040 0.501890 0.346952 0.831376
C32   C     C_R   0.466974 0.542914 0.738251 -0.033214
C33   C     C_R   0.572371 0.609883 0.770452 -0.221802
C34   C     C_R   0.555599 0.660851 0.847831 -0.151033
C35   C     C_R   0.435625 0.639037 0.896238 0.202717
C36   C     C_R   0.328051 0.575932 0.863474 -0.177035
H1    H     H_    0.667334 0.625284 0.735659 0.151203
H2    H     H_    0.720134 0.702887 0.128436 0.129469
H3    H     H_    0.616499 0.892192 0.595870 0.140057
H4    H     H_    0.393269 0.759820 0.363455 0.154109
H5    H     H_    0.272535 0.101187 0.261903 0.154607
H6    H     H_    0.380106 0.223434 0.363618 0.164871
H7    H     H_    0.615809 0.119892 0.595411 0.156256
H8    H     H_    0.887671 0.357248 0.410351 0.152333
H9    H     H_    0.739232 0.675402 0.605813 0.193809
H10   H     H_    0.849330 0.817003 0.693402 0.143763
H11   H     H_    0.343322 0.433559 0.239228 0.139477
H12   H     H_    0.097191 0.813187 0.695772 0.151576
H13   H     H_    0.231737 0.669221 0.609621 0.204526
H14   H     H_    0.138042 0.357751 0.410060 0.144019
H15   H     H_    0.716770 0.633549 0.266599 0.162623
H16   H     H_    0.639072 0.647837 0.991819 0.144727
H17   H     H_    0.234512 0.558586 0.899950 0.124895
H18   H     H_    0.345225 0.503462 0.102155 0.126342
H19   H     H_    0.259171 0.480315 0.759939 0.157341
H20   H     H_    0.328411 0.663485 0.016278 0.145247
H21   H     H_    0.638296 0.714281 0.869996 0.124501
N1    N     N_R   0.857140 0.501200 0.500750 -0.121342
N2    N     N_R   0.142740 0.501280 0.500770 -0.121741
O1    O     O_R   0.385310 0.683220 0.500000 -0.640238
O2    O     O_R   0.614640 0.683250 0.500010 -0.633144
O3    O     O_R   0.371780 0.500010 0.615800 -0.630668
O4    O     O_R   0.601110 0.500030 0.615800 -0.628741
O5    O     O_R   0.385360 0.316750 0.499990 -0.610696
O6    O     O_R   0.614690 0.316780 0.500000 -0.607704
O7    O     O_R   0.398890 0.499970 0.384200 -0.635679
O8    O     O_R   0.628220 0.499990 0.384200 -0.611473
Zn1   Zn    Zn3+2 0.346870 0.499980 0.499990 0.922335
Zn2   Zn    Zn3+2 0.653130 0.500020 0.500010 0.934548
O9    O     O_3   0.257927 0.857010 0.246791 -0.650125
C37   C     C_3   0.182128 0.751987 0.275113 0.088862
H22   H     H_    0.118051 0.776215 0.331742 0.136983
H23   H     H_    0.250875 0.673332 0.285497 0.169553
C38   C     C_3   0.089903 0.706996 0.211494 -0.324147
H24   H     H_    0.014231 0.781195 0.203197 0.219867
H25   H     H_    0.151195 0.689301 0.153303 0.226065
C39   C     C_3   0.016448 0.585955 0.235987 -0.986773
H26   H     H_    0.090365 0.509201 0.241476 0.262333
H27   H     H_    0.948151 0.556826 0.189575 0.267159
H28   H     H_    0.955391 0.600834 0.294474 0.271505

loop_
_geom_bond_atom_site_label_1
_geom_bond_atom_site_label_2
_ccdc_geom_bond_type
C31   O7    A    
O7    Zn1   S    
C16   C21   A    
C35   C36   A    
C8    H20   S    
C39   H26   S    
C31   O8    A    
C1    C18   S    
C38   H25   S    
O5    Zn1   S    
C18   C19   A    
C3    C7    A    
C2    H19   S    
C5    C6    A    
C3    H18   S    
C13   O9    S    
O2    Zn2   S    
C15   C16   A    
C2    C32   A    
C34   C35   A    
C36   H17   S    
C10   C31   S    
C19   C20   A    
C16   C17   A    
C38   C39   S    
C34   H21   S    
C6    H2    S    
O9    C37   S    
C30   H14   S    
C22   C28   A    
C13   C14   A    
C12   C32   S    
C9    H16   S    
C33   C34   A    
C39   H27   S    
C38   H24   S    
O4    Zn2   S    
C24   C25   A    
C1    O1    A    
C37   H23   S    
C12   O4    A    
C8    C9    D    
C25   C26   A    
C33   H1    S    
O8    Zn2   S    
C8    C35   S    
C29   C30   A    
N2    Zn1   S    
C12   O3    A    
C30   N2    A    
C17   C18   A    
C26   C27   A    
C20   C21   A    
C25   H12   S    
C19   H3    S    
C14   H5    S    
C23   O5    A    
C21   C23   S    
C29   H8    S    
C22   C24   A    
C26   H13   S    
C4    C10   A    
C3    C4    A    
C20   H7    S    
C39   H28   S    
C2    C36   A    
C7    C9    S    
C11   C17   A    
C15   H6    S    
C1    O2    A    
C37   C38   S    
N1    Zn2   S    
C6    C7    A    
C28   N1    A    
O3    Zn1   S    
C24   H10   S    
C32   C33   A    
C23   O6    A    
C37   H22   S    
C27   N2    A    
C11   C13   A    
O6    Zn2   S    
C11   H4    S    
C5    C10   A    
C22   H9    S    
C29   N1    A    
O1    Zn1   S    
C27   C28   A    
C14   C15   A    
C5    H15   S    
C4    H11   S    
