data_mof_unit_44476.cif
_audit_creation_date              2012-12-11T14:04:15-0500
_audit_creation_method            fapswitch 2.2
_symmetry_space_group_name_H-M    P1
_symmetry_Int_Tables_number       1
_space_group_crystal_system       triclinic
_cell_length_a                    19.199163
_cell_length_b                    10.998879
_cell_length_c                    18.798125
_cell_angle_alpha                 89.280567
_cell_angle_beta                  90.317653
_cell_angle_gamma                 90.00032
_cell_volume                      3969.21240944

loop_
_atom_site_label
_atom_site_type_symbol
_atom_type_description
_atom_site_fract_x
_atom_site_fract_y
_atom_site_fract_z
_atom_type_partial_charge
C1    C     C_R   0.238223 0.469314 0.645970 0.566149
C2    C     C_R   0.997069 0.669782 0.573663 0.028248
C3    C     C_R   0.505727 0.161152 0.424310 0.017006
C4    C     C_R   0.497071 0.169782 0.573662 0.027924
C5    C     C_R   0.025251 0.881520 0.418535 0.015244
C6    C     C_R   0.011759 0.896093 0.565413 0.048997
C7    C     C_R   0.525254 0.381519 0.418531 0.015302
C8    C     C_R   0.511762 0.396093 0.565410 0.048982
C9    C     C_R   0.034792 0.991974 0.451906 -0.062441
C10   C     C_R   0.027237 0.999874 0.525109 -0.054753
C11   C     C_R   0.534795 0.491972 0.451902 -0.062487
C12   C     C_R   0.762106 0.468502 0.354457 0.570721
C13   C     C_R   0.527240 0.499873 0.525105 -0.054722
C14   C     C_R   0.006094 0.780084 0.533442 0.101386
C15   C     C_R   0.010519 0.774534 0.458192 0.086789
C16   C     C_R   0.506096 0.280084 0.533440 0.101405
C17   C     C_R   0.510521 0.274534 0.458189 0.087056
C18   C     C_R   0.986147 0.559903 0.537190 0.010675
C19   C     C_R   0.006070 0.553504 0.466006 0.011622
C20   C     C_R   0.486151 0.059903 0.537188 0.010582
C21   C     C_R   0.506073 0.053504 0.466004 0.011699
C22   C     C_R   0.962683 0.452569 0.571763 -0.083704
C23   C     C_R   0.738222 0.969316 0.645969 0.567929
C24   C     C_R   0.020820 0.438192 0.437414 -0.075564
C25   C     C_R   0.462686 0.952568 0.571762 -0.083657
C26   C     C_R   0.520823 0.938192 0.437412 -0.075614
C27   C     C_R   0.971109 0.339677 0.540286 -0.126879
C28   C     C_R   0.002250 0.332614 0.474018 -0.122444
C29   C     C_R   0.471113 0.839677 0.540284 -0.126565
C30   C     C_R   0.502254 0.832614 0.474016 -0.122472
C31   C     C_2   0.257487 0.931951 0.914363 0.244967
C32   C     C_2   0.759933 0.902342 0.072137 0.251749
C33   C     C_2   0.742444 0.407483 0.925196 0.260987
C34   C     C_R   0.262107 0.968503 0.354458 0.572515
C35   C     C_2   0.260029 0.401710 0.071978 0.246451
C36   C     C_2   0.253789 0.936682 0.074080 -0.103055
C37   C     C_2   0.752662 0.892478 0.913412 -0.057411
C38   C     C_2   0.747094 0.396659 0.086634 -0.109356
C39   C     C_2   0.252755 0.391913 0.913230 -0.064243
C40   C     C_R   0.228366 0.880557 0.650674 0.573697
C41   C     C_R   0.772684 0.875112 0.351256 0.577739
C42   C     C_R   0.728365 0.380553 0.650673 0.578605
C43   C     C_R   0.272684 0.375110 0.351257 0.578555
C44   C     C_2   0.228008 0.022151 0.029210 -0.172627
C45   C     C_2   0.303198 0.903657 0.547535 -0.123869
C46   C     C_2   0.809676 0.914056 0.951736 -0.129597
C47   C     C_2   0.692754 0.427937 0.046258 -0.175824
C48   C     C_2   0.309798 0.413208 0.951571 -0.128132
C49   C     C_2   0.215157 0.999648 0.954461 -0.161957
C50   C     C_2   0.812797 0.882225 0.026696 -0.091580
C51   C     C_2   0.689236 0.396158 0.972024 -0.137971
C52   C     C_2   0.312878 0.381341 0.026557 -0.094416
C53   C     C_2   0.990799 0.663132 0.916015 -0.094186
C54   C     C_2   0.988366 0.657392 0.073322 -0.107655
C55   C     C_2   0.492551 0.161886 0.916951 -0.103616
C56   C     C_2   0.703664 0.862845 0.458941 -0.144673
C57   C     C_2   0.490850 0.157680 0.074377 -0.100783
C58   C     C_2   0.963710 0.569576 0.030577 -0.148222
C59   C     C_2   0.978643 0.563730 0.955187 -0.115885
C60   C     C_2   0.470239 0.066368 0.032106 -0.157775
C61   C     C_2   0.484447 0.061914 0.956778 -0.142161
C62   C     C_R   0.027795 0.656665 0.645858 0.549289
C63   C     C_R   0.973059 0.654393 0.353228 0.549574
C64   C     C_R   0.527795 0.156665 0.645858 0.548827
C65   C     C_R   0.473060 0.154393 0.353226 0.549066
C66   C     C_R   0.239449 0.462638 0.849189 0.561724
C67   C     C_2   0.803193 0.403640 0.547530 -0.124369
C68   C     C_R   0.760505 0.463500 0.150977 0.553272
C69   C     C_R   0.739423 0.962757 0.849232 0.559910
C70   C     C_R   0.261909 0.970324 0.147817 0.553044
C71   C     C_R   0.228417 0.875133 0.851575 0.599944
C72   C     C_R   0.773652 0.871983 0.146202 0.534173
C73   C     C_R   0.726652 0.371906 0.853301 0.605667
C74   C     C_R   0.273717 0.371765 0.146112 0.532593
C75   C     C_R   0.028159 0.652397 0.849656 0.569449
C76   C     C_R   0.967920 0.652143 0.147450 0.550256
C77   C     C_R   0.528391 0.152282 0.849786 0.566450
C78   C     C_2   0.203668 0.362835 0.458944 -0.144753
C79   C     C_R   0.468559 0.152240 0.147866 0.549634
C80   C     C_2   0.255208 0.949931 0.590226 -0.073810
C81   C     C_2   0.750176 0.922181 0.418628 0.001320
C82   C     C_2   0.755204 0.449918 0.590220 -0.073175
C83   C     C_2   0.250176 0.422179 0.418629 0.001332
C84   C     C_2   0.257357 0.916156 0.425830 0.278934
C85   C     C_2   0.749928 0.906641 0.579530 0.226622
C86   C     C_2   0.757356 0.416150 0.425825 0.279514
C87   C     C_2   0.249930 0.406636 0.579532 0.226571
C88   C     C_2   0.306074 0.948353 0.473976 -0.141622
C89   C     C_R   0.005724 0.661152 0.424312 0.016907
C90   C     C_2   0.695724 0.893220 0.533957 -0.186426
C91   C     C_2   0.806072 0.448339 0.473972 -0.141314
C92   C     C_2   0.195727 0.393211 0.533959 -0.186476
Cr1   Cr    Cr6+3 0.113970 0.508630 0.747920 1.028776
Cr2   Cr    Cr6+3 0.887700 0.820070 0.250200 1.042495
Cr3   Cr    Cr6+3 0.612300 0.320070 0.749800 1.027776
Cr4   Cr    Cr6+3 0.387700 0.320070 0.250200 1.040649
Cr5   Cr    Cr6+3 0.886030 0.508630 0.252080 1.037405
Cr6   Cr    Cr6+3 0.613970 0.008630 0.747920 1.031381
Cr7   Cr    Cr6+3 0.386030 0.008630 0.252080 1.039173
Cr8   Cr    Cr6+3 0.269200 0.666740 0.749850 1.069838
Cr9   Cr    Cr6+3 0.730800 0.666740 0.250150 1.028008
Cr10  Cr    Cr6+3 0.769200 0.166740 0.749850 1.060094
Cr11  Cr    Cr6+3 0.230800 0.166740 0.250150 1.026683
Cr12  Cr    Cr6+3 0.112300 0.820070 0.749800 1.028315
H1    H     H_    0.346511 0.013341 0.460088 0.135253
H2    H     H_    0.710979 0.835983 0.934596 0.157529
H3    H     H_    0.787297 0.336647 0.066572 0.146536
H4    H     H_    0.211095 0.335258 0.934332 0.149688
H5    H     H_    0.934250 0.493254 0.052086 0.169655
H6    H     H_    0.983747 0.473475 0.932936 0.178277
H7    H     H_    0.443919 0.986683 0.053691 0.165100
H8    H     H_    0.491638 0.971874 0.934818 0.182943
H9    H     H_    0.017448 0.735003 0.053193 0.101768
H10   H     H_    0.982439 0.753351 0.937277 0.095496
H11   H     H_    0.516975 0.238278 0.053967 0.095660
H12   H     H_    0.643028 0.914222 0.550642 0.142650
H13   H     H_    0.482484 0.251702 0.937998 0.092816
H14   H     H_    0.328948 0.818552 0.560934 0.185348
H15   H     H_    0.671246 0.791103 0.437358 0.137120
H16   H     H_    0.828941 0.318534 0.560928 0.185180
H17   H     H_    0.171256 0.291084 0.437362 0.137070
H18   H     H_    0.226357 0.030460 0.573175 0.114043
H19   H     H_    0.781746 0.993290 0.440556 0.226838
H20   H     H_    0.726353 0.530448 0.573167 0.114170
H21   H     H_    0.281739 0.493300 0.440556 0.226836
H22   H     H_    0.050633 0.069832 0.420508 0.090607
H23   H     H_    0.846509 0.513331 0.460088 0.135409
H24   H     H_    0.033826 0.086346 0.551018 0.091098
H25   H     H_    0.550637 0.569830 0.420504 0.090397
H26   H     H_    0.533830 0.586346 0.551013 0.091510
H27   H     H_    0.036031 0.879099 0.362167 0.142783
H28   H     H_    0.001284 0.910404 0.620972 0.161628
H29   H     H_    0.536034 0.379096 0.362164 0.142121
H30   H     H_    0.501287 0.410405 0.620969 0.161988
H31   H     H_    0.045149 0.429404 0.385890 0.141492
H32   H     H_    0.939052 0.455735 0.623912 0.140245
H33   H     H_    0.545152 0.929405 0.385888 0.141308
H34   H     H_    0.143030 0.414212 0.550643 0.142703
H35   H     H_    0.439054 0.955734 0.623910 0.139846
H36   H     H_    0.954409 0.257866 0.567829 0.129940
H37   H     H_    0.009802 0.245995 0.449672 0.111878
H38   H     H_    0.454413 0.757865 0.567827 0.130156
H39   H     H_    0.509807 0.745995 0.449671 0.111818
H40   H     H_    0.209856 0.109201 0.048708 0.165640
H41   H     H_    0.853489 0.964240 0.929785 0.146446
H42   H     H_    0.650555 0.483269 0.066492 0.162121
H43   H     H_    0.353600 0.463489 0.929674 0.150378
H44   H     H_    0.342990 0.966414 0.966219 0.322366
H45   H     H_    0.164879 0.030222 0.934357 0.132326
H46   H     H_    0.666153 0.955823 0.091836 0.326231
H47   H     H_    0.805257 0.506165 0.981701 0.322003
H48   H     H_    0.166167 0.454902 0.091547 0.325969
H49   H     H_    0.220741 0.656035 0.523192 0.357189
H50   H     H_    0.805948 0.689120 0.520532 0.323672
H51   H     H_    0.720755 0.156039 0.523179 0.357071
H52   H     H_    0.305952 0.189117 0.520539 0.323501
H53   H     H_    0.863089 0.850366 0.046293 0.106991
H54   H     H_    0.638004 0.366885 0.954059 0.126102
H55   H     H_    0.363159 0.349548 0.046221 0.105750
H56   H     H_    0.272195 0.849075 0.055964 0.150400
O1    O     O_R   0.043230 0.549300 0.667990 -0.525587
O2    O     O_R   0.832470 0.905110 0.169660 -0.530813
O3    O     O_R   0.667530 0.405110 0.830340 -0.552311
O4    O     O_R   0.332470 0.405110 0.169660 -0.527741
O5    O     O_R   0.054010 0.748440 0.822860 -0.497476
O6    O     O_R   0.945990 0.748440 0.177140 -0.504245
O7    O     O_R   0.554010 0.248440 0.822860 -0.504950
O8    O     O_R   0.445990 0.248440 0.177140 -0.506758
O9    O     O_3   0.165160 0.665150 0.749190 -0.263965
O10   O     O_3   0.834840 0.665150 0.250810 -0.261506
O11   O     O_3   0.665160 0.165150 0.749190 -0.265486
O12   O     O_R   0.956770 0.549300 0.332010 -0.523778
O13   O     O_3   0.334840 0.165150 0.250810 -0.262838
O14   O     O_R   0.178620 0.457600 0.674100 -0.537979
O15   O     O_R   0.821380 0.457600 0.325900 -0.507282
O16   O     O_R   0.678620 0.957600 0.674100 -0.536407
O17   O     O_R   0.321380 0.957600 0.325900 -0.506283
O18   O     O_R   0.284680 0.542100 0.669460 -0.462751
O19   O     O_R   0.715320 0.542100 0.330540 -0.513947
O20   O     O_R   0.784680 0.042100 0.669460 -0.462036
O21   O     O_R   0.215320 0.042100 0.330540 -0.512357
O22   O     O_R   0.262860 0.790390 0.676650 -0.512179
O23   O     O_R   0.543230 0.049300 0.667990 -0.525159
O24   O     O_R   0.737140 0.790390 0.323350 -0.513590
O25   O     O_R   0.762860 0.290390 0.676650 -0.509810
O26   O     O_R   0.237140 0.290390 0.323350 -0.512852
O27   O     O_R   0.167460 0.907030 0.670940 -0.509848
O28   O     O_R   0.832540 0.907030 0.329060 -0.484787
O29   O     O_R   0.667460 0.407030 0.670940 -0.507067
O30   O     O_R   0.332540 0.407030 0.329060 -0.484349
O31   O     O_R   0.053950 0.750220 0.675100 -0.507246
O32   O     O_R   0.946050 0.750220 0.324900 -0.499521
O33   O     O_R   0.553950 0.250220 0.675100 -0.506805
O34   O     O_R   0.456770 0.049300 0.332010 -0.524024
O35   O     O_R   0.446050 0.250220 0.324900 -0.499728
O36   O     O_R   0.043300 0.547370 0.827390 -0.507713
O37   O     O_R   0.956700 0.547370 0.172610 -0.514696
O38   O     O_R   0.543300 0.047370 0.827390 -0.505364
O39   O     O_R   0.456700 0.047370 0.172610 -0.515020
O40   O     O_R   0.178690 0.455820 0.821860 -0.498151
O41   O     O_R   0.821310 0.455820 0.178140 -0.503796
O42   O     O_R   0.678690 0.955820 0.821860 -0.496236
O43   O     O_R   0.321310 0.955820 0.178140 -0.497343
O44   O     O_R   0.284750 0.540170 0.828860 -0.501586
O45   O     O_R   0.262920 0.788600 0.824420 -0.455062
O46   O     O_R   0.715250 0.540170 0.171140 -0.508191
O47   O     O_R   0.784750 0.040170 0.828860 -0.508215
O48   O     O_R   0.215250 0.040170 0.171140 -0.507027
O49   O     O_3   0.325306 0.903304 0.933620 -0.705760
O50   O     O_3   0.696323 0.947667 0.049497 -0.716478
O51   O     O_3   0.808411 0.450012 0.941122 -0.722092
O52   O     O_3   0.196376 0.446692 0.049241 -0.716731
O53   O     O_2   0.149890 0.838250 0.499665 -0.357581
O54   O     O_2   0.161569 0.756402 0.378674 -0.308214
O55   O     O_3   0.245585 0.680418 0.479246 -0.547608
O56   O     O_R   0.737080 0.788600 0.175580 -0.503961
O57   O     O_2   0.873280 0.972731 0.532072 -0.292568
O58   O     O_2   0.870576 0.822507 0.629387 -0.323061
O59   O     O_3   0.839413 0.750005 0.502129 -0.548292
O60   O     O_2   0.649888 0.338230 0.499652 -0.357875
O61   O     O_2   0.661569 0.256408 0.378653 -0.309180
O62   O     O_3   0.745584 0.180406 0.479222 -0.547685
O63   O     O_2   0.373281 0.472731 0.532072 -0.292204
O64   O     O_2   0.370579 0.322511 0.629391 -0.324681
O65   O     O_3   0.339416 0.250001 0.502134 -0.548256
O66   O     O_R   0.762920 0.288600 0.824420 -0.478581
O67   O     O_R   0.237080 0.288600 0.175580 -0.511979
O68   O     O_R   0.167530 0.905110 0.830340 -0.557269
S1    S     S_3+6 0.199731 0.796264 0.444351 -0.032562
S2    S     S_3+6 0.836060 0.863064 0.561172 -0.036109
S3    S     S_3+6 0.699730 0.296256 0.444334 -0.033145
S4    S     S_3+6 0.336062 0.363063 0.561175 -0.036738

loop_
_geom_bond_atom_site_label_1
_geom_bond_atom_site_label_2
_ccdc_geom_bond_type
H52   O65   S    
C45   H14   S    
C21   C26   A    
C48   H43   S    
C35   C74   S    
C1    C87   S    
C8    C13   A    
Cr5   O15   S    
C37   C69   S    
C2    C18   A    
C58   H5    S    
C43   C83   S    
C71   O68   A    
C57   C79   S    
C42   C82   S    
Cr11  O13   S    
C26   H33   S    
C92   H34   S    
Cr2   O6    S    
C53   C59   D    
C56   C81   D    
C32   C72   S    
C40   O27   A    
C80   H18   S    
C53   H10   S    
C67   H16   S    
C7    C11   A    
Cr7   O34   S    
Cr1   O9    S    
C29   C30   A    
Cr5   O12   S    
H47   O51   S    
C81   H19   S    
Cr9   O19   S    
C86   S3    S    
H46   O50   S    
C25   H35   S    
C31   C49   D    
C7    H29   S    
Cr11  O67   S    
C86   C91   D    
O64   S4    D    
C55   H13   S    
C73   O66   A    
C55   C77   S    
C46   H41   S    
C15   C89   A    
C20   C25   A    
Cr9   O56   S    
C70   O48   A    
C63   O32   A    
C54   H9    S    
Cr1   O14   S    
Cr10  O66   S    
C59   H6    S    
Cr10  O20   S    
Cr10  O47   S    
C18   C19   A    
Cr4   O30   S    
Cr6   O23   S    
C78   H17   S    
O58   S2    D    
C87   S4    S    
Cr12  O5    S    
C64   O23   A    
C78   C83   D    
Cr4   O35   S    
C43   O30   A    
C16   C17   A    
C7    C17   A    
C31   O49   S    
C13   H26   S    
Cr4   O8    S    
C41   O24   A    
C76   O6    A    
C90   H12   S    
C79   O8    A    
Cr8   O22   S    
C9    C10   A    
Cr2   O2    S    
C67   C91   S    
C66   O44   A    
C75   O36   A    
C52   H55   S    
C56   C90   S    
H48   O52   S    
C47   H42   S    
Cr8   O18   S    
C69   O42   A    
Cr3   O33   S    
O55   S1    S    
C87   C92   D    
C68   O41   A    
C63   C89   S    
C53   C75   S    
Cr11  O26   S    
C34   C84   S    
C83   H21   S    
C10   H24   S    
C11   H25   S    
C82   H20   S    
C36   C70   S    
Cr12  O68   S    
C40   O22   A    
C50   H53   S    
C25   C29   A    
C39   H4    S    
C3    C65   S    
C85   C90   D    
C1    O14   A    
C69   O47   A    
O65   S4    S    
C79   O39   A    
Cr4   O13   S    
Cr6   O38   S    
C8    H30   S    
Cr10  O25   S    
Cr5   O37   S    
C45   C88   S    
Cr11  O48   S    
C6    H28   S    
Cr9   O46   S    
Cr5   O41   S    
C36   H56   S    
C57   C60   D    
C47   C51   S    
C23   O16   A    
C57   H11   S    
C43   O26   A    
C78   C92   S    
C58   C59   S    
Cr12  O31   S    
C44   C49   S    
Cr5   O10   S    
Cr4   O4    S    
C41   O28   A    
C22   H32   S    
C60   C61   S    
C84   C88   D    
C4    C16   A    
C35   O52   S    
C5    C9    A    
C74   O67   A    
C19   C89   A    
Cr3   O3    S    
O57   S2    D    
C6    C14   A    
C32   O50   S    
C1    O18   A    
Cr7   O13   S    
C5    H27   S    
C44   H40   S    
C41   C81   S    
C64   O33   A    
O61   S3    D    
C40   C80   S    
C23   O20   A    
Cr9   O10   S    
C75   O5    A    
Cr10  O11   S    
C84   S1    S    
C32   C50   D    
C38   C47   D    
Cr8   O44   S    
Cr9   O24   S    
C91   H23   S    
C12   O15   A    
C54   C76   S    
Cr6   O11   S    
C42   O25   A    
C33   C73   S    
C72   O56   A    
C38   H3    S    
C38   C68   S    
Cr1   O1    S    
C26   C30   A    
C22   C27   A    
C68   O46   A    
C39   C66   S    
C11   C13   A    
C36   C44   D    
Cr1   O36   S    
C77   O7    A    
O59   S2    S    
Cr1   O40   S    
H49   O55   S    
O53   S1    D    
O63   S4    D    
C24   H31   S    
C65   O34   A    
C54   C58   D    
Cr8   O9    S    
C70   O43   A    
Cr12  O27   S    
C46   C50   S    
C35   C52   D    
O60   S3    D    
Cr7   O43   S    
Cr6   O16   S    
C18   C22   A    
Cr6   O42   S    
C85   S2    S    
C24   C28   A    
C77   O38   A    
Cr2   O28   S    
C62   O1    A    
C34   O17   A    
Cr3   O7    S    
O62   S3    S    
C71   O45   A    
Cr8   O45   S    
Cr7   O17   S    
C62   O31   A    
C49   H45   S    
C33   C51   D    
Cr11  O21   S    
C12   O19   A    
C4    C64   S    
C51   H54   S    
C9    H22   S    
C12   C86   S    
C76   O37   A    
C19   C24   A    
C37   C46   D    
C37   H2    S    
C73   O3    A    
C60   H7    S    
H44   O49   S    
Cr2   O10   S    
C74   O4    A    
C34   O21   A    
C33   O51   S    
C42   O29   A    
C63   O12   A    
C29   H38   S    
C55   C61   D    
C31   C71   S    
C56   H15   S    
C88   H1    S    
C3    C17   A    
C45   C80   D    
C2    C14   A    
Cr2   O32   S    
C5    C15   A    
C3    C21   A    
C6    C10   A    
Cr3   O29   S    
C4    C20   A    
C48   C52   S    
C27   H36   S    
C20   C21   A    
C30   H39   S    
C67   C82   D    
C8    C16   A    
C23   C85   S    
Cr7   O39   S    
C27   C28   A    
C72   O2    A    
C14   C15   A    
C39   C48   D    
H51   O62   S    
C28   H37   S    
H50   O59   S    
O54   S1    D    
C61   H8    S    
Cr3   O11   S    
C66   O40   A    
C2    C62   S    
Cr12  O9    S    
C65   O35   A    
