data_mof_unit_48960.cif
_audit_creation_date              2012-12-11T15:26:00-0500
_audit_creation_method            fapswitch 2.2
_symmetry_space_group_name_H-M    P1
_symmetry_Int_Tables_number       1
_space_group_crystal_system       triclinic
_cell_length_a                    24.455291
_cell_length_b                    17.14481
_cell_length_c                    15.755611
_cell_angle_alpha                 89.999981
_cell_angle_beta                  50.970088
_cell_angle_gamma                 90.0
_cell_volume                      5131.68105473

loop_
_atom_site_label
_atom_site_type_symbol
_atom_type_description
_atom_site_fract_x
_atom_site_fract_y
_atom_site_fract_z
_atom_type_partial_charge
C1    C     C_R   0.355372 0.145956 0.748670 0.170366
C2    C     C_2   0.314095 0.831232 0.964651 -0.215814
C3    C     C_2   0.362774 0.259931 0.841688 -0.216916
C4    C     C_2   0.685905 0.831232 0.035349 -0.215814
C5    C     C_2   0.137226 0.759931 0.158312 -0.216916
C6    C     C_2   0.814095 0.331232 0.964650 -0.215814
C7    C     C_2   0.862774 0.759931 0.841688 -0.216917
C8    C     C_2   0.185905 0.331233 0.035349 -0.215814
C9    C     C_2   0.706494 0.263725 0.080782 -0.123383
C10   C     C_2   0.244296 0.836023 0.032746 -0.145703
C11   C     C_2   0.293505 0.263725 0.919218 -0.123383
C12   C     C_R   0.666278 0.891713 0.199998 0.193881
C13   C     C_2   0.755704 0.836023 0.967254 -0.145703
C14   C     C_2   0.206495 0.763725 0.080782 -0.123384
C15   C     C_2   0.744296 0.336023 0.032746 -0.145703
C16   C     C_2   0.793506 0.763725 0.919218 -0.123383
C17   C     C_2   0.255704 0.336023 0.967254 -0.145703
C18   C     C_R   0.615586 0.100391 0.591656 -0.136671
C19   C     C_R   0.411410 0.855853 0.407995 -0.118534
C20   C     C_R   0.384414 0.100391 0.408344 -0.136672
C21   C     C_R   0.588590 0.855853 0.592005 -0.118533
C22   C     C_R   0.115586 0.600391 0.591656 -0.136671
C23   C     C_R   0.644628 0.145956 0.251330 0.170366
C24   C     C_R   0.911410 0.355853 0.407995 -0.118534
C25   C     C_R   0.884414 0.600391 0.408344 -0.136672
C26   C     C_R   0.088590 0.355853 0.592005 -0.118533
C27   C     C_R   0.690164 0.094159 0.411730 -0.070143
C28   C     C_R   0.337689 0.855471 0.590389 -0.123270
C29   C     C_R   0.309836 0.094159 0.588270 -0.070143
C30   C     C_R   0.662311 0.855471 0.409611 -0.123270
C31   C     C_R   0.190164 0.594159 0.411730 -0.070144
C32   C     C_R   0.837689 0.355471 0.590389 -0.123270
C33   C     C_R   0.809836 0.594159 0.588270 -0.070144
C34   C     C_R   0.333722 0.891713 0.800002 0.193880
C35   C     C_R   0.162311 0.355471 0.409611 -0.123270
C36   C     C_R   0.554853 0.143248 0.248252 -0.190340
C37   C     C_R   0.424736 0.890926 0.799196 -0.198620
C38   C     C_R   0.445147 0.143248 0.751748 -0.190340
C39   C     C_R   0.575264 0.890926 0.200804 -0.198620
C40   C     C_R   0.054853 0.643248 0.248251 -0.190340
C41   C     C_R   0.924736 0.390926 0.799196 -0.198621
C42   C     C_R   0.945147 0.643248 0.751748 -0.190339
C43   C     C_R   0.075264 0.390926 0.200803 -0.198621
C44   C     C_R   0.388922 0.187731 0.779646 0.103003
C45   C     C_R   0.855372 0.645956 0.748670 0.170367
C46   C     C_R   0.645253 0.871161 0.139364 0.071596
C47   C     C_R   0.611078 0.187731 0.220354 0.103004
C48   C     C_R   0.354747 0.871161 0.860636 0.071597
C49   C     C_R   0.888922 0.687731 0.779646 0.103003
C50   C     C_R   0.145253 0.371161 0.139364 0.071597
C51   C     C_R   0.111078 0.687731 0.220354 0.103004
C52   C     C_R   0.854747 0.371161 0.860636 0.071597
C53   C     C_R   0.685160 0.110765 0.501835 0.024289
C54   C     C_R   0.361082 0.811614 0.499074 0.024386
C55   C     C_R   0.314840 0.110765 0.498165 0.024289
C56   C     C_R   0.166278 0.391713 0.199998 0.193880
C57   C     C_R   0.638918 0.811614 0.500926 0.024386
C58   C     C_R   0.185160 0.610765 0.501835 0.024289
C59   C     C_R   0.861082 0.311614 0.499074 0.024386
C60   C     C_R   0.814840 0.610765 0.498165 0.024290
C61   C     C_R   0.138918 0.311614 0.500926 0.024386
C62   C     C_R   0.191911 0.155213 0.598502 -0.177251
C63   C     C_R   0.726401 0.704661 0.401501 -0.171096
C64   C     C_R   0.808089 0.155213 0.401498 -0.177251
C65   C     C_R   0.273599 0.704661 0.598499 -0.171097
C66   C     C_R   0.691911 0.655213 0.598502 -0.177251
C67   C     C_R   0.144628 0.645956 0.251330 0.170366
C68   C     C_R   0.226401 0.204661 0.401501 -0.171096
C69   C     C_R   0.308089 0.655213 0.401498 -0.177251
C70   C     C_R   0.773599 0.204661 0.598499 -0.171097
C71   C     C_R   0.647572 0.705892 0.599235 -0.169397
C72   C     C_R   0.270875 0.154029 0.400714 -0.165309
C73   C     C_R   0.352428 0.705892 0.400765 -0.169397
C74   C     C_R   0.729125 0.154029 0.599286 -0.165309
C75   C     C_R   0.147572 0.205892 0.599235 -0.169397
C76   C     C_R   0.770875 0.654029 0.400714 -0.165309
C77   C     C_R   0.852428 0.205892 0.400765 -0.169397
C78   C     C_R   0.833722 0.391713 0.800002 0.193880
C79   C     C_R   0.229125 0.654029 0.599286 -0.165309
C80   C     C_R   0.668602 0.737344 0.500620 0.146131
C81   C     C_R   0.257272 0.135562 0.499057 0.143762
C82   C     C_R   0.331398 0.737344 0.499380 0.146131
C83   C     C_R   0.742727 0.135562 0.500943 0.143762
C84   C     C_R   0.168602 0.237344 0.500620 0.146131
C85   C     C_R   0.757272 0.635562 0.499057 0.143763
C86   C     C_R   0.831398 0.237344 0.499380 0.146131
C87   C     C_R   0.242727 0.635562 0.500943 0.143762
C88   C     C_3   0.310090 0.244958 0.695608 -0.886216
C89   C     C_2   0.637226 0.259931 0.158312 -0.216917
C90   C     C_3   0.767086 0.973023 0.134412 -0.988898
C91   C     C_3   0.689910 0.244958 0.304392 -0.886215
C92   C     C_3   0.232913 0.973022 0.865588 -0.988899
C93   C     C_3   0.810089 0.744958 0.695608 -0.886216
C94   C     C_3   0.267087 0.473022 0.134412 -0.988900
C95   C     C_3   0.189910 0.744958 0.304393 -0.886216
C96   C     C_3   0.732913 0.473023 0.865588 -0.988900
H1    H     H_    0.594239 0.097253 0.675964 0.088078
H2    H     H_    0.297841 0.838889 0.673691 0.114386
H3    H     H_    0.261634 0.083706 0.669709 0.092676
H4    H     H_    0.702159 0.838889 0.326309 0.114386
H5    H     H_    0.238366 0.583706 0.330291 0.092676
H6    H     H_    0.797841 0.338889 0.673691 0.114386
H7    H     H_    0.761634 0.583706 0.669709 0.092677
H8    H     H_    0.202159 0.338889 0.326309 0.114386
H9    H     H_    0.517436 0.158020 0.235790 0.118591
H10   H     H_    0.455293 0.891167 0.827231 0.112585
H11   H     H_    0.482563 0.158020 0.764210 0.118591
H12   H     H_    0.439977 0.840898 0.323338 0.090981
H13   H     H_    0.544707 0.891167 0.172769 0.112585
H14   H     H_    0.017437 0.658020 0.235790 0.118591
H15   H     H_    0.955293 0.391167 0.827231 0.112585
H16   H     H_    0.982564 0.658020 0.764209 0.118591
H17   H     H_    0.044707 0.391167 0.172769 0.112586
H18   H     H_    0.177730 0.138794 0.676315 0.108941
H19   H     H_    0.741627 0.723341 0.323764 0.106372
H20   H     H_    0.822270 0.138794 0.323686 0.108941
H21   H     H_    0.258373 0.723341 0.676236 0.106372
H22   H     H_    0.677730 0.638794 0.676315 0.108941
H23   H     H_    0.405761 0.097253 0.324036 0.088079
H24   H     H_    0.241627 0.223341 0.323764 0.106372
H25   H     H_    0.322270 0.638794 0.323686 0.108941
H26   H     H_    0.758373 0.223341 0.676236 0.106372
H27   H     H_    0.600834 0.725841 0.677418 0.106423
H28   H     H_    0.318905 0.136093 0.322593 0.106923
H29   H     H_    0.399166 0.725841 0.322582 0.106423
H30   H     H_    0.681095 0.136093 0.677407 0.106923
H31   H     H_    0.100834 0.225841 0.677418 0.106423
H32   H     H_    0.818905 0.636093 0.322593 0.106923
H33   H     H_    0.899166 0.225841 0.322582 0.106423
H34   H     H_    0.560023 0.840898 0.676662 0.090980
H35   H     H_    0.181095 0.636093 0.677407 0.106923
H36   H     H_    0.216701 0.887187 0.036764 0.156116
H37   H     H_    0.737518 0.210416 0.054205 0.131782
H38   H     H_    0.783299 0.887187 0.963236 0.156116
H39   H     H_    0.262482 0.210416 0.945795 0.131782
H40   H     H_    0.716701 0.387187 0.036764 0.156116
H41   H     H_    0.237518 0.710416 0.054205 0.131782
H42   H     H_    0.283299 0.387187 0.963236 0.156116
H43   H     H_    0.762482 0.710416 0.945796 0.131782
H44   H     H_    0.340448 0.782917 0.970467 0.135457
H45   H     H_    0.094239 0.597253 0.675964 0.088078
H46   H     H_    0.603017 0.310010 0.182847 0.140217
H47   H     H_    0.659552 0.782917 0.029533 0.135457
H48   H     H_    0.396983 0.310010 0.817153 0.140217
H49   H     H_    0.840448 0.282917 0.970467 0.135457
H50   H     H_    0.103017 0.810010 0.182847 0.140217
H51   H     H_    0.159552 0.282917 0.029532 0.135457
H52   H     H_    0.896983 0.810010 0.817153 0.140217
H53   H     H_    0.249419 0.165609 0.825958 0.147651
H54   H     H_    0.268980 0.251227 0.686175 0.242400
H55   H     H_    0.362388 0.244730 0.612865 0.257120
H56   H     H_    0.939977 0.340898 0.323338 0.090981
H57   H     H_    0.306380 0.295990 0.742035 0.260841
H58   H     H_    0.769836 0.851500 0.113400 0.166995
H59   H     H_    0.821700 0.969607 0.105832 0.250480
H60   H     H_    0.736394 0.011273 0.206988 0.260229
H61   H     H_    0.768161 0.998589 0.068593 0.248208
H62   H     H_    0.750581 0.165610 0.174042 0.147650
H63   H     H_    0.731020 0.251227 0.313825 0.242399
H64   H     H_    0.637611 0.244730 0.387135 0.257120
H65   H     H_    0.693620 0.295990 0.257965 0.260841
H66   H     H_    0.230164 0.851499 0.886600 0.166995
H67   H     H_    0.905761 0.597253 0.324036 0.088079
H68   H     H_    0.178300 0.969607 0.894167 0.250480
H69   H     H_    0.263606 0.011273 0.793012 0.260229
H70   H     H_    0.231838 0.998589 0.931407 0.248209
H71   H     H_    0.749419 0.665609 0.825959 0.147651
H72   H     H_    0.768978 0.751227 0.686178 0.242399
H73   H     H_    0.862387 0.744729 0.612865 0.257120
H74   H     H_    0.806380 0.795989 0.742035 0.260841
H75   H     H_    0.269836 0.351500 0.113400 0.166995
H76   H     H_    0.321700 0.469607 0.105832 0.250480
H77   H     H_    0.236394 0.511273 0.206988 0.260229
H78   H     H_    0.060023 0.340898 0.676662 0.090980
H79   H     H_    0.268162 0.498589 0.068593 0.248209
H80   H     H_    0.250581 0.665610 0.174042 0.147651
H81   H     H_    0.231020 0.751227 0.313826 0.242399
H82   H     H_    0.137611 0.744730 0.387135 0.257120
H83   H     H_    0.193620 0.795990 0.257965 0.260841
H84   H     H_    0.730164 0.351500 0.886601 0.166995
H85   H     H_    0.678300 0.469607 0.894167 0.250480
H86   H     H_    0.763606 0.511273 0.793011 0.260229
H87   H     H_    0.731838 0.498589 0.931407 0.248209
H88   H     H_    0.738366 0.083706 0.330291 0.092676
N1    N     N_R   0.388930 0.078160 0.705470 -0.071946
N2    N     N_R   0.419500 0.922160 0.443350 -0.038388
N3    N     N_R   0.419500 0.077840 0.443350 -0.039037
N4    N     N_R   0.580500 0.922160 0.556650 -0.038388
N5    N     N_R   0.080500 0.577840 0.556650 -0.039037
N6    N     N_R   0.919500 0.422160 0.443350 -0.038388
N7    N     N_R   0.919500 0.577840 0.443350 -0.039037
N8    N     N_R   0.080500 0.422160 0.556650 -0.038388
N9    N     N_R   0.626210 0.077590 0.443410 -0.039934
N10   N     N_R   0.373790 0.922410 0.556590 -0.038815
N11   N     N_R   0.373790 0.077590 0.556590 -0.039934
N12   N     N_R   0.611070 0.921840 0.294530 -0.060876
N13   N     N_R   0.626210 0.922410 0.443410 -0.038815
N14   N     N_R   0.126210 0.577590 0.443410 -0.039934
N15   N     N_R   0.873790 0.422410 0.556590 -0.038815
N16   N     N_R   0.873790 0.577590 0.556590 -0.039935
N17   N     N_R   0.126210 0.422410 0.443410 -0.038815
N18   N     N_R   0.554800 0.077270 0.294580 -0.051249
N19   N     N_R   0.445200 0.922730 0.705420 -0.050790
N20   N     N_R   0.445200 0.077270 0.705420 -0.051249
N21   N     N_R   0.554800 0.922730 0.294580 -0.050790
N22   N     N_R   0.054800 0.577270 0.294580 -0.051249
N23   N     N_R   0.611070 0.078160 0.294530 -0.071946
N24   N     N_R   0.945200 0.422730 0.705420 -0.050790
N25   N     N_R   0.945200 0.577270 0.705420 -0.051249
N26   N     N_R   0.054800 0.422730 0.294580 -0.050790
N27   N     N_2   0.298981 0.172530 0.752127 -0.122873
N28   N     N_2   0.736303 0.896052 0.162906 -0.124745
N29   N     N_2   0.701019 0.172530 0.247873 -0.122873
N30   N     N_2   0.263697 0.896052 0.837094 -0.124745
N31   N     N_2   0.798981 0.672529 0.752128 -0.122873
N32   N     N_2   0.236303 0.396052 0.162906 -0.124745
N33   N     N_2   0.201019 0.672530 0.247873 -0.122873
N34   N     N_R   0.388930 0.921840 0.705470 -0.060876
N35   N     N_2   0.763697 0.396052 0.837094 -0.124745
N36   N     N_R   0.888930 0.578160 0.705470 -0.071946
N37   N     N_R   0.111070 0.421840 0.294530 -0.060876
N38   N     N_R   0.111070 0.578160 0.294530 -0.071946
N39   N     N_R   0.888930 0.421840 0.705470 -0.060876
N40   N     N_R   0.580500 0.077840 0.556650 -0.039037
Ni1   Ni    Ni4+2 0.382710 0.000000 0.629850 0.212257
Ni2   Ni    Ni4+2 0.617290 0.000000 0.370150 0.212257
Ni3   Ni    Ni4+2 0.882710 0.500000 0.629850 0.212257
Ni4   Ni    Ni4+2 0.117290 0.500000 0.370150 0.212257
Ni5   Ni    Ni4+2 0.513020 0.000000 0.629850 0.203093
Ni6   Ni    Ni4+2 0.486980 0.000000 0.370150 0.203093
Ni7   Ni    Ni4+2 0.013020 0.500000 0.629850 0.203093
Ni8   Ni    Ni4+2 0.986980 0.500000 0.370150 0.203093

loop_
_geom_bond_atom_site_label_1
_geom_bond_atom_site_label_2
_ccdc_geom_bond_type
N5    N14   A    
N8    Ni7   S    
C64   H20   S    
C1    N27   S    
C12   N12   A    
C13   H38   S    
C43   H17   S    
C23   N23   A    
H71   N31   S    
C96   H85   S    
C58   C87   S    
C4    H47   S    
C79   C87   A    
C4    C46   S    
N24   N39   A    
C38   C44   A    
N37   Ni4   S    
C24   H56   S    
C4    C13   D    
C65   C79   A    
C31   H5    S    
C31   C58   A    
C71   H27   S    
N5    Ni7   S    
C26   C61   A    
C25   H67   S    
N9    Ni2   S    
C62   H18   S    
C32   N15   A    
C79   H35   S    
C19   N2    A    
H66   N30   S    
C56   N37   A    
N39   Ni3   S    
C75   C84   A    
C93   N31   S    
C63   C76   A    
C26   H78   S    
C89   H46   S    
C30   C57   A    
C30   H4    S    
N12   N21   A    
C36   C47   A    
N25   Ni7   S    
C66   H22   S    
C38   H11   S    
C43   N26   A    
C42   H16   S    
C27   H88   S    
H58   N28   S    
C95   H82   S    
C18   C53   A    
C94   H76   S    
C6    C15   D    
N3    Ni6   S    
C92   H69   S    
C95   H81   S    
N9    N40   A    
C93   H72   S    
N7    Ni8   S    
C88   N27   S    
C70   C74   A    
C28   N10   A    
N8    N17   A    
C69   C73   A    
C17   H42   S    
C27   N9    A    
C18   H1    S    
C69   H25   S    
C55   C81   S    
C18   N40   A    
C74   C83   A    
N34   Ni1   S    
C91   H63   S    
C72   C81   A    
C69   C87   A    
C96   N35   S    
C94   H79   S    
N18   Ni6   S    
C63   H19   S    
C19   H12   S    
C92   H68   S    
C42   C49   A    
N1    Ni1   S    
N26   N37   A    
C38   N20   A    
C72   H28   S    
C47   C89   S    
C57   C80   S    
N21   Ni6   S    
C36   N18   A    
C66   C85   A    
C20   C55   A    
C52   C78   A    
C71   C80   A    
N14   Ni4   S    
N6    N15   A    
N12   Ni2   S    
C63   C80   A    
C3    C44   S    
N20   Ni5   S    
C40   N22   A    
C93   H74   S    
C23   C47   A    
N11   Ni1   S    
N22   Ni8   S    
C68   C84   A    
C67   N33   S    
N7    N16   A    
C12   N28   S    
C12   C46   A    
C35   H8    S    
C34   N30   S    
C9    C89   D    
N19   Ni5   S    
C6    H49   S    
C29   H3    S    
C35   N17   A    
C40   H14   S    
C15   H40   S    
C29   C55   A    
C33   N16   A    
C2    C48   S    
C29   N11   A    
C50   C56   A    
C95   N33   S    
N36   Ni3   S    
C22   N5    A    
N16   Ni3   S    
C26   N8    A    
C67   N38   A    
C64   C83   A    
C21   C57   A    
C11   H39   S    
C78   N35   S    
N24   Ni7   S    
C70   H26   S    
C1    C44   A    
C66   C71   A    
C14   H41   S    
C45   C49   A    
C68   C72   A    
C93   H73   S    
C34   N34   A    
C37   N19   A    
C9    H37   S    
C35   C61   A    
C77   H33   S    
C37   C48   A    
C92   N30   S    
C7    C49   S    
C5    C14   D    
C42   N25   A    
C39   C46   A    
H75   N32   S    
C19   C54   A    
C95   H83   S    
C7    C16   D    
C25   C60   A    
C62   C81   A    
C77   C86   A    
C74   H30   S    
C33   C60   A    
N18   N23   A    
C25   N7    A    
C76   H32   S    
C88   H55   S    
C32   H6    S    
C62   C75   A    
C8    H51   S    
C34   C48   A    
C96   H87   S    
C90   H60   S    
N4    Ni5   S    
C2    C10   D    
C8    C50   S    
C73   C82   A    
C54   C82   S    
N10   Ni1   S    
C21   N4    A    
C7    H52   S    
C23   N29   S    
C28   H2    S    
C11   C17   S    
C28   C54   A    
C5    H50   S    
C41   C52   A    
N19   N34   A    
N3    N11   A    
C36   H9    S    
C33   H7    S    
N25   N36   A    
C88   H54   S    
N2    N10   A    
C5    C51   S    
C3    H48   S    
H53   N27   S    
C96   H86   S    
C61   C84   S    
N26   Ni8   S    
C22   C58   A    
C60   C85   S    
C27   C53   A    
C43   C50   A    
N2    Ni6   S    
C1    N1    A    
C40   C51   A    
C78   N39   A    
C94   N32   S    
C8    C17   D    
C53   C83   S    
H80   N33   S    
C2    H44   S    
C88   H57   S    
C41   N24   A    
C9    C15   S    
C59   C86   S    
C37   H10   S    
C91   N29   S    
N40   Ni5   S    
N13   Ni2   S    
C20   N3    A    
C90   N28   S    
C91   H64   S    
C65   C82   A    
C51   C67   A    
N17   Ni4   S    
H62   N29   S    
N4    N13   A    
N22   N38   A    
C24   C59   A    
C73   H29   S    
C39   N21   A    
C22   H45   S    
C45   N31   S    
N6    Ni8   S    
C20   H23   S    
C10   H36   S    
C21   H34   S    
C56   N32   S    
C3    C11   D    
C94   H77   S    
C16   H43   S    
C92   H70   S    
C39   H13   S    
C30   N13   A    
C90   H61   S    
C64   C77   A    
N38   Ni4   S    
C41   H15   S    
C13   C16   S    
N1    N20   A    
C45   N36   A    
C65   H21   S    
C91   H65   S    
H84   N35   S    
C24   N6    A    
C32   C59   A    
C6    C52   S    
C90   H59   S    
N15   Ni3   S    
C76   C85   A    
C31   N14   A    
C68   H24   S    
N23   Ni2   S    
C10   C14   S    
C75   H31   S    
C70   C86   A    
