data_mof_unit_46844.cif
_audit_creation_date              2012-12-10T16:57:02-0500
_audit_creation_method            fapswitch 2.2
_symmetry_space_group_name_H-M    P1
_symmetry_Int_Tables_number       1
_space_group_crystal_system       triclinic
_cell_length_a                    7.767826
_cell_length_b                    8.560341
_cell_length_c                    17.133416
_cell_angle_alpha                 92.024261
_cell_angle_beta                  81.851387
_cell_angle_gamma                 93.181979
_cell_volume                      1125.61477881

loop_
_atom_site_label
_atom_site_type_symbol
_atom_type_description
_atom_site_fract_x
_atom_site_fract_y
_atom_site_fract_z
_atom_type_partial_charge
C1    C     C_R   0.544795 0.794597 0.497916 0.947617
C2    C     C_R   0.405610 0.415043 0.225434 0.131783
C3    C     C_R   0.604483 0.575148 0.851335 -0.162811
C4    C     C_R   0.399680 0.440411 0.146841 -0.165110
C5    C     C_R   0.495578 0.461171 0.893006 0.152165
C6    C     C_R   0.516732 0.550462 0.106529 0.151725
C7    C     C_R   0.377519 0.366498 0.855962 -0.147580
C8    C     C_R   0.636753 0.639025 0.145191 -0.146641
C9    C     C_R   0.366406 0.387138 0.777184 -0.199419
C10   C     C_R   0.642505 0.615111 0.224164 -0.197395
C11   C     C_2   0.498768 0.443622 0.976206 -0.213069
C12   C     C_R   0.455210 0.205400 0.502089 0.946406
C13   C     C_2   0.519545 0.568959 0.023011 -0.214264
C14   C     C_2   0.563270 0.954361 0.482751 -0.070791
C15   C     C_2   0.436774 0.045640 0.517285 -0.070496
C16   C     C_R   0.480148 0.504721 0.652453 0.900678
C17   C     C_R   0.519992 0.495841 0.347483 0.900295
C18   C     C_R   0.475161 0.500976 0.735849 -0.061595
C19   C     C_R   0.526477 0.504286 0.264088 -0.063168
C20   C     C_R   0.593098 0.597159 0.772907 0.130521
H1    H     H_    0.733916 0.685486 0.254625 0.181734
H2    H     H_    0.977167 0.619478 0.559419 0.227919
H3    H     H_    0.277367 0.311565 0.747875 0.180132
H4    H     H_    0.543359 0.685918 0.999877 0.159353
H5    H     H_    0.475075 0.326939 0.999778 0.159747
H6    H     H_    0.293399 0.278239 0.888159 0.149348
H7    H     H_    0.726933 0.724406 0.114040 0.150338
H8    H     H_    0.304132 0.373636 0.117299 0.156540
H9    H     H_    0.698641 0.646840 0.879413 0.155748
H10   H     H_    0.022806 0.380420 0.440647 0.228579
I1    I     I_    0.751675 0.781192 0.715351 -0.327070
I2    I     I_    0.235763 0.235084 0.280231 -0.327831
I3    I     I_    0.757505 0.013362 0.384360 -0.275070
I4    I     I_    0.242706 0.986630 0.615737 -0.273808
N1    N     N_2   0.953500 0.457650 0.478520 -0.153759
N2    N     N_2   0.046500 0.542350 0.521480 -0.154114
O1    O     O_R   0.388470 0.738640 0.505270 -0.597739
O2    O     O_R   0.611530 0.261360 0.494730 -0.597014
O3    O     O_R   0.679650 0.711510 0.491500 -0.604095
O4    O     O_R   0.320350 0.288490 0.508500 -0.604251
O5    O     O_R   0.337210 0.515200 0.623500 -0.603653
O6    O     O_R   0.662790 0.484800 0.376500 -0.604011
O7    O     O_R   0.628380 0.488060 0.609730 -0.611936
O8    O     O_R   0.371620 0.511940 0.390270 -0.611538
Zn1   Zn    Zn3+2 0.305580 0.518120 0.509190 1.023750
Zn2   Zn    Zn3+2 0.694420 0.481880 0.490810 1.023850

loop_
_geom_bond_atom_site_label_1
_geom_bond_atom_site_label_2
_ccdc_geom_bond_type
C12   O4    A    
C2    C4    A    
H2    N2    S    
C15   I4    S    
N1    N2    D    
C12   C15   S    
C1    O1    A    
C10   C19   A    
C14   I3    S    
C17   O8    A    
N2    Zn1   S    
C16   C18   S    
C6    C13   S    
C11   C13   D    
C16   O7    A    
C3    H9    S    
C7    H6    S    
H10   N1    S    
O3    Zn2   S    
C2    I2    S    
C4    H8    S    
C5    C11   S    
C18   C20   A    
C10   H1    S    
C12   O2    A    
O4    Zn1   S    
O7    Zn2   S    
O2    Zn2   S    
C1    O3    A    
O1    Zn1   S    
C11   H5    S    
C7    C9    A    
C9    C18   A    
C3    C20   A    
O8    Zn1   S    
C4    C6    A    
O6    Zn2   S    
C5    C7    A    
C8    H7    S    
O5    Zn1   S    
C14   C15   D    
C9    H3    S    
C6    C8    A    
C1    C14   S    
C17   C19   S    
C2    C19   A    
C17   O6    A    
N1    Zn2   S    
C16   O5    A    
C8    C10   A    
C13   H4    S    
C3    C5    A    
C20   I1    S    
