data_mof_unit_56173.cif
_audit_creation_date              2012-12-11T14:50:42-0500
_audit_creation_method            fapswitch 2.2
_symmetry_space_group_name_H-M    P1
_symmetry_Int_Tables_number       1
_space_group_crystal_system       triclinic
_cell_length_a                    20.733112
_cell_length_b                    7.216593
_cell_length_c                    20.342847
_cell_angle_alpha                 90.529056
_cell_angle_beta                  101.492646
_cell_angle_gamma                 89.324031
_cell_volume                      2982.43881579

loop_
_atom_site_label
_atom_site_type_symbol
_atom_type_description
_atom_site_fract_x
_atom_site_fract_y
_atom_site_fract_z
_atom_type_partial_charge
O1    O     O_R   0.423690 0.494470 0.435930 -0.535471
O2    O     O_R   0.576310 0.994470 0.564070 -0.534325
O3    O     O_R   0.556070 0.822310 0.435760 -0.534639
O4    O     O_R   0.443930 0.322310 0.564240 -0.534825
C1    C     C_R   0.575347 0.653817 0.420959 0.749483
C2    C     C_R   0.424562 0.156393 0.579087 0.746341
O5    O     O_R   0.422940 0.824080 0.428040 -0.543625
O6    O     O_R   0.577060 0.324080 0.571960 -0.541816
O7    O     O_R   0.442240 0.995960 0.556300 -0.525875
O8    O     O_R   0.557760 0.495960 0.443700 -0.527697
C3    C     C_R   0.399713 0.656163 0.410363 0.748413
C4    C     C_R   0.600309 0.155728 0.589623 0.751539
O9    O     O_3   0.506490 0.661310 0.542090 -0.376182
O10   O     O_3   0.493510 0.161310 0.457910 -0.378313
V1    V     V_3+5 0.498800 0.935560 0.492190 1.543322
V2    V     V_3+5 0.501200 0.435560 0.507810 1.546968
C5    C     C_R   0.838281 0.081780 0.857309 -0.171661
C6    C     C_R   0.161651 0.580123 0.142822 -0.178557
C7    C     C_R   0.660479 0.150512 0.643236 -0.103935
C8    C     C_R   0.339584 0.652010 0.356663 -0.104812
C9    C     C_R   0.775047 0.245099 0.678772 -0.026766
C10   C     C_R   0.225095 0.752931 0.320785 -0.020875
C11   C     C_R   0.715542 0.244518 0.631780 -0.166615
C12   C     C_R   0.284614 0.751442 0.367766 -0.172615
C13   C     C_R   0.664451 0.051521 0.703615 -0.064914
C14   C     C_R   0.335487 0.548401 0.296637 -0.057395
C15   C     C_R   0.723358 0.059696 0.753914 0.014111
C16   C     C_R   0.276571 0.557159 0.246323 0.010480
C17   C     C_R   0.778062 0.166506 0.743558 0.065210
C18   C     C_R   0.221970 0.669185 0.256299 0.064042
C19   C     C_R   0.833411 0.189104 0.798276 -0.145600
C20   C     C_R   0.166619 0.691726 0.201517 -0.141905
C21   C     C_R   0.784782 0.971626 0.864899 0.423588
C22   C     C_R   0.215055 0.464996 0.135648 0.427060
C23   C     C_R   0.728031 0.966259 0.815198 -0.159595
C24   C     C_R   0.271790 0.459044 0.185390 -0.154697
H1    H     H_    0.687573 0.886443 0.825726 0.160468
H2    H     H_    0.312170 0.375071 0.175162 0.163180
H3    H     H_    0.712933 0.309222 0.583375 0.166579
H4    H     H_    0.287276 0.819844 0.415940 0.164089
C25   C     C_3   0.228033 0.313081 0.783945 -0.304256
C26   C     C_3   0.728311 0.712660 0.177400 -0.188961
C27   C     C_3   0.274036 0.997711 0.823796 0.225049
C28   C     C_3   0.772882 0.403254 0.221213 0.228777
C29   C     C_3   0.324516 0.009311 0.774456 -0.296064
C30   C     C_3   0.729316 0.405795 0.278181 -0.169915
H5    H     H_    0.255306 0.367569 0.832610 0.238659
H6    H     H_    0.706188 0.660196 0.126642 0.239599
H7    H     H_    0.332291 0.867707 0.755462 0.224002
H8    H     H_    0.761033 0.362011 0.326250 0.231249
C31   C     C_1   0.379560 0.148508 0.625174 -0.050251
C32   C     C_1   0.620614 0.638079 0.375322 -0.041242
C33   C     C_3   0.208585 0.107224 0.792931 -0.104716
C34   C     C_3   0.793632 0.605876 0.209311 -0.117543
C35   C     C_3   0.274062 0.324665 0.731205 0.166701
C36   C     C_3   0.676437 0.703626 0.223973 0.204873
C37   C     C_3   0.294824 0.126360 0.710554 -0.108083
C38   C     C_3   0.707034 0.608765 0.291733 -0.151891
C39   C     C_3   0.230062 0.029323 0.674229 0.182318
C40   C     C_3   0.771025 0.717377 0.323761 0.192925
C41   C     C_3   0.177856 0.035186 0.720232 0.147391
C42   C     C_3   0.824138 0.700824 0.278427 0.184337
C43   C     C_1   0.341624 0.138856 0.663467 0.144564
C44   C     C_1   0.659085 0.621665 0.337720 0.134113
C45   C     C_1   0.159982 0.095926 0.838482 0.117443
C46   C     C_1   0.841201 0.606148 0.162501 0.022756
C47   C     C_1   0.121157 0.086746 0.875852 -0.066703
C48   C     C_1   0.879440 0.595834 0.124486 -0.092454
H9    H     H_    0.139612 0.134141 0.696442 0.183847
H10   H     H_    0.839614 0.842604 0.268785 0.179551
H11   H     H_    0.209549 0.108850 0.627949 0.136715
H12   H     H_    0.757516 0.866335 0.326899 0.168743
H13   H     H_    0.247363 0.393268 0.684813 0.203243
H14   H     H_    0.659654 0.844486 0.236158 0.178992
O11   O     O_R   0.942280 0.741210 0.056360 -0.530649
O12   O     O_R   0.057720 0.241210 0.943640 -0.530935
O13   O     O_R   0.077070 0.409690 0.071960 -0.511389
O14   O     O_R   0.922930 0.909690 0.928040 -0.508899
C49   C     C_R   0.100908 0.577659 0.089152 0.721487
C50   C     C_R   0.899080 0.078171 0.910859 0.719470
O15   O     O_R   0.943940 0.411580 0.064250 -0.539364
O16   O     O_R   0.056060 0.911580 0.935750 -0.533381
O17   O     O_R   0.923670 0.239840 0.935920 -0.542082
O18   O     O_R   0.076330 0.739840 0.064080 -0.539400
C51   C     C_R   0.924610 0.581552 0.078740 0.724494
C52   C     C_R   0.075514 0.079072 0.921250 0.723653
O19   O     O_3   0.993540 0.572620 0.957940 -0.373718
O20   O     O_3   0.006460 0.072620 0.042060 -0.376300
V3    V     V_3+5 0.001200 0.298330 0.007800 1.573969
V4    V     V_3+5 0.998800 0.798330 0.992200 1.587984
C53   C     C_2   0.883390 0.334546 0.797989 0.412420
H15   H     H_    0.935388 0.302421 0.814032 0.033573
O21   O     O_2   0.866513 0.493415 0.782299 -0.501812
C54   C     C_2   0.116731 0.841026 0.201383 0.411411
H16   H     H_    0.064700 0.811486 0.185737 0.036130
O22   O     O_2   0.133710 0.999942 0.216282 -0.504341
Cl1   Cl    Cl    0.308128 0.090381 0.906935 -0.480127
Cl2   Cl    Cl    0.727845 0.322069 0.139844 -0.616836
C55   C     C_2   0.393308 0.068170 0.808179 0.642844
H17   H     H_    0.401414 0.196272 0.836549 0.158597
O23   O     O_2   0.440854 0.969794 0.804623 -0.471187
C56   C     C_2   0.673019 0.269445 0.267341 0.555222
H18   H     H_    0.638868 0.258927 0.219782 0.180809
O24   O     O_2   0.665506 0.167219 0.312686 -0.539124
Cl3   Cl    Cl    0.126210 0.839089 0.716776 -0.529146
Cl4   Cl    Cl    0.901843 0.601985 0.319166 -0.475110
C57   C     C_2   0.167355 0.435579 0.766492 0.445829
H19   H     H_    0.148835 0.505885 0.806474 0.100934
O25   O     O_2   0.136885 0.450098 0.708849 -0.458290
C58   C     C_2   0.743001 0.905568 0.164761 0.346636
H20   H     H_    0.752734 0.948654 0.116712 0.164662
O26   O     O_2   0.747736 0.012853 0.211288 -0.559803
Cl5   Cl    Cl    0.244613 0.800400 0.644002 -0.533101
Cl6   Cl    Cl    0.801946 0.653923 0.409961 -0.441823
Cl7   Cl    Cl    0.784482 0.847328 0.939232 -0.602568
Cl8   Cl    Cl    0.215330 0.334729 0.061759 -0.529722
C59   C     C_2   0.834342 0.306579 0.654564 0.558432
H21   H     H_    0.882325 0.247533 0.675309 0.042118
O27   O     O_2   0.830048 0.420765 0.609896 -0.467795
C60   C     C_2   0.165879 0.821234 0.344781 0.537871
H22   H     H_    0.117864 0.764009 0.324400 0.053692
O28   O     O_2   0.170275 0.939219 0.388854 -0.485415
C61   C     C_2   0.606788 0.943497 0.714569 0.431203
H23   H     H_    0.613632 0.805952 0.736027 0.068177
O29   O     O_2   0.551121 0.008261 0.700402 -0.505742
C62   C     C_2   0.393040 0.434872 0.286046 0.423597
H24   H     H_    0.386071 0.296035 0.265188 0.064111
O30   O     O_2   0.448749 0.496444 0.299831 -0.510798
Cl9   Cl    Cl    0.343193 0.472028 0.760299 -0.620171
Cl10  Cl    Cl    0.601057 0.602437 0.180616 -0.525741
C63   C     C_2   0.258617 0.796192 0.832808 0.536241
H25   H     H_    0.246244 0.709670 0.788864 0.096059
O31   O     O_2   0.259875 0.729042 0.887973 -0.461507
C64   C     C_2   0.834201 0.279398 0.239593 0.606928
H26   H     H_    0.864548 0.253090 0.202692 0.044158
O32   O     O_2   0.849965 0.205426 0.294322 -0.482372

loop_
_geom_bond_atom_site_label_1
_geom_bond_atom_site_label_2
_ccdc_geom_bond_type
C20   C54   S    
C62   H24   S    
C15   C17   A    
C46   C48   T    
O1    C3    A    
O2    C4    A    
C2    O7    A    
C61   H23   S    
O14   V4    S    
O5    C3    A    
C30   C56   S    
O13   V3    S    
C5    C21   A    
C23   H1    S    
C59   O27   D    
C49   O18   A    
C21   C23   A    
O14   C50   A    
C37   C39   S    
C45   C47   T    
C40   H12   S    
C38   C40   S    
C36   Cl10  S    
C42   H10   S    
C40   C42   S    
C14   C62   S    
C39   C41   S    
C58   H20   S    
C25   C35   S    
C9    C59   S    
O11   V4    S    
C26   C36   S    
C28   Cl2   S    
C27   C33   S    
C8    C12   A    
C60   O28   D    
C6    C49   S    
C35   Cl9   S    
C57   H19   S    
C1    C32   S    
C2    C31   S    
C41   Cl3   S    
C40   Cl6   S    
C39   Cl5   S    
O12   V3    S    
C54   O22   D    
O15   V3    S    
O5    V1    S    
O6    V2    S    
C30   C38   S    
C28   C64   S    
C48   C51   S    
C57   O25   D    
C56   H18   S    
O18   V4    S    
C50   O17   A    
C28   C30   S    
C37   C43   S    
O13   C49   A    
C38   C44   S    
O17   V3    S    
C3    C8    S    
C21   Cl7   S    
C36   H14   S    
C31   C43   T    
O4    C2    A    
C29   C55   S    
C53   H15   S    
C64   O32   D    
C34   C42   S    
C15   C23   A    
O16   C52   A    
C9    C17   A    
C5    C50   S    
O4    V2    S    
C7    C11   A    
C28   C34   S    
C53   O21   D    
C13   C61   S    
C55   H17   S    
C29   H7    S    
O6    C4    A    
C29   C37   S    
C33   C45   S    
O3    C1    A    
C25   H5    S    
O1    V2    S    
C26   H6    S    
C56   O24   D    
O2    V1    S    
C6    C22   A    
C25   C33   S    
C27   C63   S    
C34   C46   S    
C55   O23   D    
O20   V4    S    
C19   C53   S    
C35   C37   S    
C32   C44   T    
C5    C19   A    
C10   C12   A    
O19   V4    S    
C6    C20   A    
C33   C41   S    
C63   H25   S    
O12   C52   A    
O3    V1    S    
C60   H22   S    
O11   C51   A    
C41   H9    S    
C47   C52   S    
C62   O30   D    
C10   C18   A    
C27   Cl1   S    
C63   O31   D    
C10   C60   S    
C64   H26   S    
C42   Cl4   S    
C13   C15   A    
C30   H8    S    
C14   C16   A    
O16   V4    S    
C9    C11   A    
C26   C58   S    
C16   C18   A    
C27   C29   S    
O8    V2    S    
C59   H21   S    
C26   C34   S    
C18   C20   A    
C8    C14   A    
C11   H3    S    
C4    C7    S    
C24   H2    S    
C12   H4    S    
C36   C38   S    
C22   C24   A    
O7    V1    S    
C54   H16   S    
C7    C13   A    
C58   O26   D    
C61   O29   D    
C35   H13   S    
C25   C57   S    
C1    O8    A    
O20   V3    S    
C16   C24   A    
C17   C19   A    
O9    V2    S    
O19   V3    S    
O10   V1    S    
C22   Cl8   S    
O15   C51   A    
C39   H11   S    
