data_mof_unit_32539.cif
_audit_creation_date              2013-03-05T15:49:32-0500
_audit_creation_method            fapswitch 2.2
_symmetry_space_group_name_H-M    P1
_symmetry_Int_Tables_number       1
_space_group_crystal_system       triclinic
_cell_length_a                    10.653179
_cell_length_b                    11.998564
_cell_length_c                    12.79465
_cell_angle_alpha                 94.050403
_cell_angle_beta                  90.121105
_cell_angle_gamma                 87.018383
_cell_volume                      1629.15335098

loop_
_atom_site_label
_atom_site_type_symbol
_atom_site_description
_atom_site_fract_x
_atom_site_fract_y
_atom_site_fract_z
_atom_type_partial_charge
O1    O     O_R   0.506170 0.421700 0.658830 -0.623346
O2    O     O_R   0.493830 0.578300 0.341170 -0.623347
O3    O     O_R   0.491330 0.609310 0.646410 -0.597867
O4    O     O_R   0.508670 0.390690 0.353590 -0.597868
C1    C     C_R   0.494959 0.522846 0.700364 0.871034
C2    C     C_R   0.505040 0.477154 0.299636 0.871035
O5    O     O_R   0.690650 0.406190 0.506220 -0.608237
O6    O     O_R   0.309350 0.593810 0.493780 -0.608238
O7    O     O_R   0.675800 0.593810 0.493800 -0.621417
O8    O     O_R   0.324200 0.406190 0.506200 -0.621415
C3    C     C_R   0.739119 0.500890 0.499279 0.873906
C4    C     C_R   0.260881 0.499109 0.500720 0.873905
Zn1   Zn    Zn3+2 0.509910 0.374730 0.508290 0.976539
Zn2   Zn    Zn3+2 0.490090 0.625270 0.491710 0.976538
C5    C     C_R   0.871109 0.463106 0.687352 -0.232540
C6    C     C_R   0.128891 0.536901 0.312649 -0.232544
C7    C     C_R   0.936503 0.438601 0.777928 -0.172353
C8    C     C_R   0.063497 0.561412 0.222075 -0.172346
C9    C     C_R   0.067848 0.430703 0.777956 0.383876
C10   C     C_R   0.932152 0.569308 0.222047 0.383875
C11   C     C_R   0.132100 0.450486 0.685967 -0.230442
C12   C     C_R   0.867900 0.549518 0.314033 -0.230446
C13   C     C_R   0.066420 0.475222 0.592991 0.020908
C14   C     C_R   0.933580 0.524779 0.407009 0.020908
C15   C     C_R   0.935390 0.479980 0.593368 0.082296
C16   C     C_R   0.064610 0.520022 0.406633 0.082297
C17   C     C_R   0.128596 0.496681 0.499835 -0.132340
C18   C     C_R   0.871404 0.503320 0.500164 -0.132340
H1    H     H_    0.769724 0.469129 0.692101 0.145299
H2    H     H_    0.230276 0.530879 0.307901 0.145300
H3    H     H_    0.883940 0.425156 0.847884 0.192888
H4    H     H_    0.116061 0.574862 0.152120 0.192895
H5    H     H_    0.233561 0.446752 0.688141 0.179655
H6    H     H_    0.766439 0.553252 0.311859 0.179659
C19   C     C_R   0.513020 0.461998 0.188096 -0.081203
C20   C     C_R   0.486978 0.538002 0.811904 -0.081208
C21   C     C_R   0.385157 0.615586 0.970274 -0.156410
C22   C     C_R   0.614839 0.384412 0.029726 -0.156416
C23   C     C_R   0.399619 0.615809 0.862650 0.159457
C24   C     C_R   0.600378 0.384190 0.137349 0.159465
C25   C     C_R   0.560056 0.463206 0.867796 -0.234561
C26   C     C_R   0.439941 0.536792 0.132204 -0.234557
C27   C     C_R   0.544198 0.461769 0.974267 0.182736
C28   C     C_R   0.455798 0.538229 0.025733 0.182736
H7    H     H_    0.373140 0.596403 0.172388 0.136385
H8    H     H_    0.626858 0.403595 0.827612 0.136387
H9    H     H_    0.316871 0.673820 0.010083 0.159042
H10   H     H_    0.683124 0.326177 0.989917 0.159038
N1    N     N_R   0.523130 0.207800 0.519340 -0.103298
N2    N     N_R   0.476870 0.792200 0.480660 -0.103299
C29   C     C_R   0.384190 0.952157 0.400902 -0.293096
C30   C     C_R   0.615810 0.047843 0.599098 -0.293096
C31   C     C_R   0.395166 0.836327 0.410625 0.063364
C32   C     C_R   0.604834 0.163673 0.589375 0.063364
C33   C     C_R   0.549724 0.859633 0.543042 -0.004623
C34   C     C_R   0.450276 0.140367 0.456957 -0.004623
C35   C     C_R   0.541994 0.976653 0.536079 0.081884
C36   C     C_R   0.458006 0.023347 0.463921 0.081884
H11   H     H_    0.386302 0.177924 0.402018 0.136618
H12   H     H_    0.613698 0.822075 0.597982 0.136619
H13   H     H_    0.661718 0.218619 0.637987 0.133359
H14   H     H_    0.338282 0.781381 0.362013 0.133359
H15   H     H_    0.318738 0.985610 0.344724 0.161151
H16   H     H_    0.681262 0.014389 0.655276 0.161151
N3    N     N_R   0.864231 0.597695 0.129329 0.212937
O9    O     O_R   0.923249 0.605827 0.041446 -0.361870
O10   O     O_R   0.743538 0.620707 0.133024 -0.407703
N4    N     N_R   0.135770 0.402324 0.870676 0.212928
O11   O     O_R   0.076758 0.394240 0.958570 -0.361884
O12   O     O_R   0.256456 0.379277 0.866973 -0.407695
I1    I     I_    0.723146 0.272787 0.216453 -0.292027
I2    I     I_    0.276853 0.727213 0.783546 -0.292022

loop_
_geom_bond_atom_site_label_1
_geom_bond_atom_site_label_2
_geom_bond_distance
_ccdc_geom_bond_type
O1    Zn1   1.968180 S    
O5    C3    1.281055 A    
O7    Zn2   1.995191 S    
C32   H13   1.082023 S    
C13   C17   1.410703 A    
C21   H9    1.084093 S    
N1    C34   1.365859 A    
O7    C3    1.278885 A    
C31   H14   1.082024 S    
C29   C31   1.402909 A    
C22   H10   1.084092 S    
N2    C33   1.365858 A    
C34   H11   1.082788 S    
C10   C12   1.403520 A    
O6    C4    1.281054 A    
C24   I1    2.127261 S    
C30   C32   1.402909 A    
C21   C28   1.396227 A    
C33   C35   1.411294 A    
C19   C24   1.409181 A    
C16   C17   1.410324 A    
C29   H15   1.083267 S    
C9    N4    1.440378 S    
C21   C23   1.386123 A    
C29   C36   1.402861 A    
C12   H6    1.079857 S    
C33   H12   1.082788 S    
C15   C18   1.410325 A    
C22   C24   1.386122 A    
C25   C27   1.374478 A    
C20   C25   1.392295 A    
O2    C2    1.289803 A    
C25   H8    1.085825 S    
C26   C28   1.374478 A    
C3    C18   1.411069 S    
O3    Zn2   2.001944 S    
Zn1   N1    2.015461 S    
O8    C4    1.278886 A    
C12   C14   1.420417 A    
O4    C2    1.284997 A    
C9    C11   1.403519 A    
C7    H3    1.082881 S    
C34   C36   1.411294 A    
C5    H1    1.080282 S    
C8    C10   1.397519 A    
C11   C13   1.420416 A    
C27   C28   1.410506 A    
C6    C16   1.417122 A    
C23   I2    2.127259 S    
O2    Zn2   1.968179 S    
O1    C1    1.289803 A    
C5    C15   1.417123 A    
N2    C31   1.362592 A    
C11   H5    1.079857 S    
C30   C35   1.402861 A    
Zn2   N2    2.015462 S    
C4    C17   1.411068 S    
C6    H2    1.080281 S    
N1    C32   1.362592 A    
C1    C20   1.428001 S    
C10   N3    1.440380 S    
O5    Zn1   1.981871 S    
C13   C15   1.394091 A    
C8    H4    1.082881 S    
C2    C19   1.427999 S    
C6    C8    1.392202 A    
N3    O9    1.301555 A    
C30   H16   1.083267 S    
O4    Zn1   2.001943 S    
C5    C7    1.392203 A    
N4    O12   1.301205 A    
C19   C26   1.392295 A    
C7    C9    1.397519 A    
O6    Zn2   1.981870 S    
O3    C1    1.284998 A    
C35   C36   1.408630 A    
C26   H7    1.085824 S    
C20   C23   1.409180 A    
C22   C27   1.396228 A    
C14   C18   1.410703 A    
C14   C16   1.394091 A    
N4    O11   1.301554 A    
N3    O10   1.301205 A    
O8    Zn1   1.995190 S    
