data_mof_unit_16273.cif
_audit_creation_date              2012-12-11T15:27:05-0500
_audit_creation_method            fapswitch 2.2
_symmetry_space_group_name_H-M    P1
_symmetry_Int_Tables_number       1
_space_group_crystal_system       triclinic
_cell_length_a                    13.944629
_cell_length_b                    13.997953
_cell_length_c                    27.389736
_cell_angle_alpha                 89.915245
_cell_angle_beta                  89.954877
_cell_angle_gamma                 120.294248
_cell_volume                      4616.294019

loop_
_atom_site_label
_atom_site_type_symbol
_atom_type_description
_atom_site_fract_x
_atom_site_fract_y
_atom_site_fract_z
_atom_type_partial_charge
C1    C     C_R   0.233469 0.787432 0.568365 0.538199
C2    C     C_R   0.212342 0.446478 0.568557 0.536814
C3    C     C_R   0.553343 0.766040 0.568579 0.536151
C4    C     C_3   0.637998 0.736009 0.789861 -0.232981
C5    C     C_3   0.245002 0.941848 0.783311 -0.231086
C6    C     C_3   0.103744 0.370941 0.790609 -0.232976
C7    C     C_3   0.613930 0.723491 0.734490 -0.266249
C8    C     C_3   0.263765 0.918410 0.730113 -0.264876
C9    C     C_3   0.112094 0.391547 0.734909 -0.266990
C10   C     C_1   0.708968 0.867468 0.858368 -0.078059
C11   C     C_1   0.108353 0.884188 0.850032 -0.080921
C12   C     C_1   0.156471 0.290076 0.858194 -0.078463
C13   C     C_1   0.634042 0.821332 0.657435 -0.061264
C14   C     C_1   0.172840 0.820799 0.654554 -0.062661
C15   C     C_1   0.185114 0.366091 0.657469 -0.054252
C16   C     C_1   0.604381 0.799788 0.615591 -0.031307
C17   C     C_1   0.196918 0.807388 0.613979 -0.031682
C18   C     C_1   0.194289 0.395654 0.615590 -0.028613
C19   C     C_R   0.107253 0.219959 0.948819 0.544366
C20   C     C_R   0.780250 0.887146 0.948783 0.543265
C21   C     C_R   0.090908 0.930080 0.941845 0.564751
C22   C     C_R   0.615413 0.808079 0.385816 0.025049
C23   C     C_R   0.192184 0.807266 0.385791 0.024898
C24   C     C_R   0.192343 0.385335 0.385724 0.025016
C25   C     C_R   0.609389 0.892231 0.360499 -0.126328
C26   C     C_R   0.106766 0.716898 0.360746 -0.126412
C27   C     C_R   0.282827 0.390556 0.360673 -0.126180
C28   C     C_R   0.638233 0.911024 0.311590 -0.123365
C29   C     C_R   0.087811 0.726866 0.311867 -0.123254
C30   C     C_R   0.272964 0.361707 0.311806 -0.123194
C31   C     C_R   0.675811 0.847685 0.287656 0.036753
C32   C     C_R   0.152347 0.827883 0.287674 0.036604
C33   C     C_R   0.171918 0.325037 0.287611 0.036618
C34   C     C_R   0.233004 0.787566 0.431620 0.544859
C35   C     C_R   0.212274 0.445620 0.431604 0.544537
C36   C     C_R   0.554526 0.766965 0.431657 0.543718
C37   C     C_R   0.693343 0.772057 0.314279 -0.120302
C38   C     C_R   0.229470 0.921234 0.314039 -0.120444
C39   C     C_R   0.078357 0.308672 0.313961 -0.120256
C40   C     C_R   0.662605 0.751789 0.363128 -0.127614
C41   C     C_R   0.249827 0.910855 0.362848 -0.127857
C42   C     C_R   0.088648 0.339329 0.362760 -0.127650
C43   C     C_R   0.656539 0.759653 0.206793 -0.120027
C44   C     C_R   0.240392 0.896396 0.206474 -0.120041
C45   C     C_R   0.104331 0.344285 0.206318 -0.119965
C46   C     C_R   0.676959 0.767779 0.156913 -0.132256
C47   C     C_R   0.232126 0.908690 0.156613 -0.132215
C48   C     C_R   0.092153 0.323513 0.156490 -0.132033
C49   C     C_R   0.754318 0.966588 0.161349 -0.125814
C50   C     C_R   0.032214 0.787725 0.161685 -0.126612
C51   C     C_R   0.211873 0.244509 0.161778 -0.126281
C52   C     C_R   0.735986 0.958744 0.211304 -0.121891
C53   C     C_R   0.040239 0.777176 0.211635 -0.121622
C54   C     C_R   0.222331 0.263339 0.211701 -0.121787
C55   C     C_R   0.689952 0.855623 0.234567 0.036065
C56   C     C_R   0.144048 0.834023 0.234578 0.035884
C57   C     C_R   0.166008 0.310422 0.234527 0.035803
C58   C     C_R   0.729378 0.871735 0.134325 0.022560
C59   C     C_R   0.127629 0.857348 0.134338 0.021224
C60   C     C_R   0.142896 0.270217 0.134339 0.022331
C61   C     C_R   0.106757 0.221431 0.086179 0.549473
C62   C     C_R   0.778485 0.884868 0.086161 0.548605
C63   C     C_R   0.115027 0.893298 0.086119 0.561027
C64   C     C_3   0.592761 0.892261 0.733499 0.187250
C65   C     C_3   0.101744 0.723413 0.734206 0.186074
C66   C     C_3   0.297630 0.401802 0.732959 0.187665
C67   C     C_3   0.781586 0.910629 0.721557 -0.191940
C68   C     C_3   0.072653 0.882100 0.710440 -0.189282
C69   C     C_3   0.119743 0.218397 0.721477 -0.196571
C70   C     C_3   0.798739 0.929817 0.777474 -0.214572
C71   C     C_3   0.047022 0.888632 0.765054 -0.219601
C72   C     C_3   0.116417 0.199617 0.777443 -0.218583
C73   C     C_1   0.735272 0.874550 0.900673 -0.023908
C74   C     C_1   0.100245 0.903984 0.892135 -0.020419
C75   C     C_1   0.138795 0.264204 0.900582 -0.025413
C76   C     C_3   0.655983 0.837800 0.710251 0.101681
C77   C     C_3   0.152107 0.835390 0.705854 0.100289
C78   C     C_3   0.178963 0.343946 0.710239 0.101604
C79   C     C_3   0.607002 0.898120 0.790181 -0.164597
C80   C     C_3   0.091757 0.743180 0.789573 -0.161796
C81   C     C_3   0.289987 0.382916 0.789308 -0.166470
C82   C     C_3   0.688004 0.858248 0.805450 0.041073
C83   C     C_3   0.122351 0.864723 0.798419 0.039129
C84   C     C_3   0.167120 0.311056 0.805329 0.040460
Cr1   Cr    Cr6+3 0.164410 0.584450 0.499910 1.008768
Cr2   Cr    Cr6+3 0.415550 0.579960 0.499910 1.008687
Cr3   Cr    Cr6+3 0.420040 0.835590 0.499910 1.006999
Cr4   Cr    Cr6+3 0.156760 0.076070 0.017830 1.013189
Cr5   Cr    Cr6+3 0.923930 0.080690 0.017830 1.013751
Cr6   Cr    Cr6+3 0.919310 0.843240 0.017830 1.019379
H1    H     H_    0.638511 0.984177 0.803217 0.145616
H2    H     H_    0.005908 0.685671 0.802845 0.145770
H3    H     H_    0.337401 0.341951 0.800329 0.145368
H4    H     H_    0.502030 0.837516 0.725904 0.062807
H5    H     H_    0.160964 0.691753 0.731190 0.061813
H6    H     H_    0.335436 0.492894 0.726745 0.064454
H7    H     H_    0.524854 0.845298 0.807944 0.067979
H8    H     H_    0.148271 0.724729 0.811054 0.071879
H9    H     H_    0.328695 0.464164 0.808338 0.067771
H10   H     H_    0.696964 0.706889 0.798772 0.128726
H11   H     H_    0.266835 0.029829 0.786668 0.128861
H12   H     H_    0.014781 0.320056 0.801322 0.128934
H13   H     H_    0.573802 0.937494 0.377146 0.132452
H14   H     H_    0.060472 0.635968 0.377598 0.131714
H15   H     H_    0.363859 0.425286 0.377518 0.132097
H16   H     H_    0.617220 0.678719 0.223817 0.103953
H17   H     H_    0.321798 0.937849 0.223224 0.104018
H18   H     H_    0.063308 0.384316 0.222964 0.104184
H19   H     H_    0.656986 0.693822 0.136470 0.117648
H20   H     H_    0.306512 0.962495 0.135926 0.118283
H21   H     H_    0.038848 0.344043 0.135737 0.118018
H22   H     H_    0.624067 0.969903 0.291890 0.099693
H23   H     H_    0.027761 0.653674 0.292380 0.099664
H24   H     H_    0.346326 0.374992 0.292332 0.099603
H25   H     H_    0.762547 0.033910 0.231943 0.101292
H26   H     H_    0.964769 0.728724 0.232525 0.101171
H27   H     H_    0.270246 0.236400 0.232671 0.101363
H28   H     H_    0.795804 0.047933 0.144641 0.130398
H29   H     H_    0.950465 0.748105 0.145221 0.129594
H30   H     H_    0.250997 0.202259 0.145418 0.129771
H31   H     H_    0.726140 0.725159 0.296787 0.101238
H32   H     H_    0.277384 0.001027 0.296370 0.101063
H33   H     H_    0.998494 0.276665 0.296297 0.101158
H34   H     H_    0.669697 0.687788 0.382196 0.125628
H35   H     H_    0.314884 0.982099 0.381684 0.125446
H36   H     H_    0.017297 0.332958 0.381583 0.125516
H37   H     H_    0.826871 0.869168 0.708253 0.094440
H38   H     H_    0.111691 0.966115 0.693812 0.096747
H39   H     H_    0.033503 0.176607 0.706921 0.095505
H40   H     H_    0.817451 0.991586 0.702333 0.150972
H41   H     H_    0.993923 0.829043 0.690391 0.150361
H42   H     H_    0.163516 0.180134 0.703292 0.152125
H43   H     H_    0.831000 0.018804 0.785486 0.125049
H44   H     H_    0.958763 0.825821 0.772421 0.127818
H45   H     H_    0.164500 0.158224 0.786376 0.118684
H46   H     H_    0.862023 0.910134 0.790331 0.100059
H47   H     H_    0.058226 0.971240 0.772970 0.096363
H48   H     H_    0.029201 0.143771 0.789310 0.105137
H49   H     H_    0.522959 0.670390 0.728507 0.084728
H50   H     H_    0.319339 0.882876 0.729989 0.084524
H51   H     H_    0.152970 0.482058 0.727733 0.084926
H52   H     H_    0.655434 0.681599 0.717481 0.116121
H53   H     H_    0.305606 0.997417 0.709195 0.120614
H54   H     H_    0.027118 0.351879 0.719177 0.117623
H55   H     H_    0.559671 0.682559 0.810303 0.113101
H56   H     H_    0.301255 0.929468 0.807982 0.118846
H57   H     H_    0.138749 0.451356 0.810138 0.113601
O1    O     O_R   0.137310 0.468260 0.552980 -0.521492
O2    O     O_R   0.531740 0.669050 0.552980 -0.519495
O3    O     O_R   0.330950 0.862690 0.552980 -0.521809
O4    O     O_R   0.180530 0.983530 0.965090 -0.506222
O5    O     O_R   0.016470 0.197000 0.965090 -0.508386
O6    O     O_R   0.803000 0.819470 0.965090 -0.518394
O7    O     O_R   0.174120 0.688790 0.549730 -0.499348
O8    O     O_R   0.311210 0.485330 0.549730 -0.497598
O9    O     O_R   0.514670 0.825880 0.549730 -0.499756
O10   O     O_R   0.139940 0.470480 0.446230 -0.521742
O11   O     O_R   0.529520 0.669460 0.446230 -0.521111
O12   O     O_R   0.330540 0.860060 0.446230 -0.521587
O13   O     O_R   0.176560 0.690850 0.450770 -0.505458
O14   O     O_R   0.309150 0.485710 0.450770 -0.504855
O15   O     O_R   0.514290 0.823440 0.450770 -0.505421
O16   O     O_3   0.333333 0.666667 0.499990 -0.260223
O17   O     O_3   0.000000 1.000000 0.017910 -0.240271
O18   O     O_R   0.149710 0.171070 0.967700 -0.518133
O19   O     O_R   0.828930 0.978640 0.967700 -0.499281
O20   O     O_R   0.021360 0.850290 0.967700 -0.490958
O21   O     O_R   0.178510 0.985930 0.071830 -0.514915
O22   O     O_R   0.014070 0.192580 0.071830 -0.516651
O23   O     O_R   0.807420 0.821490 0.071830 -0.518461
O24   O     O_R   0.147830 0.173300 0.066650 -0.500042
O25   O     O_R   0.826700 0.974530 0.066650 -0.498294
O26   O     O_R   0.025470 0.852170 0.066650 -0.493442
O27   O     O_3   0.637702 0.001251 0.714485 -0.581618
C85   C     C_3   0.555591 0.015312 0.691054 -0.002959
H58   H     H_    0.500201 0.019290 0.719078 0.127398
H59   H     H_    0.506493 0.946851 0.664809 0.140704
C86   C     C_3   0.611576 0.124131 0.662693 -0.253931
H60   H     H_    0.655850 0.194081 0.688582 0.164977
H61   H     H_    0.673264 0.124443 0.636855 0.177032
C87   C     C_3   0.526870 0.139981 0.633974 -0.489142
H62   H     H_    0.482895 0.071842 0.607258 0.176899
H63   H     H_    0.570102 0.219581 0.613738 0.139524
H64   H     H_    0.465211 0.141605 0.659112 0.142551
O28   O     O_3   0.994369 0.649279 0.715280 -0.581516
C88   C     C_3   0.988434 0.552670 0.696472 -0.003710
H65   H     H_    0.987527 0.500585 0.727302 0.128587
H66   H     H_    0.059609 0.573132 0.671550 0.136719
C89   C     C_3   0.881192 0.488099 0.667374 -0.254196
H67   H     H_    0.808843 0.462325 0.692037 0.165575
H68   H     H_    0.878746 0.542395 0.638331 0.177462
C90   C     C_3   0.872934 0.385607 0.643698 -0.489961
H69   H     H_    0.946006 0.408920 0.619858 0.176754
H70   H     H_    0.796773 0.343892 0.620995 0.140404
H71   H     H_    0.868165 0.326749 0.672123 0.142436
O29   O     O_3   0.359453 0.356974 0.711669 -0.581206
C91   C     C_3   0.461454 0.441481 0.692783 -0.003587
H72   H     H_    0.516291 0.490575 0.723444 0.126022
H73   H     H_    0.448198 0.496136 0.667382 0.141267
C92   C     C_3   0.517893 0.389634 0.664393 -0.253227
H74   H     H_    0.539565 0.341483 0.689834 0.162880
H75   H     H_    0.459799 0.332411 0.636348 0.179289
C93   C     C_3   0.623148 0.478058 0.639115 -0.490597
H76   H     H_    0.602796 0.525269 0.612566 0.173791
H77   H     H_    0.662731 0.438061 0.619066 0.139238
H78   H     H_    0.682821 0.536174 0.666426 0.145570

loop_
_geom_bond_atom_site_label_1
_geom_bond_atom_site_label_2
_ccdc_geom_bond_type
C58   C62   S    
C15   C18   T    
Cr3   O16   S    
C93   H76   S    
C2    O8    A    
Cr6   O20   S    
C2    C18   S    
C53   H26   S    
C24   C42   A    
Cr1   O1    S    
C6    C9    S    
C86   H60   S    
C71   H47   S    
C87   H62   S    
C28   H22   S    
C25   C28   A    
C93   H77   S    
Cr6   O26   S    
C45   C57   A    
C35   O14   A    
C50   C59   A    
C21   O4    A    
C52   H25   S    
C37   C40   A    
C80   C83   S    
C5    C83   S    
C10   C73   T    
C14   C77   S    
C15   C78   S    
C27   H15   S    
C2    O1    A    
C39   H33   S    
C12   C84   S    
C45   H18   S    
C89   H68   S    
C23   C26   A    
C91   H73   S    
O27   C85   S    
C26   H14   S    
C19   O5    A    
Cr5   O5    S    
C49   H28   S    
C89   C90   S    
C92   H74   S    
Cr4   O21   S    
Cr3   O3    S    
C70   H43   S    
C24   C27   A    
C48   C60   A    
C61   O24   A    
Cr1   O13   S    
C32   C38   A    
C39   C42   A    
C68   H38   S    
Cr5   O17   S    
C79   H1    S    
C52   C55   A    
C36   O11   A    
Cr1   O7    S    
C34   O12   A    
C49   C52   A    
C72   H48   S    
C65   C80   S    
C46   C58   A    
C27   C30   A    
C70   H46   S    
C14   C17   T    
Cr6   O23   S    
C69   C78   S    
C1    O7    A    
Cr1   O10   S    
C71   H44   S    
C4    C7    S    
C40   H34   S    
C9    H54   S    
C63   O26   A    
C85   C86   S    
C5    H11   S    
C87   H63   S    
C62   O23   A    
C93   H78   S    
C65   O28   S    
C3    O2    A    
C24   C35   S    
C6    C84   S    
C20   O6    A    
C50   H29   S    
C50   C53   A    
C90   H71   S    
C41   H35   S    
C65   C77   S    
C38   C41   A    
C85   H59   S    
Cr2   O2    S    
C9    H51   S    
C25   H13   S    
C72   H45   S    
C81   H9    S    
C11   C83   S    
Cr4   O17   S    
C21   C74   S    
C10   C82   S    
C49   C58   A    
C31   C37   A    
C72   C84   S    
Cr6   O17   S    
C60   C61   S    
C45   C48   A    
C43   H16   S    
C90   H70   S    
C80   H2    S    
C91   C92   S    
Cr2   O8    S    
C35   O10   A    
C67   H37   S    
C5    C8    S    
C81   H3    S    
C44   C56   A    
C51   C60   A    
C66   O29   S    
C85   H58   S    
C13   C76   S    
C7    H52   S    
C23   C34   S    
C22   C40   A    
C44   H17   S    
C51   H30   S    
C64   C76   S    
C1    O3    A    
Cr2   O14   S    
C33   C39   A    
Cr6   O6    S    
Cr2   O11   S    
C38   H32   S    
C37   H31   S    
C66   C78   S    
C43   C55   A    
C63   O21   A    
C22   C25   A    
C4    H10   S    
C8    C77   S    
Cr1   O16   S    
C64   C79   S    
C12   C75   T    
C67   H40   S    
C61   O22   A    
C64   O27   S    
C69   H42   S    
C81   C84   S    
C22   C36   S    
C66   H6    S    
Cr5   O22   S    
C30   H24   S    
C87   H64   S    
C68   C77   S    
C29   H23   S    
C91   H72   S    
C33   C57   S    
C5    H56   S    
C30   C33   A    
C80   H8    S    
C59   C63   S    
C20   O19   A    
C79   H7    S    
C28   C31   A    
Cr5   O25   S    
C69   C72   S    
O29   C91   S    
C11   C74   T    
C21   O20   A    
C79   C82   S    
C86   H61   S    
C44   C47   A    
C7    C76   S    
Cr2   O16   S    
C68   H41   S    
C29   C32   A    
C47   H20   S    
C62   O25   A    
C48   H21   S    
C1    C17   S    
C23   C41   A    
C92   C93   S    
C8    H50   S    
C67   C70   S    
C90   H69   S    
C51   C54   A    
C88   C89   S    
C19   C75   S    
C13   C16   T    
C64   H4    S    
C66   C81   S    
C7    H49   S    
C6    H57   S    
O28   C88   S    
C36   O15   A    
C68   C71   S    
C4    H55   S    
C3    O9    A    
Cr4   O4    S    
Cr3   O12   S    
C20   C73   S    
C8    H53   S    
C9    C78   S    
C6    H12   S    
C89   H67   S    
C70   C82   S    
C43   C46   A    
C53   C56   A    
Cr5   O19   S    
C86   C87   S    
C42   H36   S    
C47   C59   A    
C65   H5    S    
Cr3   O15   S    
C4    C82   S    
C26   C29   A    
C69   H39   S    
Cr4   O18   S    
C54   H27   S    
C46   H19   S    
Cr4   O24   S    
Cr3   O9    S    
C71   C83   S    
C67   C76   S    
C19   O18   A    
C31   C55   S    
C88   H65   S    
C88   H66   S    
C32   C56   S    
C92   H75   S    
C3    C16   S    
C54   C57   A    
C34   O13   A    
