data_mof_unit_5088.cif
_audit_creation_date              2013-03-05T15:48:49-0500
_audit_creation_method            fapswitch 2.2
_symmetry_space_group_name_H-M    P1
_symmetry_Int_Tables_number       1
_space_group_crystal_system       triclinic
_cell_length_a                    10.095224
_cell_length_b                    10.641231
_cell_length_c                    27.785102
_cell_angle_alpha                 89.893108
_cell_angle_beta                  81.582673
_cell_angle_gamma                 95.621058
_cell_volume                      2938.08316903

loop_
_atom_site_label
_atom_site_type_symbol
_atom_site_description
_atom_site_fract_x
_atom_site_fract_y
_atom_site_fract_z
_atom_type_partial_charge
O1    O     O_R   0.431060 0.692470 0.504020 -0.608086
O2    O     O_R   0.568940 0.307530 0.495980 -0.635965
O3    O     O_R   0.651120 0.659650 0.491200 -0.613188
O4    O     O_R   0.348880 0.340350 0.508800 -0.593592
C1    C     C_R   0.556683 0.734136 0.495059 0.935982
C2    C     C_R   0.443193 0.265859 0.501615 0.926561
O5    O     O_R   0.389980 0.516390 0.577660 -0.567943
O6    O     O_R   0.610020 0.483610 0.422340 -0.613320
O7    O     O_R   0.610040 0.483570 0.564830 -0.621043
O8    O     O_R   0.389960 0.516430 0.435170 -0.586688
C3    C     C_R   0.501099 0.500421 0.593927 0.954739
C4    C     C_R   0.499132 0.500035 0.406082 0.940406
Zn1   Zn    Zn3+2 0.353060 0.521910 0.508560 1.022657
Zn2   Zn    Zn3+2 0.646940 0.478090 0.491440 0.957029
C5    C     C_R   0.545331 0.606687 0.820179 0.590300
C6    C     C_R   0.481432 0.396185 0.178888 0.585521
O9    O     O_2   0.594162 0.709746 0.792356 -0.515851
O10   O     O_2   0.478114 0.287727 0.204523 -0.516462
N1    N     N_R   0.497338 0.498778 0.799149 -0.330479
N2    N     N_R   0.485570 0.509545 0.202017 -0.329023
C7    C     C_R   0.453954 0.390647 0.825862 0.567235
C8    C     C_R   0.495176 0.621486 0.176929 0.568158
C9    C     C_R   0.577158 0.422235 0.718874 -0.115610
C10   C     C_R   0.599943 0.561205 0.271431 -0.121797
C11   C     C_R   0.581333 0.421313 0.668579 0.108827
C12   C     C_R   0.607193 0.558495 0.321049 0.094807
C13   C     C_R   0.420912 0.582112 0.675997 0.156084
C14   C     C_R   0.378907 0.448516 0.335269 0.168706
C15   C     C_R   0.413839 0.577386 0.726835 0.272726
C16   C     C_R   0.372023 0.456455 0.285230 0.277617
C17   C     C_R   0.494310 0.498405 0.747851 0.106186
C18   C     C_R   0.484358 0.511115 0.253523 0.107018
C19   C     C_R   0.500381 0.500212 0.898733 -0.048169
C20   C     C_R   0.492740 0.506410 0.101938 -0.049720
C21   C     C_R   0.543711 0.610612 0.870536 -0.030978
C22   C     C_R   0.481095 0.392328 0.128636 -0.031970
C23   C     C_R   0.584683 0.722040 0.893049 -0.102444
C24   C     C_R   0.470694 0.277282 0.104689 -0.110420
C25   C     C_R   0.457514 0.388531 0.875974 -0.034573
C26   C     C_R   0.501680 0.622143 0.126304 -0.033360
C27   C     C_R   0.503181 0.502504 0.646677 -0.225478
C28   C     C_R   0.496377 0.500462 0.353409 -0.219673
H1    H     H_    0.620548 0.807624 0.872002 0.198173
H2    H     H_    0.463965 0.188322 0.124358 0.196049
C29   C     C_R   0.518566 0.620125 0.023968 0.047836
C30   C     C_R   0.466439 0.387362 0.977077 0.046072
C31   C     C_R   0.475882 0.387679 0.027358 0.047225
C32   C     C_R   0.532123 0.617139 0.972611 0.045008
C33   C     C_R   0.495764 0.504739 0.050912 0.080023
C34   C     C_R   0.499782 0.501539 0.949643 0.081198
C35   C     C_R   0.525250 0.734819 0.049483 -0.204838
C36   C     C_R   0.422939 0.276931 0.953279 -0.206188
C37   C     C_R   0.515925 0.735550 0.099806 -0.120305
C38   C     C_R   0.417599 0.278010 0.903665 -0.116764
O11   O     O_2   0.498235 0.731572 0.201001 -0.529764
O12   O     O_2   0.406856 0.285893 0.803952 -0.523353
C39   C     C_R   0.577960 0.725775 0.943254 -0.205428
C40   C     C_R   0.467069 0.274731 0.054980 -0.206167
H3    H     H_    0.685083 0.602183 0.246024 0.178286
H4    H     H_    0.638595 0.362955 0.736128 0.178610
H5    H     H_    0.520921 0.825738 0.117828 0.193365
H6    H     H_    0.382562 0.191344 0.887060 0.199836
H7    H     H_    0.533255 0.825855 0.031617 0.142131
H8    H     H_    0.387772 0.188961 0.972395 0.148278
H9    H     H_    0.613223 0.814428 0.957985 0.146989
H10   H     H_    0.461432 0.182610 0.038879 0.141894
H11   H     H_    0.598914 0.117060 0.452743 0.174773
H12   H     H_    0.398634 0.883054 0.464077 0.176857
C41   C     C_2   0.589712 0.868874 0.485694 0.011411
C42   C     C_2   0.409630 0.131159 0.495958 0.027162
C43   C     C_2   0.494050 0.931911 0.470504 -0.152230
C44   C     C_2   0.504103 0.068199 0.469945 -0.121598
H13   H     H_    0.107814 0.417935 0.470924 0.218559
H14   H     H_    0.890927 0.577960 0.530761 0.170838
N3    N     N_2   0.842700 0.448890 0.480020 -0.189388
N4    N     N_2   0.157300 0.551110 0.519980 -0.194384
C45   C     C_2   0.927060 0.509671 0.504274 -0.126731
C46   C     C_2   0.072250 0.488089 0.496648 -0.091885
H15   H     H_    0.120553 0.617216 0.544140 0.194808
H16   H     H_    0.880036 0.384702 0.455120 0.201915
N5    N     N_R   0.344673 0.668014 0.654298 0.249153
O13   O     O_R   0.405572 0.754370 0.623344 -0.375977
O14   O     O_R   0.214598 0.661660 0.666120 -0.326630
N6    N     N_R   0.266665 0.387495 0.367481 0.240121
O15   O     O_R   0.282627 0.291212 0.394251 -0.390660
O16   O     O_R   0.147420 0.425270 0.368878 -0.370344
C47   C     C_3   0.276282 0.066837 0.520143 -0.827288
H17   H     H_    0.214383 0.134727 0.541007 0.248384
H18   H     H_    0.218839 0.023833 0.492134 0.253138
H19   H     H_    0.293319 0.992125 0.545880 0.267707
C48   C     C_3   0.723818 0.933142 0.494847 -0.851785
H20   H     H_    0.786630 0.865125 0.508632 0.249491
H21   H     H_    0.779707 0.976550 0.460487 0.249529
H22   H     H_    0.707990 0.007531 0.522501 0.255610
N7    N     N_R   0.327243 0.654204 0.757134 0.247635
O17   O     O_R   0.328562 0.773997 0.747351 -0.273790
O18   O     O_R   0.251026 0.605869 0.795877 -0.363029
N8    N     N_R   0.252832 0.406413 0.266309 0.247621
O19   O     O_R   0.196741 0.293555 0.278959 -0.280153
O20   O     O_R   0.203800 0.470986 0.234453 -0.367246
C49   C     C_3   0.732264 0.621305 0.338262 -0.725332
H23   H     H_    0.800912 0.673132 0.308242 0.239481
H24   H     H_    0.704471 0.690768 0.366855 0.224706
H25   H     H_    0.789042 0.549203 0.352739 0.269731
C50   C     C_3   0.666596 0.330365 0.639771 -0.758850
H26   H     H_    0.708309 0.265751 0.663827 0.237922
H27   H     H_    0.604980 0.270924 0.616832 0.236315
H28   H     H_    0.753063 0.383242 0.616570 0.251541

loop_
_geom_bond_atom_site_label_1
_geom_bond_atom_site_label_2
_geom_bond_distance
_ccdc_geom_bond_type
C47   H17   1.110140 S    
C49   H23   1.111005 S    
C14   N6    1.436456 S    
N7    O17   1.301291 A    
N4    H15   1.031058 S    
N1    C17   1.430121 S    
N5    O13   1.301406 A    
C11   C50   1.510821 S    
C32   C39   1.413165 A    
C31   C33   1.418718 A    
C45   C46   1.490366 S    
O5    C3    1.294994 A    
C50   H27   1.110730 S    
C19   C25   1.407718 A    
O1    C1    1.289914 A    
N1    C7    1.367337 A    
N6    O16   1.301303 A    
C10   H3    1.083992 S    
C12   C49   1.510734 S    
C25   C38   1.396613 A    
C13   C15   1.404415 A    
C29   C35   1.413455 A    
C30   C36   1.413430 A    
C5    O9    1.350075 S    
H11   C44   1.087459 S    
O4    Zn1   1.928324 S    
C41   C43   1.343835 D    
C4    C28   1.467840 S    
C31   C40   1.413186 A    
C24   C40   1.387256 A    
C37   H5    1.083530 S    
C40   H10   1.078181 S    
C14   C16   1.405017 A    
H14   C45   1.085387 S    
C1    C41   1.454017 S    
H13   C46   1.084632 S    
N3    H16   1.031073 S    
C6    N2    1.367758 A    
C32   C34   1.418560 A    
C49   H24   1.110785 S    
O2    C2    1.289924 A    
C42   C47   1.511677 S    
C5    C21   1.397630 A    
N5    O14   1.301175 A    
C36   C38   1.387535 A    
C9    H4    1.083979 S    
C50   H28   1.109871 S    
C13   N5    1.436340 S    
C35   H7    1.078209 S    
N6    O15   1.301358 A    
O4    C2    1.291316 A    
C36   H8    1.078089 S    
C11   C27   1.418233 A    
C48   H20   1.110247 S    
C15   N7    1.438155 S    
C38   H6    1.083484 S    
C19   C34   1.413765 A    
C35   C37   1.387666 A    
C9    C17   1.393845 A    
C23   H1    1.083478 S    
C5    N1    1.367889 A    
O7    Zn2   2.020549 S    
C10   C18   1.393689 A    
C24   H2    1.083528 S    
C48   H21   1.110286 S    
O7    C3    1.293887 A    
C13   C27   1.418937 A    
C7    C25   1.398280 A    
Zn1   N4    2.009935 S    
C29   C33   1.418386 A    
O6    C4    1.293777 A    
C8    C26   1.398468 A    
N3    C45   1.288207 D    
O3    Zn2   1.928324 S    
O8    C4    1.294495 A    
N2    C8    1.367018 A    
C26   C37   1.396702 A    
C49   H25   1.109746 S    
N8    O20   1.301260 A    
C47   H18   1.110325 S    
C20   C26   1.407990 A    
O1    Zn1   1.902674 S    
C12   C28   1.417536 A    
N2    C18   1.429503 S    
C29   C32   1.414145 A    
C2    C42   1.454431 S    
C30   C34   1.418401 A    
C30   C31   1.414162 A    
C20   C33   1.413802 A    
O6    Zn2   2.010459 S    
C21   C23   1.396699 A    
C10   C12   1.391644 A    
N4    C46   1.288023 D    
O3    C1    1.291153 A    
O8    Zn1   2.020546 S    
C7    O12   1.350061 S    
N7    O18   1.301261 A    
C8    O11   1.350004 S    
C50   H26   1.110979 S    
C16   N8    1.438217 S    
Zn2   N3    2.009935 S    
C22   C24   1.396700 A    
C43   C44   1.443762 S    
C15   C17   1.406448 A    
C6    C22   1.397435 A    
C48   H22   1.110689 S    
C16   C18   1.406015 A    
H12   C43   1.087488 S    
C14   C28   1.418989 A    
C19   C21   1.407420 A    
C3    C27   1.469077 S    
C20   C22   1.407469 A    
C9    C11   1.391985 A    
O2    Zn2   1.902672 S    
O5    Zn1   2.010462 S    
C6    O10   1.350127 S    
N8    O19   1.301297 A    
C47   H19   1.110718 S    
C42   C44   1.343886 D    
C41   C48   1.511729 S    
C23   C39   1.387470 A    
C39   H9    1.078203 S    
