data_mof_unit_40774.cif
_audit_creation_date              2013-03-05T16:00:30-0500
_audit_creation_method            fapswitch 2.2
_symmetry_space_group_name_H-M    P1
_symmetry_Int_Tables_number       1
_space_group_crystal_system       triclinic
_cell_length_a                    13.923663
_cell_length_b                    14.794493
_cell_length_c                    14.691112
_cell_angle_alpha                 115.11213
_cell_angle_beta                  107.244614
_cell_angle_gamma                 71.839391
_cell_volume                      2555.88384844

loop_
_atom_site_label
_atom_site_type_symbol
_atom_site_description
_atom_site_fract_x
_atom_site_fract_y
_atom_site_fract_z
_atom_type_partial_charge
O1    O     O_R   0.534760 0.019630 0.662610 -0.536111
O2    O     O_R   0.465240 0.980370 0.337390 -0.535513
O3    O     O_R   0.490220 0.160840 0.620610 -0.596841
O4    O     O_R   0.509780 0.839160 0.379390 -0.596877
C1    C     C_R   0.513271 0.118448 0.688573 0.795829
C2    C     C_R   0.486654 0.881551 0.311416 0.796265
O5    O     O_R   0.663260 0.919400 0.523940 -0.525385
O6    O     O_R   0.336740 0.080600 0.476060 -0.525469
O7    O     O_R   0.618720 0.060610 0.481950 -0.594415
O8    O     O_R   0.381280 0.939390 0.518050 -0.594539
C3    C     C_R   0.687015 0.986353 0.504024 0.813490
C4    C     C_R   0.312983 0.013642 0.495962 0.813425
Cu1   Cu    Cu3+1 0.526370 0.916390 0.524860 1.012411
Cu2   Cu    Cu3+1 0.473630 0.083610 0.475140 1.012506
C5    C     C_1   0.207547 0.022293 0.493930 -0.076609
C6    C     C_1   0.792445 0.977678 0.506014 -0.076117
C7    C     C_2   0.012984 0.035748 0.490956 0.188835
C8    C     C_2   0.987002 0.964155 0.508921 0.188837
C9    C     C_1   0.881006 0.971067 0.507370 0.080962
C10   C     C_1   0.118976 0.028878 0.492535 0.081100
C11   C     C_R   0.516290 0.185391 0.797917 -0.079963
C12   C     C_R   0.483419 0.814608 0.202046 -0.080083
C13   C     C_R   0.538852 0.217915 0.978671 -0.182546
C14   C     C_R   0.460337 0.782107 0.021230 -0.182943
C15   C     C_R   0.523293 0.150604 0.876596 0.004477
C16   C     C_R   0.475985 0.849439 0.123282 0.004078
C17   C     C_R   0.511520 0.288990 0.823538 -0.224334
C18   C     C_R   0.488335 0.710986 0.176481 -0.224281
C19   C     C_R   0.513070 0.359416 0.924456 0.072786
C20   C     C_R   0.486579 0.640555 0.075542 0.072863
C21   C     C_R   0.537949 0.320984 0.003855 0.024673
C22   C     C_R   0.461472 0.678991 0.996107 0.024665
C23   C     C_R   0.492878 0.466520 0.948099 0.007445
C24   C     C_R   0.506763 0.533442 0.051912 0.007513
C25   C     C_R   0.545029 0.491073 0.129059 -0.254842
C26   C     C_R   0.454528 0.508861 0.870942 -0.254824
C27   C     C_R   0.559589 0.386769 0.106562 0.317111
C28   C     C_R   0.439805 0.613174 0.893413 0.317109
H1    H     H_    0.490238 0.686695 0.236588 0.159548
H2    H     H_    0.509894 0.313285 0.763515 0.159569
H3    H     H_    0.547220 0.190003 0.038229 0.170189
H4    H     H_    0.451672 0.810072 0.961635 0.170404
H5    H     H_    0.568636 0.536923 0.208120 0.185278
H6    H     H_    0.430914 0.462964 0.791894 0.185354
N1    N     N_R   0.433980 0.209250 0.437830 -0.237767
N2    N     N_R   0.566020 0.790750 0.562170 -0.238002
C29   C     C_R   0.311991 0.312619 0.347400 -0.332169
C30   C     C_R   0.687848 0.687684 0.652977 -0.331840
C31   C     C_R   0.342969 0.225388 0.371800 0.543072
C32   C     C_R   0.656803 0.774888 0.628541 0.543455
C33   C     C_R   0.493474 0.280962 0.483438 -0.053876
C34   C     C_R   0.506665 0.718927 0.516445 -0.054106
C35   C     C_R   0.463058 0.373769 0.463716 0.002143
C36   C     C_R   0.537064 0.626218 0.536300 0.001838
C37   C     C_R   0.370966 0.386638 0.392595 0.084580
C38   C     C_R   0.629048 0.613484 0.607586 0.084479
C39   C     C_R   0.518837 0.454488 0.512348 0.144317
C40   C     C_R   0.481315 0.545490 0.487663 0.144277
C41   C     C_R   0.389986 0.552199 0.414571 -0.147795
C42   C     C_R   0.610128 0.447818 0.585507 -0.148200
C43   C     C_R   0.336233 0.474335 0.368262 -0.117506
C44   C     C_R   0.663802 0.525767 0.631921 -0.117699
H7    H     H_    0.265748 0.483393 0.313127 0.153238
H8    H     H_    0.734212 0.516788 0.687146 0.153334
H9    H     H_    0.437575 0.734800 0.463473 0.150117
H10   H     H_    0.562695 0.264980 0.536214 0.150165
H11   H     H_    0.239986 0.323389 0.294579 0.180602
H12   H     H_    0.759758 0.677082 0.705983 0.180398
H13   H     H_    0.357465 0.617135 0.391395 0.132466
H14   H     H_    0.642608 0.382903 0.608699 0.132581
N3    N     N_R   0.062659 0.880330 0.531717 0.131832
O9    O     O_R   0.034977 0.796582 0.511975 -0.282746
O10   O     O_R   0.153900 0.892018 0.585457 -0.372483
N4    N     N_R   0.937302 0.119565 0.468167 0.131756
O11   O     O_R   0.964918 0.203410 0.488130 -0.282847
O12   O     O_R   0.846149 0.107786 0.414231 -0.371818
N5    N     N_R   0.602933 0.348722 0.188723 0.100267
O13   O     O_R   0.579419 0.403274 0.278743 -0.387026
O14   O     O_R   0.679060 0.269370 0.179228 -0.331785
N6    N     N_R   0.396282 0.651182 0.811235 0.100160
O15   O     O_R   0.419800 0.596677 0.721210 -0.386918
O16   O     O_R   0.319983 0.730380 0.820715 -0.331592
C45   C     C_R   0.485339 0.953837 0.143322 0.112289
C46   C     C_R   0.408656 0.015088 0.094135 -0.040799
C47   C     C_R   0.414515 0.115276 0.117133 -0.163796
C48   C     C_R   0.497416 0.154551 0.188181 -0.152460
C49   C     C_R   0.576819 0.092611 0.233242 -0.057904
C50   C     C_R   0.571685 0.992080 0.209920 -0.118388
H15   H     H_    0.342595 0.986528 0.040745 0.163838
H16   H     H_    0.353913 0.163056 0.081195 0.150991
H17   H     H_    0.499924 0.233045 0.208221 0.194631
H18   H     H_    0.641679 0.122908 0.287170 0.202961
H19   H     H_    0.633358 0.945061 0.246025 0.120759
C51   C     C_R   0.513514 0.046308 0.856440 0.112205
C52   C     C_R   0.427338 0.008136 0.789288 -0.117845
C53   C     C_R   0.421902 0.907660 0.765802 -0.057723
C54   C     C_R   0.500783 0.845724 0.811277 -0.151831
C55   C     C_R   0.583416 0.884963 0.882924 -0.163865
C56   C     C_R   0.589593 0.985086 0.906075 -0.040790
H20   H     H_    0.366061 0.055148 0.752860 0.120367
H21   H     H_    0.357230 0.877396 0.711418 0.202993
H22   H     H_    0.498073 0.767262 0.791097 0.195067
H23   H     H_    0.643583 0.837198 0.919211 0.150842
H24   H     H_    0.655476 0.013597 0.959932 0.163793
N7    N     N_R   0.725961 0.842544 0.668549 0.136295
O17   O     O_R   0.816164 0.808520 0.643207 -0.312562
O18   O     O_R   0.711524 0.925333 0.748521 -0.358440
N8    N     N_R   0.273494 0.158053 0.332076 0.136053
O19   O     O_R   0.288610 0.074214 0.253300 -0.357814
O20   O     O_R   0.182748 0.192915 0.356267 -0.312797

loop_
_geom_bond_atom_site_label_1
_geom_bond_atom_site_label_2
_geom_bond_distance
_ccdc_geom_bond_type
C49   C50   1.397780 A    
C16   C45   1.485221 S    
N2    C34   1.369576 A    
C17   C19   1.402863 A    
C14   H4    1.079802 S    
C35   C37   1.412251 A    
C52   C53   1.397768 A    
C23   C26   1.413398 A    
C54   C55   1.395844 A    
C29   C31   1.390700 A    
N5    O13   1.301374 A    
O5    C3    1.297610 A    
N7    O18   1.298489 A    
N4    O12   1.301330 A    
O1    C1    1.301551 A    
C25   C27   1.394059 A    
C14   C16   1.400544 A    
C24   C25   1.413540 A    
C48   H17   1.079558 S    
Cu1   N2    2.026320 S    
N1    C33   1.369728 A    
C55   H23   1.082263 S    
C2    C12   1.482839 S    
C19   C23   1.422516 A    
C7    C10   1.441200 S    
N8    O19   1.298241 A    
C42   C44   1.386018 A    
C8    C9    1.441213 S    
O4    Cu1   1.930120 S    
C43   H7    1.084457 S    
C44   H8    1.084296 S    
Cu1   Cu2   2.697493 S    
C32   N7    1.428455 S    
C22   C28   1.407708 A    
Cu2   N1    2.026317 S    
C25   H5    1.077556 S    
C54   H22   1.079510 S    
C30   C32   1.390559 A    
C45   C50   1.406961 A    
C11   C17   1.398907 A    
C15   C51   1.485362 S    
C12   C18   1.398949 A    
C53   H21   1.082029 S    
O2    C2    1.301577 A    
C29   H11   1.084805 S    
C34   C36   1.431762 A    
C7    C8    1.362032 D    
C31   N8    1.428720 S    
N5    O14   1.301596 A    
C5    C10   1.201081 T    
C36   C38   1.412227 A    
C41   C43   1.385761 A    
N4    O11   1.301635 A    
C20   C24   1.422673 A    
C46   C47   1.397056 A    
N6    O16   1.301595 A    
N3    O10   1.301362 A    
C35   C39   1.436912 A    
C48   C49   1.396315 A    
C39   C42   1.407989 A    
C18   H1    1.076651 S    
C40   C41   1.407890 A    
C47   C48   1.395874 A    
C27   N5    1.439118 S    
C21   C27   1.407664 A    
C33   C35   1.432106 A    
C33   H10   1.075393 S    
C13   C21   1.405055 A    
O7    Cu2   1.920284 S    
C14   C22   1.405096 A    
C3    C6    1.425667 S    
C45   C46   1.406606 A    
C4    C5    1.425685 S    
C42   H14   1.076367 S    
C17   H2    1.076752 S    
O6    C4    1.297567 A    
C53   C54   1.396236 A    
C23   C24   1.416510 A    
C30   H12   1.084892 S    
O7    C3    1.297944 A    
O3    Cu2   1.930121 S    
O8    C4    1.297973 A    
C41   H13   1.076555 S    
O4    C2    1.307398 A    
C7    N4    1.445280 S    
C38   C44   1.394945 A    
C26   H6    1.077622 S    
O1    Cu1   1.946641 S    
C46   H15   1.083052 S    
C29   C37   1.390853 A    
C36   C40   1.436744 A    
C8    N3    1.445282 S    
C30   C38   1.391132 A    
C11   C15   1.420313 A    
C50   H19   1.083234 S    
O6    Cu2   1.924511 S    
C52   H20   1.083230 S    
N6    O15   1.301398 A    
O3    C1    1.307393 A    
O8    Cu1   1.920283 S    
C47   H16   1.082249 S    
N7    O17   1.301349 A    
N2    C32   1.371909 A    
C13   H3    1.079775 S    
C18   C20   1.402928 A    
N3    O9    1.301611 A    
C19   C21   1.415800 A    
C20   C22   1.415942 A    
C39   C40   1.442458 A    
C28   N6    1.439090 S    
C51   C56   1.406674 A    
C6    C9    1.200995 T    
C37   C43   1.394645 A    
C26   C28   1.393960 A    
N8    O20   1.301237 A    
N1    C31   1.372211 A    
C56   H24   1.083066 S    
C13   C15   1.400616 A    
C51   C52   1.406988 A    
O2    Cu2   1.946640 S    
O5    Cu1   1.924510 S    
C1    C11   1.482785 S    
C55   C56   1.397032 A    
C12   C16   1.420223 A    
C49   H18   1.082057 S    
C34   H9    1.075458 S    
