data_mof_unit_43795.cif
_audit_creation_date              2012-12-10T21:00:34-0500
_audit_creation_method            fapswitch 2.2
_symmetry_space_group_name_H-M    P1
_symmetry_Int_Tables_number       1
_space_group_crystal_system       triclinic
_cell_length_a                    18.161847
_cell_length_b                    18.168046
_cell_length_c                    18.333494
_cell_angle_alpha                 119.824677
_cell_angle_beta                  89.897293
_cell_angle_gamma                 119.938221
_cell_volume                      4296.64098815

loop_
_atom_site_label
_atom_site_type_symbol
_atom_type_description
_atom_site_fract_x
_atom_site_fract_y
_atom_site_fract_z
_atom_type_partial_charge
C1    C     C_R   0.109624 0.220162 0.609922 0.899729
C2    C     C_3   0.449991 0.896972 0.947294 -0.047259
C3    C     C_3   0.483395 0.031973 0.078381 -0.310623
C4    C     C_3   0.516606 0.968026 0.921619 -0.310619
C5    C     C_3   0.447434 0.403996 0.482480 -0.297981
C6    C     C_3   0.552566 0.596004 0.517520 -0.297983
C7    C     C_3   0.550862 0.474396 0.515882 0.501172
C8    C     C_3   0.449138 0.525604 0.484118 0.501172
C9    C     C_3   0.550324 0.499962 0.448364 -0.045380
C10   C     C_3   0.449676 0.500038 0.551636 -0.045381
C11   C     C_3   0.446378 0.430140 0.413666 -0.267727
C12   C     C_R   0.890376 0.779838 0.390078 0.899723
C13   C     C_3   0.553622 0.569860 0.586334 -0.267728
C14   C     C_R   0.244695 0.177545 0.788031 -0.164693
C15   C     C_R   0.755311 0.822461 0.211968 -0.164694
C16   C     C_R   0.392671 0.780977 0.888276 0.821322
C17   C     C_R   0.607329 0.219023 0.111724 0.821322
C18   C     C_R   0.201075 0.140185 0.702382 0.448189
C19   C     C_R   0.798930 0.859823 0.297617 0.448193
C20   C     C_R   0.109720 0.102309 0.677646 0.139146
C21   C     C_R   0.890283 0.897691 0.322353 0.139143
C22   C     C_R   0.063964 0.104421 0.739743 -0.127403
C23   C     C_3   0.930517 0.404691 0.441279 0.519407
C24   C     C_R   0.936038 0.895570 0.260255 -0.127402
C25   C     C_R   0.108084 0.142224 0.825010 -0.129910
C26   C     C_R   0.891920 0.857765 0.174987 -0.129909
C27   C     C_R   0.197929 0.177551 0.848731 -0.192421
C28   C     C_R   0.802076 0.822447 0.151265 -0.192422
C29   C     C_R   0.008579 0.944572 0.528470 0.356700
C30   C     C_R   0.991422 0.055428 0.471529 0.356706
C31   C     C_R   0.948421 0.892191 0.444544 -0.197663
C32   C     C_R   0.051579 0.107809 0.555456 -0.197661
C33   C     C_R   0.942281 0.948006 0.414712 -0.089344
C34   C     C_3   0.069484 0.595310 0.558721 0.519412
C35   C     C_R   0.057720 0.051994 0.585287 -0.089344
C36   C     C_R   0.685566 0.710157 0.878010 -0.142206
C37   C     C_R   0.314426 0.289830 0.121978 -0.142209
C38   C     C_R   0.638645 0.634835 0.895042 -0.146287
C39   C     C_R   0.361348 0.365154 0.104948 -0.146299
C40   C     C_R   0.109570 0.499412 0.888434 0.788567
C41   C     C_R   0.890431 0.500589 0.111567 0.788563
C42   C     C_R   0.595254 0.650559 0.959113 0.136337
C43   C     C_R   0.404747 0.349438 0.040884 0.136334
C44   C     C_R   0.600303 0.742872 0.006746 -0.124337
C45   C     C_3   0.414860 0.964985 0.985288 0.543420
C46   C     C_R   0.399705 0.257130 0.993254 -0.124326
C47   C     C_R   0.647552 0.818077 0.989726 -0.112189
C48   C     C_R   0.352456 0.181922 0.010271 -0.112184
C49   C     C_R   0.689953 0.801656 0.925260 -0.111160
C50   C     C_R   0.310047 0.198336 0.074730 -0.111161
C51   C     C_R   0.593473 0.563068 0.026332 -0.267507
C52   C     C_R   0.406527 0.436932 0.973667 -0.267511
C53   C     C_R   0.550218 0.495166 0.051508 -0.035513
C54   C     C_R   0.449783 0.504834 0.948491 -0.035512
C55   C     C_R   0.455456 0.429382 0.023323 -0.011247
C56   C     C_3   0.585140 0.035015 0.014712 0.543418
C57   C     C_R   0.544544 0.570617 0.976676 -0.011249
C58   C     C_R   0.087030 0.771063 0.933706 -0.091556
C59   C     C_R   0.912995 0.228930 0.066278 -0.091580
C60   C     C_R   0.078245 0.718148 0.971900 -0.132373
C61   C     C_R   0.921781 0.281851 0.028089 -0.132405
C62   C     C_R   0.019850 0.609569 0.920986 0.138674
C63   C     C_R   0.980153 0.390432 0.079017 0.138682
C64   C     C_R   0.392346 0.500088 0.607998 0.857693
C65   C     C_R   0.607654 0.499912 0.392002 0.857690
C66   C     C_R   0.969364 0.554677 0.831987 -0.132909
C67   C     C_3   0.480102 0.036502 0.959915 -0.290643
C68   C     C_R   0.030617 0.445321 0.168022 -0.132873
C69   C     C_R   0.978056 0.607988 0.794223 -0.119168
C70   C     C_R   0.021925 0.392005 0.205781 -0.119138
C71   C     C_R   0.037107 0.716000 0.844877 -0.068540
C72   C     C_R   0.962895 0.283990 0.155114 -0.068535
C73   C     C_R   0.960745 0.553754 0.017282 -0.253856
C74   C     C_R   0.039260 0.446251 0.982723 -0.253860
C75   C     C_R   0.947922 0.500466 0.056064 -0.047569
C76   C     C_R   0.052082 0.499538 0.943940 -0.047568
C77   C     C_R   0.988216 0.446427 0.038982 -0.005708
C78   C     C_3   0.519898 0.963498 0.040085 -0.290647
C79   C     C_R   0.011789 0.553577 0.961023 -0.005713
C80   C     C_R   0.393889 0.501742 0.890376 0.813237
C81   C     C_R   0.606111 0.498257 0.109623 0.813234
C82   C     C_R   0.109081 0.500222 0.607818 0.859825
C83   C     C_R   0.890919 0.499778 0.392182 0.859820
C84   C     C_3   0.028778 0.441944 0.448543 -0.261622
C85   C     C_3   0.971222 0.558057 0.551457 -0.261624
C86   C     C_3   0.048168 0.540265 0.457390 -0.325110
C87   C     C_3   0.951832 0.459736 0.542610 -0.325109
C88   C     C_3   0.948953 0.500512 0.449297 -0.042220
C89   C     C_3   0.550010 0.103028 0.052706 -0.047259
C90   C     C_3   0.051048 0.499488 0.550703 -0.042217
Cl1   Cl    Cl    0.261301 0.139430 0.627069 -0.631833
Cl2   Cl    Cl    0.738705 0.860589 0.372932 -0.631822
Cl3   Cl    Cl    0.029522 0.878061 0.561899 -0.589964
Cl4   Cl    Cl    0.970479 0.121939 0.438100 -0.589957
H1    H     H_    0.087872 0.575819 0.424212 0.162523
H2    H     H_    0.927715 0.857086 0.127640 0.138838
H3    H     H_    0.726338 0.859907 0.912057 0.120736
H4    H     H_    0.273662 0.140083 0.087932 0.120735
H5    H     H_    0.718486 0.697586 0.828160 0.135419
H6    H     H_    0.281501 0.302395 0.171822 0.135421
H7    H     H_    0.635458 0.564127 0.858007 0.133208
H8    H     H_    0.364528 0.435859 0.141980 0.133210
H9    H     H_    0.567514 0.756211 0.056691 0.117467
H10   H     H_    0.432501 0.243797 0.943314 0.117464
H11   H     H_    0.050921 0.392644 0.406267 0.181529
H12   H     H_    0.912128 0.424181 0.575788 0.162526
H13   H     H_    0.949079 0.607357 0.593733 0.181527
H14   H     H_    0.651365 0.889073 0.026601 0.134227
H15   H     H_    0.348650 0.110930 0.973399 0.134225
H16   H     H_    0.666110 0.612135 0.046513 0.180029
H17   H     H_    0.333891 0.387864 0.953487 0.180029
H18   H     H_    0.043961 0.757011 0.815361 0.142255
H19   H     H_    0.956042 0.242975 0.184626 0.142255
H20   H     H_    0.132538 0.854726 0.972947 0.139091
H21   H     H_    0.867504 0.145265 0.027027 0.139069
H22   H     H_    0.117425 0.761464 0.040686 0.130165
H23   H     H_    0.231095 0.205113 0.914398 0.163908
H24   H     H_    0.882619 0.238536 0.959297 0.130169
H25   H     H_    0.923799 0.470938 0.792044 0.120526
H26   H     H_    0.076165 0.529062 0.207975 0.120510
H27   H     H_    0.938963 0.565685 0.725775 0.132804
H28   H     H_    0.061000 0.434305 0.274234 0.132801
H29   H     H_    0.929537 0.594612 0.029422 0.172153
H30   H     H_    0.070468 0.405393 0.970582 0.172152
H31   H     H_    0.462621 0.066327 0.927765 0.158783
H32   H     H_    0.537379 0.933673 0.072235 0.158786
H33   H     H_    0.468371 0.058104 0.141840 0.167172
H34   H     H_    0.768912 0.794884 0.085598 0.163907
H35   H     H_    0.531630 0.941896 0.858159 0.167173
H36   H     H_    0.405340 0.326355 0.470146 0.176941
H37   H     H_    0.594660 0.673645 0.529854 0.176939
H38   H     H_    0.403068 0.374759 0.342783 0.172028
H39   H     H_    0.596932 0.625241 0.657217 0.172026
H40   H     H_    0.862516 0.258728 0.387920 0.350289
H41   H     H_    0.137480 0.741274 0.612088 0.350288
H42   H     H_    0.321876 0.986197 0.009936 0.308164
H43   H     H_    0.678124 0.013802 0.990066 0.308170
H44   H     H_    0.592707 0.436704 0.578499 0.330096
H45   H     H_    0.314644 0.205908 0.807447 0.162047
H46   H     H_    0.407293 0.563296 0.421501 0.330097
H47   H     H_    0.685364 0.794105 0.192551 0.162046
H48   H     H_    0.993588 0.075030 0.721382 0.143585
H49   H     H_    0.006412 0.924955 0.278615 0.143584
H50   H     H_    0.072288 0.142897 0.872355 0.138837
O1    O     O_3   0.251620 0.500000 0.748430 -0.511182
O2    O     O_R   0.570330 0.268390 0.136490 -0.654128
O3    O     O_R   0.134680 0.268390 0.572240 -0.583991
O4    O     O_R   0.865320 0.731610 0.427760 -0.583994
O5    O     O_R   0.306670 0.731630 0.863510 -0.580510
O6    O     O_R   0.693330 0.268370 0.136490 -0.580505
O7    O     O_R   0.135450 0.439270 0.865360 -0.652501
O8    O     O_R   0.864550 0.560730 0.134640 -0.652499
O9    O     O_R   0.429670 0.560710 0.692610 -0.652047
O10   O     O_R   0.570330 0.439290 0.307390 -0.652047
O11   O     O_R   0.308540 0.439240 0.865360 -0.650037
O12   O     O_3   0.748380 0.500000 0.251570 -0.511181
O13   O     O_R   0.691460 0.560760 0.134640 -0.650036
O14   O     O_R   0.133580 0.439310 0.571150 -0.627301
O15   O     O_R   0.866420 0.560690 0.428850 -0.627299
O16   O     O_R   0.430770 0.560690 0.864590 -0.636476
O17   O     O_R   0.569230 0.439310 0.135410 -0.636476
O18   O     O_R   0.133580 0.560760 0.692610 -0.614587
O19   O     O_R   0.866420 0.439240 0.307390 -0.614591
O20   O     O_3   0.855741 0.304039 0.377701 -0.738929
O21   O     O_3   0.144259 0.695961 0.622299 -0.738932
O22   O     O_3   0.323635 0.925994 0.968607 -0.746938
O23   O     O_R   0.134680 0.560740 0.864590 -0.633485
O24   O     O_3   0.676365 0.074006 0.031392 -0.746918
O25   O     O_3   0.606236 0.447414 0.530836 -0.753992
O26   O     O_3   0.393764 0.552586 0.469164 -0.753991
O27   O     O_R   0.865320 0.439260 0.135410 -0.633485
O28   O     O_R   0.306670 0.439270 0.571150 -0.612583
O29   O     O_R   0.693330 0.560730 0.428850 -0.612584
O30   O     O_R   0.135450 0.268370 0.694460 -0.661543
O31   O     O_R   0.864550 0.731630 0.305540 -0.661544
O32   O     O_R   0.429670 0.731610 0.863510 -0.654127
Zn1   Zn    Zn3+2 0.207400 0.586780 0.791530 1.028706
Zn2   Zn    Zn3+2 0.792600 0.413220 0.208470 1.028708
Zn3   Zn    Zn3+2 0.208510 0.413230 0.792630 0.968181
Zn4   Zn    Zn3+2 0.791490 0.586770 0.207370 0.968179
Zn5   Zn    Zn3+2 0.383150 0.586740 0.791530 0.981577
Zn6   Zn    Zn3+2 0.616850 0.413260 0.208470 0.981576
Zn7   Zn    Zn3+2 0.207400 0.413250 0.618010 1.048292
Zn8   Zn    Zn3+2 0.792600 0.586750 0.381990 1.048287

loop_
_geom_bond_atom_site_label_1
_geom_bond_atom_site_label_2
_ccdc_geom_bond_type
C74   H30   S    
O8    Zn4   S    
C83   C88   S    
C14   C18   A    
C17   O6    A    
C76   C79   A    
C11   H38   S    
C6    C9    S    
O12   Zn8   S    
C47   C49   A    
C41   O8    A    
C15   C19   A    
C41   O27   A    
C84   C90   S    
C39   H8    S    
C18   Cl1   S    
C53   C81   S    
C19   C21   A    
C84   C86   S    
C5    C11   S    
C38   H7    S    
C67   H31   S    
C63   C77   S    
C82   O14   A    
C3    H33   S    
C58   C71   A    
C80   O16   A    
C66   C69   A    
C21   C33   S    
C24   H49   S    
C58   C60   A    
O1    Zn5   S    
C67   C89   S    
C56   C78   S    
C60   C62   A    
C34   C86   S    
O17   Zn6   S    
C69   C71   A    
O18   Zn1   S    
C19   Cl2   S    
C15   H47   S    
C20   C35   S    
O12   Zn2   S    
O29   Zn8   S    
O11   Zn3   S    
C73   H29   S    
C74   C77   A    
C45   C67   S    
H46   O26   S    
C31   C33   A    
O27   Zn2   S    
C16   O5    A    
C51   C57   A    
C14   C27   A    
C34   O21   S    
C2    C16   S    
O14   Zn7   S    
C44   C47   A    
C59   C72   A    
O6    Zn2   S    
C16   O32   A    
C85   C87   S    
C48   H15   S    
C23   C87   S    
C81   O17   A    
C4    C56   S    
H44   O25   S    
C73   C75   A    
C56   O24   S    
C42   C44   A    
C42   C57   S    
O5    Zn1   S    
C29   Cl3   S    
C44   H9    S    
C8    O26   S    
C54   C80   S    
C53   C55   A    
C2    C45   S    
C26   H2    S    
O32   Zn5   S    
C37   C39   A    
C46   C48   A    
C1    O30   A    
C59   C61   A    
C81   O13   A    
C23   C84   S    
O2    Zn6   S    
C86   C88   S    
C32   C35   A    
C62   C79   S    
C17   C89   S    
C50   H4    S    
C5    C7    S    
C62   C66   A    
C30   Cl4   S    
C39   C43   A    
C82   O18   A    
C52   H17   S    
C46   H10   S    
C64   O9    A    
C22   C25   A    
C1    C32   S    
C40   C76   S    
C40   O7    A    
C51   C53   A    
C34   C85   S    
C64   O28   A    
C2    C4    S    
C34   C90   S    
C65   O10   A    
C2    C78   S    
C41   C75   S    
C9    C11   S    
C70   H28   S    
O7    Zn3   S    
C69   H27   S    
O4    Zn8   S    
C71   H18   S    
C22   H48   S    
O19   Zn2   S    
C61   C63   A    
C84   H11   S    
C73   C79   A    
C52   C54   A    
C40   O23   A    
C72   H19   S    
C75   C77   A    
O31   Zn4   S    
C74   C76   A    
C12   O31   A    
C68   C70   A    
C56   C89   S    
O23   Zn1   S    
O9    Zn5   S    
C51   H16   S    
C66   H25   S    
C7    O25   S    
C12   C31   S    
O15   Zn8   S    
C21   C24   A    
C60   H22   S    
C25   H50   S    
C20   C22   A    
C78   H32   S    
O16   Zn5   S    
C85   C88   S    
C80   O11   A    
C23   O20   S    
C45   O22   S    
C27   H23   S    
O3    Zn7   S    
C7    C9    S    
C83   O19   A    
C63   C68   A    
C5    H36   S    
O12   Zn6   S    
C30   C33   A    
C65   O29   A    
C61   H24   S    
C13   H39   S    
O1    Zn3   S    
C8    C10   S    
C10   C64   S    
C24   C26   A    
C6    H37   S    
C10   C13   S    
C4    C67   S    
C6    C8    S    
C52   C55   A    
C38   C42   A    
C4    H35   S    
C43   C55   S    
C25   C27   A    
C29   C35   A    
C26   C28   A    
C82   C90   S    
C3    C89   S    
C23   C88   S    
C12   O4    A    
C36   C38   A    
O1    Zn7   S    
C5    C10   S    
C29   C31   A    
C68   H26   S    
C6    C13   S    
C30   C32   A    
C37   C50   A    
O12   Zn4   S    
O28   Zn7   S    
C15   C28   A    
C87   H12   S    
H42   O22   S    
C8    C11   S    
O10   Zn6   S    
C48   C50   A    
C3    C45   S    
C17   O2    A    
C36   H5    S    
C18   C20   A    
C37   H6    S    
C43   C46   A    
C9    C65   S    
H41   O21   S    
C1    O3    A    
C86   H1    S    
C49   H3    S    
H40   O20   S    
C7    C13   S    
C83   O15   A    
C14   H45   S    
C59   H21   S    
C47   H14   S    
C87   C90   S    
O1    Zn1   S    
C58   H20   S    
C70   C72   A    
C85   H13   S    
C3    C78   S    
O30   Zn3   S    
O13   Zn4   S    
H43   O24   S    
C36   C49   A    
C28   H34   S    
C54   C57   A    
