data_mof_unit_36967.cif
_audit_creation_date              2012-12-10T17:18:54-0500
_audit_creation_method            fapswitch 2.2
_symmetry_space_group_name_H-M    P1
_symmetry_Int_Tables_number       1
_space_group_crystal_system       triclinic
_cell_length_a                    9.663789
_cell_length_b                    10.953066
_cell_length_c                    13.278395
_cell_angle_alpha                 94.421237
_cell_angle_beta                  73.149605
_cell_angle_gamma                 87.255991
_cell_volume                      1337.50903837

loop_
_atom_site_label
_atom_site_type_symbol
_atom_type_description
_atom_site_fract_x
_atom_site_fract_y
_atom_site_fract_z
_atom_type_partial_charge
C1    C     C_R   0.496141 0.738760 0.505308 0.922354
C2    C     C_R   0.417376 0.566472 0.990128 -0.022121
C3    C     C_R   0.451957 0.583238 0.881499 -0.014310
C4    C     C_R   0.524446 0.586334 0.042530 0.059517
C5    C     C_R   0.639486 0.660359 0.001138 -0.048218
C6    C     C_R   0.649297 0.707029 0.902282 -0.124695
C7    C     C_R   0.557825 0.666293 0.841238 0.346115
C8    C     C_R   0.520098 0.528782 0.133830 -0.241608
C9    C     C_R   0.723533 0.633488 0.157501 0.301802
C10   C     C_R   0.368180 0.528007 0.820395 -0.132033
C11   C     C_R   0.235085 0.900035 0.629525 0.456327
C12   C     C_R   0.420608 0.509928 0.701615 0.886046
C13   C     C_R   0.100271 0.966276 0.646964 0.185756
C14   C     C_R   0.096770 0.095012 0.648888 0.307119
C15   C     C_R   0.227766 0.149836 0.627012 0.411286
C16   C     C_R   0.360649 0.079407 0.574249 -0.183728
C17   C     C_R   0.361539 0.949774 0.571394 -0.129529
C18   C     C_R   0.491660 0.875587 0.520604 -0.127851
C19   C     C_R   0.624081 0.932919 0.491944 0.401475
C20   C     C_R   0.623599 0.059974 0.513317 0.280353
C21   C     C_R   0.493636 0.133939 0.534512 -0.199179
C22   C     C_R   0.915611 0.299435 0.388785 0.506046
C23   C     C_R   0.498340 0.264366 0.510992 0.877426
C24   C     C_R   0.995982 0.186754 0.378394 -0.287895
C25   C     C_R   0.130917 0.183245 0.395382 0.303556
C26   C     C_R   0.194410 0.294712 0.396827 0.059834
C27   C     C_R   0.102584 0.403247 0.444049 -0.037597
C28   C     C_R   0.953260 0.403495 0.444031 0.143881
C29   C     C_R   0.899282 0.589853 0.553243 0.008756
C30   C     C_R   0.044457 0.587660 0.555986 0.504171
C31   C     C_R   0.576576 0.511633 0.301210 0.899969
C32   C     C_R   0.737244 0.687365 0.061701 0.458099
C33   C     C_R   0.614414 0.552404 0.193203 -0.204344
C34   C     C_R   0.231704 0.487071 0.874274 0.290135
C35   C     C_R   0.188008 0.484624 0.984905 -0.137623
C36   C     C_R   0.275751 0.534136 0.044092 -0.108810
Cu1   Cu    Cu3+1 0.359340 0.500010 0.500010 1.055041
Cu2   Cu    Cu3+1 0.640660 0.499990 0.499990 1.052790
H1    H     H_    0.822405 0.662707 0.599186 0.182819
H2    H     H_    0.960652 0.103886 0.346547 0.176226
H3    H     H_    0.439442 0.465873 0.161293 0.184664
N1    N     N_R   0.852480 0.498790 0.499000 -0.223349
N2    N     N_R   0.148360 0.498710 0.498970 -0.227097
O1    O     O_R   0.381190 0.680360 0.500010 -0.551917
O2    O     O_R   0.618760 0.680340 0.500000 -0.527285
O3    O     O_R   0.323240 0.499990 0.650990 -0.536078
O4    O     O_R   0.560820 0.499960 0.650980 -0.576795
O5    O     O_R   0.381240 0.319660 0.500000 -0.542525
O6    O     O_R   0.618810 0.319640 0.499990 -0.556447
O7    O     O_R   0.439180 0.500040 0.349020 -0.597564
O8    O     O_R   0.676760 0.500010 0.349010 -0.507251
O9    O     O_3   0.812796 0.667153 0.217325 -0.708307
H4    H     H_    0.860047 0.590339 0.230231 0.377939
O10   O     O_3   0.250068 0.803639 0.687291 -0.686508
H5    H     H_    0.163847 0.808112 0.750427 0.381719
O11   O     O_3   0.976537 0.904090 0.665777 -0.673043
H6    H     H_    0.905982 0.949002 0.638163 0.339602
O12   O     O_3   0.970370 0.170547 0.686313 -0.670851
H7    H     H_    0.890832 0.123557 0.725855 0.325944
O13   O     O_3   0.223127 0.266439 0.673814 -0.598151
H8    H     H_    0.310202 0.271174 0.698766 0.302503
O14   O     O_3   0.749938 0.107607 0.519961 -0.766776
H9    H     H_    0.724662 0.171255 0.580939 0.346920
O15   O     O_3   0.816406 0.309920 0.333546 -0.648477
H10   H     H_    0.808491 0.229220 0.296961 0.334920
O16   O     O_3   0.217018 0.074704 0.377891 -0.701365
H11   H     H_    0.155235 0.004949 0.377709 0.335108
C37   C     C_2   0.314208 0.293998 0.297960 0.925094
O17   O     O_2   0.438092 0.260638 0.294723 -0.578664
O18   O     O_R   0.278922 0.303574 0.203917 -0.728077
H12   H     H_    0.363456 0.277322 0.138737 0.332431
C38   C     C_2   0.754801 0.796849 0.861675 0.963858
O19   O     O_2   0.881711 0.761629 0.819835 -0.535053
O20   O     O_R   0.709630 0.921680 0.875307 -0.737838
H13   H     H_    0.793170 0.975414 0.851328 0.346724
O21   O     O_3   0.075337 0.671047 0.625119 -0.640803
H14   H     H_    0.110795 0.622009 0.673062 0.373334
O22   O     O_3   0.844502 0.766879 0.027164 -0.703120
H15   H     H_    0.912859 0.766572 0.070045 0.372625
O23   O     O_3   0.138847 0.451559 0.818285 -0.643182
H16   H     H_    0.053260 0.511771 0.842111 0.370502
C39   C     C_2   0.208184 0.583084 0.157359 0.873392
O24   O     O_2   0.119769 0.526847 0.218237 -0.574332
O25   O     O_R   0.246737 0.695892 0.193984 -0.733331
H17   H     H_    0.195454 0.719572 0.271734 0.340859
C40   C     C_2   0.057340 0.419383 0.035502 0.940499
O26   O     O_2   0.063954 0.344872 0.098207 -0.511137
O27   O     O_R   0.929747 0.436860 0.007415 -0.774361
H18   H     H_    0.851368 0.383687 0.044791 0.337508
O28   O     O_3   0.556732 0.716099 0.748549 -0.721598
H19   H     H_    0.625957 0.780257 0.731721 0.326106
O29   O     O_3   0.753740 0.862722 0.447300 -0.686291
H20   H     H_    0.833758 0.916395 0.421695 0.357961

loop_
_geom_bond_atom_site_label_1
_geom_bond_atom_site_label_2
_ccdc_geom_bond_type
C16   C21   A    
O23   H16   S    
C29   N1    A    
C15   O13   S    
C35   C36   A    
C4    C8    A    
Cu2   O6    S    
C6    C38   S    
C26   C27   A    
O14   H9    S    
Cu1   Cu2   S    
Cu2   N1    S    
C3    C7    A    
C5    C6    A    
C34   C35   A    
C35   C40   S    
C40   O27   S    
C23   O6    A    
C15   C16   A    
O11   H6    S    
C18   C19   A    
Cu2   O2    S    
C19   O29   S    
C9    C32   A    
C34   O23   S    
O25   H17   S    
C19   C20   A    
C36   C39   S    
C16   C17   A    
C31   C33   S    
O18   H12   S    
C13   O11   S    
O27   H18   S    
O16   H11   S    
C22   C28   A    
C13   C14   A    
C9    C33   A    
C9    O9    S    
C12   O4    A    
O21   H14   S    
C14   O12   S    
O20   H13   S    
C24   C25   A    
C12   O3    A    
O22   H15   S    
C37   O17   D    
Cu2   O8    S    
O12   H7    S    
C7    O28   S    
C32   O22   S    
O13   H8    S    
Cu1   N2    S    
C2    C4    A    
C29   C30   A    
C30   O21   S    
C1    O1    A    
C29   H1    S    
C17   C18   A    
C1    C18   S    
C10   C34   A    
C8    H3    S    
Cu1   O5    S    
Cu2   O4    S    
C11   O10   S    
C10   C12   S    
C38   O20   S    
C39   O25   S    
C21   C23   S    
C22   C24   A    
C30   N2    A    
C31   O7    A    
O9    H4    S    
C2    C36   A    
O10   H5    S    
C11   C17   A    
C23   O5    A    
C40   O26   D    
C25   O16   S    
C31   O8    A    
C38   O19   D    
C6    C7    A    
C26   C37   S    
O15   H10   S    
C5    C32   A    
Cu1   O1    S    
C2    C3    A    
C25   C26   A    
C3    C10   A    
Cu1   O7    S    
C11   C13   A    
C1    O2    A    
O28   H19   S    
C28   N1    A    
O29   H20   S    
C24   H2    S    
C8    C33   A    
C20   O14   S    
C22   O15   S    
C27   N2    A    
C4    C5    A    
C20   C21   A    
C37   O18   S    
C39   O24   D    
C27   C28   A    
C14   C15   A    
Cu1   O3    S    
