data_mof_unit_23565.cif
_audit_creation_date              2012-12-11T18:07:01-0500
_audit_creation_method            fapswitch 2.2
_symmetry_space_group_name_H-M    P1
_symmetry_Int_Tables_number       1
_space_group_crystal_system       triclinic
_cell_length_a                    8.271293
_cell_length_b                    12.703523
_cell_length_c                    26.967835
_cell_angle_alpha                 96.672016
_cell_angle_beta                  92.676406
_cell_angle_gamma                 81.696578
_cell_volume                      2783.64885763

loop_
_atom_site_label
_atom_site_type_symbol
_atom_type_description
_atom_site_fract_x
_atom_site_fract_y
_atom_site_fract_z
_atom_type_partial_charge
Ba1   Ba    Ba6+2 0.859560 0.448380 0.523550 1.673320
Ba2   Ba    Ba6+2 0.330270 0.551530 0.476440 1.689399
C1    C     C_3   0.655481 0.079349 0.665206 0.251796
C2    C     C_R   0.938783 0.589646 0.179306 0.595382
C3    C     C_2   0.748988 0.542563 0.266907 0.360919
C4    C     C_3   0.155671 0.225920 0.662060 0.632902
C5    C     C_3   0.728885 0.585915 0.321667 -0.109783
C6    C     C_1   0.990078 0.476323 0.340228 -0.028070
C7    C     C_2   0.027522 0.463805 0.291219 0.286492
C8    C     C_2   0.900075 0.497683 0.252211 0.199670
C9    C     C_R   0.022267 0.493563 0.098954 -0.079591
C10   C     C_R   0.030896 0.396512 0.120205 -0.049333
C11   C     C_R   0.078467 0.300431 0.089968 -0.083097
C12   C     C_3   0.684911 0.180601 0.643207 0.393943
C13   C     C_R   0.975600 0.590564 0.128812 -0.027802
C14   C     C_2   0.854914 0.535969 0.357345 -0.336293
C15   C     C_2   0.354189 0.483406 0.640596 -0.222822
C16   C     C_3   0.109753 0.207949 0.714559 0.268310
C17   C     C_R   0.182327 0.400937 0.970191 -0.034730
C18   C     C_R   0.054723 0.589557 0.973161 0.028881
C19   C     C_R   0.138276 0.495929 0.946362 -0.056548
C20   C     C_R   0.287124 0.315027 0.944328 0.396124
C21   C     C_R   0.325736 0.318543 0.894554 -0.070519
C22   C     C_R   0.271842 0.408442 0.869494 -0.084592
C23   C     C_3   0.524241 0.730768 0.635179 0.694696
C24   C     C_R   0.178732 0.497607 0.895487 -0.091335
C25   C     C_R   0.126381 0.588622 0.870609 -0.057387
C26   C     C_R   0.168430 0.589750 0.820355 0.615637
C27   C     C_R   0.312605 0.411777 0.819241 0.600152
C28   C     C_3   0.253094 0.220037 0.408071 0.652880
C29   C     C_2   0.460027 0.488679 0.729103 -0.072793
C30   C     C_3   0.501638 0.493108 0.674951 -0.025356
C31   C     C_1   0.209273 0.526106 0.656746 0.092436
C32   C     C_2   0.170067 0.526234 0.703953 -0.141114
C33   C     C_2   0.301959 0.504666 0.743198 0.189437
C34   C     C_3   0.649695 0.739959 0.678827 -0.347504
C35   C     C_R   0.124232 0.397285 0.019218 0.027025
C36   C     C_R   0.060879 0.493931 0.047787 0.032659
C37   C     C_R   0.036412 0.591294 0.025726 0.039382
C38   C     C_R   0.123694 0.300724 0.040621 -0.080435
C39   C     C_R   0.969846 0.687090 0.107875 -0.090707
C40   C     C_3   0.344965 0.122421 0.378860 -0.191900
C41   C     C_R   0.989711 0.676870 0.946134 0.371084
C42   C     C_R   0.029639 0.676109 0.895947 -0.110313
C43   C     C_R   0.000456 0.687500 0.057568 -0.046943
C44   C     C_R   0.751533 0.819896 0.478132 -0.269494
C45   C     C_3   0.055536 0.788702 0.340464 0.365190
C46   C     C_R   0.435585 0.189494 0.521491 -0.235555
C47   C     C_R   0.410157 0.010175 0.537196 -0.090338
C48   C     C_R   0.348600 0.118303 0.540771 0.077659
C49   C     C_R   0.577014 0.152754 0.494687 0.036621
C50   C     C_R   0.637821 0.041328 0.488575 -0.052416
C51   C     C_R   0.553550 0.969742 0.510902 -0.034168
C52   C     C_3   0.979556 0.774317 0.578392 0.316532
C53   C     C_R   0.613290 0.859082 0.505457 0.043152
C54   C     C_R   0.839588 0.889067 0.458431 -0.006302
C55   C     C_R   0.780827 0.998774 0.461796 -0.075002
C56   C     C_3   0.083017 0.823082 0.289670 -0.312867
C57   C     C_3   0.985394 0.893898 0.587318 -0.334794
C58   C     C_3   0.733399 0.289685 0.373005 0.660184
C59   C     C_3   0.805179 0.229178 0.325102 -0.212785
C60   C     C_3   0.312912 0.839266 0.680554 0.207956
C61   C     C_3   0.508090 0.255072 0.991284 0.162381
C62   C     C_3   0.552171 0.652748 0.225514 0.267398
C63   C     C_3   0.536632 0.830234 0.357406 0.748650
C64   C     C_3   0.581406 0.907675 0.322900 -0.283799
C65   C     C_R   0.988797 0.397889 0.170848 0.686384
H1    H     H_    0.810295 0.168931 0.628729 0.005859
H2    H     H_    0.834012 0.321265 0.395954 -0.004686
H3    H     H_    0.674947 0.009047 0.636408 -0.055224
H4    H     H_    0.899190 0.161862 0.334154 0.085930
H5    H     H_    0.862460 0.283278 0.304037 0.070723
H6    H     H_    0.707512 0.196197 0.301043 0.112562
H7    H     H_    0.595088 0.192388 0.611854 -0.041223
H8    H     H_    0.526898 0.086470 0.676320 0.174039
H9    H     H_    0.555216 0.649141 0.615380 0.002466
H10   H     H_    0.638775 0.822835 0.697908 0.122756
H11   H     H_    0.633660 0.683919 0.706280 0.071692
H12   H     H_    0.405344 0.146535 0.346861 0.069181
H13   H     H_    0.774905 0.721265 0.664942 0.120210
H14   H     H_    0.125706 0.279924 0.740867 0.061278
H15   H     H_    0.144613 0.716512 0.346012 0.095234
H16   H     H_    0.929249 0.768530 0.340903 -0.083328
H17   H     H_    0.189140 0.868004 0.291621 0.140975
H18   H     H_    0.109439 0.751509 0.262139 0.126276
H19   H     H_    0.973048 0.875331 0.277048 0.109714
H20   H     H_    0.654401 0.794180 0.374318 -0.139531
H21   H     H_    0.669346 0.865227 0.295056 0.049007
H22   H     H_    0.641057 0.971792 0.344862 0.079211
H23   H     H_    0.439500 0.082759 0.403429 0.099937
H24   H     H_    0.079480 0.300189 0.652499 0.008242
H25   H     H_    0.470560 0.944262 0.303028 0.099941
H26   H     H_    0.081109 0.224080 0.104401 0.123736
H27   H     H_    0.558524 0.476756 0.756812 0.103165
H28   H     H_    0.402988 0.250548 0.876008 0.157021
H29   H     H_    0.150718 0.223603 0.019173 0.146288
H30   H     H_    0.941322 0.763353 0.130409 0.121966
H31   H     H_    0.981599 0.744207 0.876310 0.122742
H32   H     H_    0.043227 0.542562 0.714475 0.121380
H33   H     H_    0.003011 0.764751 0.044953 0.141615
H34   H     H_    0.259379 0.065473 0.364264 0.155329
H35   H     H_    0.848245 0.568954 0.396303 0.094666
H36   H     H_    0.367201 0.440660 0.603368 0.063569
H37   H     H_    0.341414 0.958610 0.553940 0.095586
H38   H     H_    0.851090 0.049121 0.444655 0.131281
H39   H     H_    0.798488 0.735428 0.475582 0.049366
H40   H     H_    0.387306 0.273746 0.524855 0.056496
H41   H     H_    0.978594 0.198037 0.714865 0.054350
H42   H     H_    0.343438 0.271079 0.425087 -0.017173
H43   H     H_    0.602050 0.425635 0.390482 0.307326
H44   H     H_    0.337415 0.908475 0.661739 0.062485
H45   H     H_    0.852132 0.759745 0.571565 -0.038030
H46   H     H_    0.370025 0.841711 0.718664 0.058307
H47   H     H_    0.179359 0.848523 0.685677 0.092362
H48   H     H_    0.866258 0.032359 0.695669 0.284824
H49   H     H_    0.424634 0.836660 0.418946 0.330117
H50   H     H_    0.233734 0.368198 0.297088 0.338763
H51   H     H_    0.484513 0.324677 0.020401 0.035950
H52   H     H_    0.594884 0.271431 0.963724 0.039162
H53   H     H_    0.567554 0.185878 0.010185 0.089552
H54   H     H_    0.619405 0.715081 0.245750 0.028858
H55   H     H_    0.423332 0.666593 0.237185 0.074326
H56   H     H_    0.052678 0.742027 0.545158 0.079423
H57   H     H_    0.550970 0.662923 0.185188 0.053177
H58   H     H_    0.841852 0.811182 0.943628 0.310483
H59   H     H_    0.336530 0.301079 0.685863 0.287937
H60   H     H_    0.161292 0.055089 0.716716 0.290856
H61   H     H_    0.133195 0.251231 0.468252 0.312618
H62   H     H_    0.936016 0.925852 0.624196 0.094992
H63   H     H_    0.912465 0.935943 0.558319 0.075982
H64   H     H_    0.113546 0.909596 0.587023 0.126683
N1    N     N_R   0.942874 0.494081 0.199870 -0.394059
N2    N     N_R   0.260834 0.501958 0.795117 -0.428678
O1    O     O_2   0.907040 0.557650 0.617910 -0.497047
O2    O     O_2   0.170418 0.886552 0.470799 -0.455848
O3    O     O_3   0.079760 0.872715 0.377389 -0.574499
O4    O     O_3   0.139040 0.557570 0.557730 -0.490335
O5    O     O_3   0.571310 0.369620 0.475470 -0.499302
O6    O     O_2   0.348200 0.764910 0.523260 -0.460641
O7    O     O_3   0.536334 0.810924 0.604216 -0.682017
O8    O     O_2   0.390686 0.557923 0.322699 -0.401729
O9    O     O_3   0.446909 0.755287 0.329847 -0.644686
O10   O     O_2   0.992091 0.313685 0.188869 -0.570291
O11   O     O_2   0.393174 0.333956 0.796878 -0.552303
O12   O     O_3   0.659616 0.218212 0.397204 -0.667667
O13   O     O_2   0.903013 0.674602 0.205139 -0.648788
O14   O     O_2   0.124364 0.669660 0.799274 -0.587865
O15   O     O_3   0.684960 0.360550 0.588460 -0.490157
O16   O     O_2   0.837024 0.421159 0.673812 -0.529662
O17   O     O_3   0.040080 0.729252 0.621563 -0.606732
O18   O     O_3   0.664617 0.268583 0.680250 -0.562652
O19   O     O_2   0.841490 0.235060 0.476710 -0.456127
O20   O     O_3   0.099640 0.305100 0.564190 -0.499036
O21   O     O_2   0.011818 0.114970 0.535611 -0.469294
O22   O     O_3   0.615032 0.373064 0.360311 -0.728284
O23   O     O_3   0.124521 0.138002 0.627928 -0.644299
O24   O     O_3   0.362594 0.739515 0.652319 -0.671100
O25   O     O_3   0.756167 0.063006 0.707666 -0.676117
O26   O     O_3   0.439536 0.887879 0.395162 -0.727748
O27   O     O_3   0.178888 0.417249 0.273741 -0.661683
O28   O     O_3   0.361487 0.228483 0.967538 -0.650139
O29   O     O_3   0.620225 0.546532 0.231797 -0.623909
O30   O     O_3   0.876014 0.757920 0.967561 -0.743158
O31   O     O_3   0.320845 0.238335 0.661640 -0.765610
O32   O     O_3   0.209476 0.119332 0.731244 -0.663910
O33   O     O_3   0.165634 0.186391 0.444866 -0.731169
O34   O     O_2   0.282660 0.442310 0.382060 -0.440410
O35   O     O_3   0.050670 0.442340 0.442260 -0.505427
O36   O     O_3   0.504750 0.639360 0.411530 -0.497141
O37   O     O_3   0.143810 0.271238 0.374716 -0.666802
O38   O     O_3   0.618400 0.630290 0.524520 -0.489638
O39   O     O_3   0.090070 0.694820 0.435810 -0.509258
P1    P     P_3+3 0.072810 0.589830 0.610360 1.029057
P2    P     P_3+3 0.661990 0.251250 0.462170 0.961111
P3    P     P_3+3 0.146344 0.167600 0.566812 0.990369
P4    P     P_3+3 0.116900 0.410080 0.389630 0.972848
P5    P     P_3+3 0.044124 0.834694 0.435696 0.970462
P6    P     P_3+3 0.672013 0.387618 0.653617 0.958859
P7    P     P_3+3 0.532006 0.764596 0.540188 0.932026
P8    P     P_3+3 0.518604 0.627577 0.346546 0.993561

loop_
_geom_bond_atom_site_label_1
_geom_bond_atom_site_label_2
_ccdc_geom_bond_type
O39   P5    S    
C27   N2    Am   
C52   H56   S    
C40   H34   S    
O23   P3    S    
C63   O9    S    
O1    P1    D    
C45   O3    S    
C9    C36   A    
O8    P8    D    
C39   C43   A    
C55   H38   S    
C65   N1    Am   
C63   O26   S    
C65   O10   D    
C33   N2    S    
C47   H37   S    
Ba1   O4    S    
C52   O17   S    
O37   P4    S    
C57   H63   S    
C57   H64   S    
C24   C25   A    
O21   P3    D    
C62   H55   S    
Ba2   O6    S    
C12   H7    S    
C17   C19   A    
C22   C24   A    
C60   H47   S    
C35   C38   A    
C34   H10   S    
C64   H21   S    
C36   C37   A    
C18   C37   A    
C46   H40   S    
C4    H24   S    
C44   H39   S    
O7    P7    S    
C54   C55   A    
Ba1   O19   S    
O35   P4    S    
C32   C33   S    
C54   P5    S    
C45   H15   S    
C47   C48   A    
C22   C27   A    
C28   O37   S    
C11   C38   A    
H43   O22   S    
C17   C35   A    
Ba2   P4    S    
C42   H31   S    
C25   C42   A    
C16   O32   S    
C46   C49   A    
O9    P8    S    
C60   H44   S    
C21   H28   S    
C6    C7    D    
C44   C53   A    
O5    P2    S    
C1    O25   S    
C21   C22   A    
C45   H16   S    
C31   P1    S    
C7    C8    S    
O36   P8    S    
Ba2   O38   S    
C37   C43   A    
O19   P2    D    
C59   H4    S    
C46   C48   A    
C40   H12   S    
C6    C14   D    
H50   O27   S    
H61   O33   S    
C30   P6    S    
H58   O30   S    
C15   C31   D    
C38   H29   S    
H59   O31   S    
C56   H19   S    
Ba1   P1    S    
C19   C24   A    
C63   H20   S    
C64   H22   S    
C8    N1    S    
C52   C57   S    
C51   C53   A    
C4    C16   S    
C10   C65   A    
Ba1   P2    S    
C28   H42   S    
C49   C50   A    
Ba2   O5    S    
C17   C20   A    
C13   C39   A    
C60   H46   S    
C62   O29   S    
C34   H13   S    
C3    C5    S    
C61   H51   S    
O18   P6    S    
C64   H25   S    
H48   O25   S    
C7    O27   S    
C59   H6    S    
C62   H57   S    
C27   O11   D    
O3    P5    S    
Ba1   O38   S    
C26   N2    Am   
C11   H26   S    
C48   P3    S    
C40   H23   S    
C12   O18   S    
C49   P2    S    
C41   C42   A    
O4    P1    S    
C35   C36   A    
C56   H17   S    
C61   H52   S    
C29   C30   S    
H60   O32   S    
C2    O13   D    
C23   O7    S    
C32   H32   S    
C60   O24   S    
C52   H45   S    
C1    H3    S    
O12   P2    S    
Ba1   O20   S    
C28   O33   S    
C1    C12   S    
H49   O26   S    
C59   H5    S    
C14   H35   S    
C5    C14   S    
C4    O31   S    
C20   O28   S    
C9    C13   A    
C16   H14   S    
C23   O24   S    
C29   C33   D    
C58   O12   S    
Ba1   O1    S    
C56   H18   S    
Ba2   O35   S    
C18   C41   A    
C1    H8    S    
C50   C51   A    
C61   O28   S    
C57   H62   S    
C26   O14   D    
O15   P6    S    
C23   C34   S    
Ba2   O4    S    
C53   P7    S    
C28   C40   S    
C43   H33   S    
C9    C10   A    
C6    P4    S    
C29   H27   S    
O20   P3    S    
O2    P5    D    
Ba1   O35   S    
C23   H9    S    
C3    O29   S    
O38   P7    S    
C2    C13   A    
C15   H36   S    
C58   O22   S    
C3    C8    D    
C34   H11   S    
C45   C56   S    
C61   H53   S    
C2    N1    Am   
C58   H2    S    
C47   C51   A    
Ba1   Ba2   S    
O16   P6    D    
C31   C32   D    
C5    P8    S    
C39   H30   S    
C16   H41   S    
O6    P7    D    
C50   C55   A    
Ba2   O36   S    
O17   P1    S    
C10   C11   A    
C18   C19   A    
C63   C64   S    
C44   C54   A    
C25   C26   A    
C15   C30   S    
C12   H1    S    
C20   C21   A    
C58   C59   S    
Ba1   O15   S    
Ba2   O34   S    
C4    O23   S    
Ba1   O5    S    
C62   H54   S    
Ba2   O39   S    
O34   P4    D    
C41   O30   S    
