data_mof_unit_64324.cif
_audit_creation_date              2012-10-26T19:17:29-0400
_audit_creation_method            fapswitch 2.2
_symmetry_space_group_name_H-M    P1
_symmetry_Int_Tables_number       1
_space_group_crystal_system       triclinic
_cell_length_a                    14.355669
_cell_length_b                    15.787942
_cell_length_c                    17.111024
_cell_angle_alpha                 96.750807
_cell_angle_beta                  90.282568
_cell_angle_gamma                 92.165887
_cell_volume                      3848.34209136

loop_
_atom_site_label
_atom_site_type_symbol
_atom_type_description
_atom_site_fract_x
_atom_site_fract_y
_atom_site_fract_z
_atom_type_partial_charge
C1    C     C_R   0.502171 0.489125 0.348538 0.564888
C2    C     C_R   0.539371 0.159155 0.538427 -0.124091
C3    C     C_R   0.517891 0.891458 0.517603 0.225138
C4    C     C_R   0.482108 0.108542 0.482397 0.225137
C5    C     C_R   0.570869 0.849019 0.569370 0.078891
C6    C     C_R   0.429134 0.150980 0.430628 0.078887
C7    C     C_R   0.566134 0.759396 0.564239 0.068388
C8    C     C_R   0.433869 0.240603 0.435760 0.068383
C9    C     C_R   0.330855 0.500210 0.499969 0.550278
C10   C     C_R   0.669145 0.499790 0.500031 0.550285
C11   C     C_1   0.228623 0.500593 0.500019 -0.015802
C12   C     C_R   0.497828 0.510875 0.651463 0.564883
C13   C     C_1   0.771377 0.499407 0.499981 -0.015795
C14   C     C_1   0.143272 0.500517 0.500029 -0.016085
C15   C     C_1   0.856727 0.499482 0.499971 -0.016081
C16   C     C_1   0.042682 0.500175 0.500011 0.023721
C17   C     C_1   0.957318 0.499825 0.499988 0.023722
C18   C     C_R   0.505676 0.482534 0.262484 0.012804
C19   C     C_R   0.494316 0.517466 0.737517 0.012797
C20   C     C_R   0.466853 0.547284 0.224817 -0.170932
C21   C     C_R   0.533108 0.452699 0.775183 -0.170930
C22   C     C_R   0.468987 0.544116 0.143372 -0.084250
C23   C     C_R   0.549527 0.411343 0.135275 -0.073950
C24   C     C_R   0.530964 0.455865 0.856629 -0.084252
C25   C     C_R   0.510756 0.475756 0.097832 0.206150
C26   C     C_R   0.489218 0.524240 0.902169 0.206151
C27   C     C_R   0.450475 0.588668 0.864727 -0.073949
C28   C     C_R   0.547938 0.413973 0.217011 0.065501
C29   C     C_R   0.452074 0.586041 0.782991 0.065506
C30   C     C_R   0.457975 0.751441 0.458798 0.023861
C31   C     C_R   0.542022 0.248559 0.541203 0.023857
C32   C     C_R   0.460625 0.840845 0.461575 -0.124089
Cu1   Cu    Cu3+1 0.495850 0.415220 0.496180 0.979069
Cu2   Cu    Cu3+1 0.504150 0.584780 0.503820 0.979071
H1    H     H_    0.565880 0.399621 0.741513 0.131799
H2    H     H_    0.418093 0.869629 0.420253 0.155522
H3    H     H_    0.607148 0.727414 0.604240 0.154992
H4    H     H_    0.392858 0.272585 0.395757 0.154989
H5    H     H_    0.434064 0.600350 0.258487 0.131791
H6    H     H_    0.561911 0.404778 0.883519 0.154085
H7    H     H_    0.438014 0.595190 0.116480 0.154084
H8    H     H_    0.582456 0.359214 0.100410 0.152535
H9    H     H_    0.417563 0.640809 0.899593 0.152536
H10   H     H_    0.586373 0.286631 0.584182 0.132886
H11   H     H_    0.413621 0.713369 0.415820 0.132884
H12   H     H_    0.581901 0.130372 0.579751 0.155522
I1    I     I_    0.617711 0.315037 0.265080 -0.296633
I2    I     I_    0.382345 0.685006 0.734928 -0.296634
I3    I     I_    0.658733 0.917858 0.656245 -0.297165
I4    I     I_    0.341276 0.082141 0.343752 -0.297174
N1    N     N_2   0.516175 0.469303 0.014640 -0.236062
N2    N     N_2   0.483796 0.530694 0.985361 -0.236060
N3    N     N_R   0.510380 0.712130 0.509560 -0.231537
N4    N     N_R   0.489620 0.287870 0.490440 -0.231539
N5    N     N_2   0.524312 0.983265 0.524069 -0.198879
N6    N     N_2   0.475688 0.016735 0.475932 -0.198878
O1    O     O_R   0.496120 0.420530 0.382500 -0.470816
O2    O     O_R   0.503880 0.579470 0.617500 -0.470811
O3    O     O_R   0.503120 0.563720 0.388950 -0.508257
O4    O     O_R   0.496880 0.436280 0.611050 -0.508264
O5    O     O_R   0.372550 0.428390 0.496770 -0.484399
O6    O     O_R   0.627450 0.571610 0.503230 -0.484400
O7    O     O_R   0.379550 0.571580 0.503220 -0.471642
O8    O     O_R   0.620450 0.428420 0.496780 -0.471635

loop_
_geom_bond_atom_site_label_1
_geom_bond_atom_site_label_2
_ccdc_geom_bond_type
C2    C4    A    
N5    N6    D    
C25   N1    S    
C28   I1    S    
C19   C21   A    
C21   H1    S    
C26   N2    S    
C27   C29   A    
C5    C7    A    
C30   H11   S    
C18   C20   A    
C12   O2    A    
C10   O8    A    
C1    O3    A    
Cu1   Cu2   S    
C7    H3    S    
Cu1   O1    S    
C23   C28   A    
C2    H12   S    
C30   C32   A    
C9    C11   S    
C5    I3    S    
C1    C18   S    
C10   O6    A    
C23   H8    S    
C8    H4    S    
Cu1   O8    S    
C9    O5    A    
C32   H2    S    
C12   C19   S    
C4    C6    A    
Cu2   O7    S    
C30   N3    A    
C24   C26   A    
Cu1   O4    S    
C1    O1    A    
C13   C15   T    
C31   N4    A    
C26   C27   A    
C3    C32   A    
C11   C14   T    
C14   C16   S    
C22   H7    S    
C31   H10   S    
C7    N3    A    
C29   I2    S    
N1    N2    D    
C19   C29   A    
C27   H9    S    
Cu2   O6    S    
C23   C25   A    
C18   C28   A    
Cu2   N3    S    
C15   C17   S    
C21   C24   A    
C8    N4    A    
Cu1   N4    S    
Cu2   O2    S    
C20   H5    S    
C16   C17   T    
C6    C8    A    
C6    I4    S    
C24   H6    S    
C9    O7    A    
Cu2   O3    S    
C3    N5    S    
Cu1   O5    S    
C22   C25   A    
C4    N6    S    
C20   C22   A    
C2    C31   A    
C3    C5    A    
C10   C13   S    
C12   O4    A    
