data_mof_unit_41628.cif
_audit_creation_date              2012-10-26T21:25:57-0400
_audit_creation_method            fapswitch 2.2
_symmetry_space_group_name_H-M    P1
_symmetry_Int_Tables_number       1
_space_group_crystal_system       triclinic
_cell_length_a                    10.863279
_cell_length_b                    10.832617
_cell_length_c                    12.701211
_cell_angle_alpha                 92.772726
_cell_angle_beta                  92.626945
_cell_angle_gamma                 90.390317
_cell_volume                      1491.27007978

loop_
_atom_site_label
_atom_site_type_symbol
_atom_type_description
_atom_site_fract_x
_atom_site_fract_y
_atom_site_fract_z
_atom_type_partial_charge
C1    C     C_R   0.261899 0.503489 0.501171 0.560446
C2    C     C_R   0.895689 0.446971 0.211152 0.411106
C3    C     C_R   0.126194 0.603581 0.691135 0.049209
C4    C     C_R   0.873823 0.396348 0.308887 0.049171
C5    C     C_R   0.197816 0.712128 0.689924 -0.105158
C6    C     C_R   0.802285 0.287761 0.310171 -0.105184
C7    C     C_R   0.248884 0.766739 0.784396 -0.093063
C8    C     C_R   0.751354 0.233008 0.215739 -0.093140
C9    C     C_R   0.229731 0.713455 0.880259 -0.124514
C10   C     C_R   0.770532 0.286193 0.119831 -0.124441
C11   C     C_R   0.937343 0.543198 0.587241 -0.042283
C12   C     C_R   0.738101 0.496524 0.498828 0.560467
C13   C     C_R   0.062652 0.456850 0.412746 -0.042341
C14   C     C_R   0.871648 0.494954 0.496934 0.009047
C15   C     C_R   0.128349 0.505079 0.503058 0.009018
C16   C     C_R   0.496162 0.261929 0.500887 0.573112
C17   C     C_R   0.503834 0.738070 0.499115 0.573127
C18   C     C_R   0.934910 0.450980 0.407825 0.007557
C19   C     C_R   0.065086 0.549048 0.592166 0.007566
C20   C     C_2   0.454448 0.484454 0.031552 -0.110698
C21   C     C_2   0.545553 0.515539 0.968448 -0.110654
C22   C     C_1   0.529004 0.518351 0.852717 0.210729
C23   C     C_R   0.505236 0.871675 0.498128 0.045670
C24   C     C_1   0.470995 0.481645 0.147283 0.210767
C25   C     C_R   0.378984 0.170455 0.865010 0.257963
C26   C     C_R   0.621005 0.829526 0.135000 0.257909
C27   C     C_R   0.442389 0.126142 0.777727 -0.136444
C28   C     C_R   0.557579 0.873859 0.222277 -0.136389
C29   C     C_R   0.386992 0.126328 0.675670 -0.012267
C30   C     C_R   0.612984 0.873671 0.324338 -0.012297
C31   C     C_R   0.266587 0.171974 0.661500 0.204470
C32   C     C_R   0.733411 0.827994 0.338521 0.204457
C33   C     C_R   0.203347 0.215635 0.748960 -0.060727
C34   C     C_R   0.494742 0.128319 0.501877 0.045652
C35   C     C_R   0.796669 0.784321 0.251065 -0.060718
C36   C     C_R   0.258613 0.214981 0.850603 0.243700
C37   C     C_R   0.741399 0.784977 0.149418 0.243697
C38   C     C_R   0.457540 0.937227 0.584252 -0.113147
C39   C     C_R   0.542411 0.062761 0.415747 -0.113204
C40   C     C_R   0.549831 0.934980 0.413184 0.025457
C41   C     C_R   0.450141 0.065014 0.586821 0.025497
C42   C     C_R   0.157303 0.606886 0.882498 -0.040141
C43   C     C_R   0.842888 0.392787 0.117513 -0.040058
C44   C     C_R   0.104390 0.552838 0.788827 0.411174
Cl1   Cl    Cl    0.173337 0.265841 0.958613 -0.496729
Cl2   Cl    Cl    0.826690 0.734055 0.041419 -0.496582
Cl3   Cl    Cl    0.450602 0.164324 0.991653 -0.539513
Cl4   Cl    Cl    0.549401 0.835667 0.008352 -0.539659
Cl5   Cl    Cl    0.189440 0.168553 0.536367 -0.581801
Cl6   Cl    Cl    0.810551 0.831377 0.463664 -0.581845
Cu1   Cu    Cu3+1 0.492140 0.492110 0.395880 1.053925
Cu2   Cu    Cu3+1 0.507860 0.507890 0.604120 1.053900
F1    F     F_    0.029681 0.452707 0.793759 -0.627470
F2    F     F_    0.970372 0.547119 0.206147 -0.627388
H1    H     H_    0.212503 0.755154 0.616238 0.134298
H2    H     H_    0.465917 0.911100 0.210456 0.187515
H3    H     H_    0.109542 0.246792 0.737899 0.237313
H4    H     H_    0.890488 0.753148 0.262134 0.237233
H5    H     H_    0.422414 0.888253 0.648752 0.125803
H6    H     H_    0.577496 0.111727 0.351234 0.125872
H7    H     H_    0.269481 0.755835 0.953058 0.190825
H8    H     H_    0.730878 0.243709 0.047059 0.190840
H9    H     H_    0.140621 0.567152 0.957186 0.196895
H10   H     H_    0.859613 0.432436 0.042795 0.196924
H11   H     H_    0.787573 0.244819 0.383891 0.134334
H12   H     H_    0.301970 0.851407 0.784145 0.153228
H13   H     H_    0.698356 0.148320 0.216056 0.153134
H14   H     H_    0.888622 0.579800 0.654424 0.194029
H15   H     H_    0.111377 0.420243 0.345566 0.194050
H16   H     H_    0.636050 0.538798 0.003815 0.174111
H17   H     H_    0.363955 0.461188 0.996184 0.173998
H18   H     H_    0.534030 0.088907 0.789538 0.187495
N1    N     N_1   0.480320 0.480250 0.239400 -0.177379
N2    N     N_1   0.519680 0.519750 0.760600 -0.177387
O1    O     O_R   0.313000 0.493330 0.412070 -0.485899
O2    O     O_R   0.687000 0.506670 0.587930 -0.485885
O3    O     O_R   0.326280 0.506660 0.587930 -0.504996
O4    O     O_R   0.673720 0.493340 0.412070 -0.504980
O5    O     O_R   0.493370 0.312980 0.412070 -0.495089
O6    O     O_R   0.506630 0.687020 0.587930 -0.495106
O7    O     O_R   0.506650 0.326310 0.587930 -0.499053
O8    O     O_R   0.493350 0.673690 0.412070 -0.499058

loop_
_geom_bond_atom_site_label_1
_geom_bond_atom_site_label_2
_ccdc_geom_bond_type
C27   C29   A    
C1    O3    A    
C14   C18   A    
C28   H2    S    
C15   C19   A    
C11   C19   A    
C9    C42   A    
C17   C23   S    
C13   C18   A    
C35   H4    S    
C9    H7    S    
C35   C37   A    
Cu1   O1    S    
Cu2   N2    S    
C11   C14   A    
C24   N1    T    
C23   C40   A    
C33   C36   A    
C17   O8    A    
C16   C34   S    
C44   F1    S    
C6    H11   S    
C20   C24   S    
C12   O4    A    
C31   C33   A    
C20   H17   S    
C3    C19   S    
C1    C15   S    
C25   Cl3   S    
C26   Cl4   S    
C4    C18   S    
C21   C22   S    
C10   H8    S    
C34   C41   A    
C42   C44   A    
C31   Cl5   S    
C43   H10   S    
C3    C44   A    
Cu1   Cu2   S    
C1    O1    A    
C32   C35   A    
C38   C41   A    
C4    C6    A    
C2    F2    S    
C39   C40   A    
C5    C7    A    
C6    C8    A    
Cu2   O2    S    
C17   O6    A    
C34   C39   A    
C2    C4    A    
C2    C43   A    
C30   C40   S    
C36   Cl1   S    
Cu1   O8    S    
C32   Cl6   S    
C12   C14   S    
C13   C15   A    
C12   O2    A    
C22   N2    T    
Cu2   O3    S    
C11   H14   S    
C7    C9    A    
C33   H3    S    
C29   C41   S    
C10   C43   A    
C5    H1    S    
Cu1   N1    S    
C3    C5    A    
C26   C37   A    
C25   C27   A    
C23   C38   A    
C26   C28   A    
C21   H16   S    
C16   O5    A    
C28   C30   A    
Cu1   O4    S    
C29   C31   A    
C7    H12   S    
C30   C32   A    
C13   H15   S    
C39   H6    S    
C16   O7    A    
Cu2   O7    S    
Cu1   O5    S    
C25   C36   A    
C38   H5    S    
C20   C21   D    
C8    H13   S    
C8    C10   A    
C37   Cl2   S    
Cu2   O6    S    
C42   H9    S    
C27   H18   S    
