data_mof_unit_40813.cif
_audit_creation_date              2012-12-10T17:28:37-0500
_audit_creation_method            fapswitch 2.2
_symmetry_space_group_name_H-M    P1
_symmetry_Int_Tables_number       1
_space_group_crystal_system       triclinic
_cell_length_a                    10.63397
_cell_length_b                    12.063568
_cell_length_c                    12.846759
_cell_angle_alpha                 94.465661
_cell_angle_beta                  90.492036
_cell_angle_gamma                 87.253293
_cell_volume                      1641.11851153

loop_
_atom_site_label
_atom_site_type_symbol
_atom_type_description
_atom_site_fract_x
_atom_site_fract_y
_atom_site_fract_z
_atom_type_partial_charge
C1    C     C_R   0.501903 0.523069 0.700024 0.861007
C2    C     C_R   0.425969 0.534038 0.129843 -0.064876
C3    C     C_R   0.545113 0.459610 0.975873 0.055860
C4    C     C_R   0.455679 0.540779 0.024149 0.055924
C5    C     C_R   0.376228 0.950159 0.407942 -0.327049
C6    C     C_R   0.633677 0.048575 0.582619 -0.322007
C7    C     C_R   0.389370 0.835469 0.415863 -0.010864
C8    C     C_R   0.619253 0.163568 0.575471 -0.012568
C9    C     C_R   0.556633 0.859200 0.538193 0.308991
C10   C     C_R   0.439374 0.140652 0.466447 0.309528
C11   C     C_R   0.549821 0.976451 0.529696 0.014486
C12   C     C_R   0.498020 0.476925 0.299956 0.857600
C13   C     C_R   0.454452 0.022697 0.466947 0.013998
C14   C     C_R   0.738842 0.501083 0.499925 0.873072
C15   C     C_R   0.261154 0.498954 0.499775 0.875492
C16   C     C_R   0.867395 0.581587 0.683079 -0.145796
C17   C     C_R   0.132473 0.421772 0.315398 -0.148400
C18   C     C_R   0.931948 0.616097 0.773814 -0.131444
C19   C     C_R   0.067831 0.387659 0.224587 -0.129633
C20   C     C_R   0.062761 0.610662 0.775198 -0.129165
C21   C     C_R   0.937025 0.392016 0.223591 -0.133207
C22   C     C_R   0.128994 0.571327 0.685633 -0.152503
C23   C     C_R   0.497565 0.460836 0.188194 -0.107868
C24   C     C_R   0.870864 0.430014 0.313573 -0.149273
C25   C     C_R   0.064735 0.536781 0.592378 0.070108
C26   C     C_R   0.935184 0.464433 0.406823 0.070104
C27   C     C_R   0.933357 0.541073 0.591363 0.072510
C28   C     C_R   0.066559 0.460901 0.407587 0.061407
C29   C     C_R   0.128794 0.497111 0.500384 -0.185022
C30   C     C_R   0.871167 0.503468 0.499009 -0.184592
C31   C     C_1   0.317012 0.593570 0.178682 0.160165
C32   C     C_1   0.683206 0.406607 0.820865 0.164125
C33   C     C_1   0.327934 0.722707 0.008060 0.158423
C34   C     C_R   0.502470 0.539170 0.811748 -0.109844
C35   C     C_1   0.673274 0.277885 0.991971 0.159783
C36   C     C_3   0.216389 0.187100 0.468728 -0.735120
C37   C     C_3   0.607204 0.825220 0.717064 -0.738243
C38   C     C_R   0.401434 0.626153 0.964917 0.006152
C39   C     C_R   0.599147 0.374094 0.035084 0.000823
C40   C     C_R   0.421597 0.621095 0.858901 -0.291258
C41   C     C_R   0.578113 0.378621 0.141024 -0.282473
C42   C     C_R   0.574588 0.466306 0.870090 -0.065326
H1    H     H_    0.886639 0.366097 0.152952 0.146547
H2    H     H_    0.769310 0.432901 0.309128 0.130607
H3    H     H_    0.626872 0.318604 0.187732 0.165685
H4    H     H_    0.371865 0.680484 0.812177 0.159277
H5    H     H_    0.685155 0.217935 0.615231 0.167952
H6    H     H_    0.328317 0.780642 0.370991 0.168795
H7    H     H_    0.329411 0.165899 0.336308 0.203948
H8    H     H_    0.141415 0.232490 0.426501 0.243764
H9    H     H_    0.223338 0.226460 0.549544 0.260047
H10   H     H_    0.188024 0.100273 0.472699 0.219568
H11   H     H_    0.735558 0.825419 0.595634 0.210698
H12   H     H_    0.113091 0.636738 0.845819 0.145957
H13   H     H_    0.624839 0.910962 0.749636 0.224184
H14   H     H_    0.663651 0.765846 0.762437 0.232806
H15   H     H_    0.505907 0.810288 0.726761 0.252609
H16   H     H_    0.305015 0.980596 0.355340 0.167664
H17   H     H_    0.711496 0.017418 0.628368 0.164207
H18   H     H_    0.765743 0.586349 0.685864 0.136584
H19   H     H_    0.234160 0.416740 0.312603 0.138492
H20   H     H_    0.880242 0.646455 0.843317 0.139694
H21   H     H_    0.119459 0.358144 0.154802 0.143626
H22   H     H_    0.230537 0.567656 0.690364 0.129717
N1    N     N_R   0.523130 0.207800 0.519340 -0.116197
N2    N     N_R   0.476870 0.792200 0.480660 -0.115790
N3    N     N_1   0.229994 0.640214 0.217871 -0.200143
N4    N     N_1   0.769836 0.359845 0.781189 -0.201896
N5    N     N_1   0.269369 0.800533 0.041589 -0.197313
N6    N     N_1   0.732371 0.200342 0.958473 -0.197460
N7    N     N_2   0.335251 0.190787 0.414728 -0.273944
N8    N     N_2   0.642717 0.809536 0.608083 -0.273249
O1    O     O_R   0.506170 0.421700 0.658830 -0.608131
O2    O     O_R   0.493830 0.578300 0.341170 -0.609521
O3    O     O_R   0.491330 0.609310 0.646410 -0.614016
O4    O     O_R   0.508670 0.390690 0.353590 -0.622975
O5    O     O_R   0.690650 0.406190 0.506220 -0.622713
O6    O     O_R   0.309350 0.593810 0.493780 -0.619347
O7    O     O_R   0.675800 0.593810 0.493800 -0.601327
O8    O     O_R   0.324200 0.406190 0.506200 -0.595335
Zn1   Zn    Zn3+2 0.509910 0.374730 0.508290 0.960683
Zn2   Zn    Zn3+2 0.490090 0.625270 0.491710 0.963218

loop_
_geom_bond_atom_site_label_1
_geom_bond_atom_site_label_2
_ccdc_geom_bond_type
C3    C42   A    
C12   O2    A    
C2    C4    A    
C34   C42   A    
C9    N8    S    
C39   C41   A    
C31   N3    T    
C12   C23   S    
C5    H16   S    
C34   C40   A    
C28   C29   A    
C19   C21   A    
C24   C26   A    
C15   O6    A    
C16   H18   S    
C14   O5    A    
C9    N2    A    
C17   H19   S    
C21   H1    S    
C37   H14   S    
C35   N6    T    
C19   H21   S    
C22   C25   A    
C5    C13   A    
C36   H10   S    
C36   N7    S    
C33   N5    T    
C32   N4    T    
C10   N7    S    
C16   C27   A    
C3    C39   A    
C8    N1    A    
C27   C30   A    
O2    Zn2   S    
O1    Zn1   S    
C1    C34   S    
C15   C29   S    
C25   C29   A    
C1    O3    A    
C20   H12   S    
C6    C11   A    
C5    C7    A    
C18   H20   S    
C6    C8    A    
C14   C30   S    
C2    C31   S    
C35   C39   S    
N2    Zn2   S    
O6    Zn2   S    
N1    Zn1   S    
C15   O8    A    
O5    Zn1   S    
C14   O7    A    
C9    C11   A    
C36   H9    S    
C20   C22   A    
C26   C30   A    
C12   O4    A    
C24   H2    S    
C21   C24   A    
C40   H4    S    
C3    C4    A    
C36   H8    S    
C10   N1    A    
C32   C42   S    
C17   C28   A    
C6    H17   S    
C4    C38   A    
O8    Zn1   S    
C10   C13   A    
O4    Zn1   S    
O7    Zn2   S    
O3    Zn2   S    
C25   C27   A    
C26   C28   A    
C33   C38   S    
C23   C41   A    
C1    O1    A    
C7    H6    S    
C8    H5    S    
C7    N2    A    
C38   C40   A    
C11   C13   A    
C17   C19   A    
C18   C20   A    
C22   H22   S    
C37   H13   S    
C16   C18   A    
H7    N7    S    
C37   N8    S    
C2    C23   A    
C41   H3    S    
H11   N8    S    
C37   H15   S    
