data_mof_unit_52204.cif
_audit_creation_date              2012-12-11T15:50:42-0500
_audit_creation_method            fapswitch 2.2
_symmetry_space_group_name_H-M    P1
_symmetry_Int_Tables_number       1
_space_group_crystal_system       triclinic
_cell_length_a                    7.068184
_cell_length_b                    14.508855
_cell_length_c                    16.186143
_cell_angle_alpha                 90.05054
_cell_angle_beta                  89.944122
_cell_angle_gamma                 90.048684
_cell_volume                      1659.90727374

loop_
_atom_site_label
_atom_site_type_symbol
_atom_type_description
_atom_site_fract_x
_atom_site_fract_y
_atom_site_fract_z
_atom_type_partial_charge
O1    O     O_R   0.638140 0.833910 0.163320 -0.512679
O2    O     O_R   0.361860 0.166090 0.836680 -0.513410
O3    O     O_R   0.361860 0.166090 0.663320 -0.512917
O4    O     O_R   0.638140 0.833910 0.336680 -0.514093
O5    O     O_R   0.138140 0.666090 0.336680 -0.511684
O6    O     O_R   0.861860 0.333910 0.663320 -0.508445
O7    O     O_R   0.861860 0.333910 0.836680 -0.510717
O8    O     O_R   0.138140 0.666090 0.163320 -0.512776
O9    O     O_R   0.308390 0.844930 0.336080 -0.532225
O10   O     O_R   0.691610 0.155070 0.663920 -0.539868
O11   O     O_R   0.691610 0.155070 0.836080 -0.533266
O12   O     O_R   0.308390 0.844930 0.163920 -0.538881
O13   O     O_R   0.808390 0.655070 0.163920 -0.532366
O14   O     O_R   0.191610 0.344930 0.836080 -0.539019
O15   O     O_R   0.191610 0.344930 0.663920 -0.540277
O16   O     O_R   0.808390 0.655070 0.336080 -0.541978
C1    C     C_R   0.477550 0.870673 0.361461 0.739943
C2    C     C_R   0.523243 0.133207 0.634999 0.746223
C3    C     C_R   0.522388 0.129322 0.861458 0.743426
C4    C     C_R   0.476864 0.866878 0.135062 0.747208
C5    C     C_R   0.977549 0.629249 0.138616 0.745668
C6    C     C_R   0.023215 0.366806 0.865000 0.749974
C7    C     C_R   0.023354 0.369882 0.637813 0.754071
C8    C     C_R   0.976931 0.632857 0.364632 0.747399
O17   O     O_3   0.471620 0.691320 0.250000 -0.367042
O18   O     O_3   0.528380 0.308680 0.750000 -0.363582
O19   O     O_3   0.971620 0.808680 0.250000 -0.366941
O20   O     O_3   0.028380 0.191320 0.750000 -0.368809
V1    V     V_3+5 0.196770 0.760880 0.250000 1.538399
V2    V     V_3+5 0.803230 0.239120 0.750000 1.547732
V3    V     V_3+5 0.696770 0.739120 0.250000 1.533905
V4    V     V_3+5 0.303230 0.260880 0.750000 1.538569
C9    C     C_R   0.825410 0.525429 0.471605 0.248190
C10   C     C_R   0.177634 0.482128 0.536457 0.223811
C11   C     C_R   0.177309 0.476849 0.969333 0.251589
C12   C     C_R   0.831929 0.502488 0.049685 0.275544
C13   C     C_R   0.322881 0.977093 0.031016 0.252133
C14   C     C_R   0.668003 0.002820 0.950484 0.275256
C15   C     C_R   0.677319 0.023083 0.530718 0.252176
C16   C     C_R   0.332211 0.997599 0.450295 0.279035
C17   C     C_R   0.841453 0.478785 0.547281 0.470043
C18   C     C_R   0.163154 0.549612 0.474706 0.431640
C19   C     C_R   0.165198 0.526130 0.043866 0.430665
C20   C     C_R   0.843582 0.440368 0.983192 0.435215
C21   C     C_R   0.334852 0.026372 0.956513 0.431068
C22   C     C_R   0.656452 0.940722 0.016946 0.433298
C23   C     C_R   0.665311 0.973747 0.456214 0.429297
C24   C     C_R   0.343884 0.059759 0.516756 0.431325
C25   C     C_R   0.015209 0.442985 0.572262 -0.433664
C26   C     C_R   0.988072 0.566333 0.435540 -0.427406
C27   C     C_R   0.989366 0.554541 0.074382 -0.440144
C28   C     C_R   0.013785 0.431814 0.937295 -0.424380
C29   C     C_R   0.510593 0.054782 0.925842 -0.439070
C30   C     C_R   0.486354 0.932033 0.062894 -0.424147
C31   C     C_R   0.489450 0.945395 0.425687 -0.437358
C32   C     C_R   0.513870 0.068211 0.562705 -0.423781
O21   O     O_3   0.650386 0.529418 0.435663 -0.561708
H1    H     H_    0.667119 0.515204 0.376211 0.291361
O22   O     O_3   0.352097 0.462938 0.566568 -0.556166
H2    H     H_    0.346335 0.480274 0.625763 0.307854
O23   O     O_3   0.351418 0.471877 0.931822 -0.566774
H3    H     H_    0.331998 0.486089 0.872569 0.286399
O24   O     O_3   0.673339 0.499915 0.097293 -0.579251
H4    H     H_    0.715313 0.495968 0.155670 0.262899
O25   O     O_3   0.148907 0.972158 0.068662 -0.567617
H5    H     H_    0.168661 0.986211 0.127951 0.283676
O26   O     O_3   0.826473 0.000296 0.902814 -0.579371
H6    H     H_    0.784352 0.996035 0.844465 0.262169
O27   O     O_3   0.851304 0.028068 0.568215 -0.567520
H7    H     H_    0.831590 0.013897 0.627479 0.283412
O28   O     O_3   0.173942 0.000296 0.402620 -0.579139
H8    H     H_    0.216313 0.004126 0.344253 0.262242
O29   O     O_3   0.689727 0.473786 0.599931 -0.491559
C33   C     C_3   0.707601 0.545301 0.658961 -0.168115
H9    H     H_    0.696930 0.614137 0.629010 0.109281
H10   H     H_    0.841895 0.540119 0.694572 0.076108
H11   H     H_    0.590895 0.539584 0.704486 0.124765
O30   O     O_3   0.322202 0.599553 0.453729 -0.489148
C34   C     C_3   0.337551 0.675516 0.507870 -0.064434
H12   H     H_    0.353463 0.653026 0.573194 0.086634
H13   H     H_    0.214083 0.722601 0.501754 0.084382
H14   H     H_    0.466271 0.715199 0.491234 0.134747
O31   O     O_3   0.324260 0.537771 0.091689 -0.484844
C35   C     C_3   0.312861 0.475429 0.159405 -0.017784
H15   H     H_    0.353734 0.404957 0.139121 0.113056
H16   H     H_    0.171536 0.472552 0.189750 0.018193
H17   H     H_    0.411843 0.498168 0.208436 0.134177
O32   O     O_3   0.687241 0.386615 0.965166 -0.488827
C36   C     C_3   0.695497 0.305266 0.012821 -0.087524
H18   H     H_    0.694429 0.320402 0.080210 0.094583
H19   H     H_    0.821823 0.263196 0.996636 0.100970
H20   H     H_    0.568094 0.263251 0.999263 0.130111
O33   O     O_3   0.175729 0.037807 0.908747 -0.484663
C37   C     C_3   0.186821 0.975201 0.841121 -0.019609
H21   H     H_    0.145320 0.904853 0.861487 0.113642
H22   H     H_    0.328198 0.972034 0.810847 0.016886
H23   H     H_    0.088173 0.997872 0.792002 0.132239
O34   O     O_3   0.812818 0.887126 0.034904 -0.489330
C38   C     C_3   0.804549 0.805715 0.987195 -0.086155
H24   H     H_    0.805990 0.820784 0.919821 0.094112
H25   H     H_    0.678026 0.763639 0.003227 0.101237
H26   H     H_    0.931755 0.763728 0.000854 0.130052
O35   O     O_3   0.824547 0.962093 0.408386 -0.484357
C39   C     C_3   0.813689 0.024464 0.340692 -0.017194
H27   H     H_    0.854687 0.094932 0.361003 0.113596
H28   H     H_    0.672523 0.027346 0.310336 0.017234
H29   H     H_    0.912838 0.001751 0.291662 0.132418
O36   O     O_3   0.187824 0.113689 0.534655 -0.490611
C40   C     C_3   0.197177 0.195023 0.486994 -0.083813
H30   H     H_    0.197500 0.179889 0.419602 0.093181
H31   H     H_    0.323212 0.237157 0.503577 0.111102
H32   H     H_    0.069544 0.236969 0.500128 0.130915

loop_
_geom_bond_atom_site_label_1
_geom_bond_atom_site_label_2
_ccdc_geom_bond_type
O17   V3    S    
O18   V4    S    
O33   C37   S    
C16   O28   S    
O12   V1    S    
O19   V1    S    
C19   O31   S    
O29   C33   S    
C10   C18   A    
C35   H17   S    
C21   O33   S    
C39   H28   S    
O15   V4    S    
O16   V3    S    
C14   C29   A    
O11   C3    A    
C33   H10   S    
O8    V1    S    
C23   C31   A    
C35   H16   S    
C40   H31   S    
C7    C25   S    
O34   C38   S    
O1    V3    S    
O36   C40   S    
O3    C2    A    
O2    V4    S    
C16   C24   A    
C38   H24   S    
O11   V2    S    
C10   C25   A    
C33   H11   S    
C13   O25   S    
C36   H19   S    
C12   O24   S    
C11   C19   A    
C1    C31   S    
O23   H3    S    
C2    C32   S    
C3    C29   S    
O15   C7    A    
C22   O34   S    
C21   C29   A    
O22   H2    S    
O16   C8    A    
O7    V2    S    
C8    C26   S    
C22   C30   A    
C37   H21   S    
C17   C25   A    
C39   H27   S    
O5    V1    S    
O17   V1    S    
O10   C2    A    
C23   O35   S    
C33   H9    S    
O19   V3    S    
O26   H6    S    
O20   V4    S    
C35   H15   S    
C4    C30   S    
C40   H32   S    
C34   H13   S    
O30   C34   S    
C37   H23   S    
C9    C26   A    
O24   H4    S    
O10   V2    S    
O31   C35   S    
C16   C31   A    
O12   C4    A    
O8    C5    A    
C15   O27   S    
O13   C5    A    
O3    V4    S    
C11   O23   S    
C15   C32   A    
C14   O26   S    
C36   H20   S    
C37   H22   S    
C12   C27   A    
C18   C26   A    
O4    C1    A    
O9    C1    A    
O6    V2    S    
O18   V2    S    
C10   O22   S    
C12   C20   A    
C13   C30   A    
C13   C21   A    
C5    C27   S    
C15   C23   A    
C24   C32   A    
O1    C4    A    
C9    O21   S    
C38   H25   S    
O2    C3    A    
O13   V3    S    
O14   V4    S    
C34   H14   S    
C18   O30   S    
O9    V1    S    
O7    C6    A    
C9    C17   A    
O14   C6    A    
O20   V2    S    
O28   H8    S    
C40   H30   S    
C11   C28   A    
C20   C28   A    
O21   H1    S    
C24   O36   S    
O5    C8    A    
C19   C27   A    
O6    C7    A    
C6    C28   S    
O27   H7    S    
C14   C22   A    
O4    V3    S    
C17   O29   S    
C34   H12   S    
C38   H26   S    
O32   C36   S    
O25   H5    S    
O35   C39   S    
C36   H18   S    
C20   O32   S    
C39   H29   S    
