data_mof_unit_41955.cif
_audit_creation_date              2012-12-10T16:54:06-0500
_audit_creation_method            fapswitch 2.2
_symmetry_space_group_name_H-M    P1
_symmetry_Int_Tables_number       1
_space_group_crystal_system       triclinic
_cell_length_a                    9.737043
_cell_length_b                    10.915052
_cell_length_c                    13.489312
_cell_angle_alpha                 90.167496
_cell_angle_beta                  73.521631
_cell_angle_gamma                 89.239547
_cell_volume                      1374.60961272

loop_
_atom_site_label
_atom_site_type_symbol
_atom_type_description
_atom_site_fract_x
_atom_site_fract_y
_atom_site_fract_z
_atom_type_partial_charge
C1    C     C_R   0.500007 0.734589 0.497496 0.875291
C2    C     C_R   0.452871 0.439233 0.973015 0.059003
C3    C     C_R   0.497603 0.443940 0.863642 0.092380
C4    C     C_R   0.554555 0.464365 0.028255 0.078606
C5    C     C_R   0.700172 0.482987 0.973102 0.155586
C6    C     C_R   0.745733 0.463896 0.867202 -0.211519
C7    C     C_R   0.647014 0.439199 0.814064 -0.179495
C8    C     C_R   0.516028 0.474856 0.136276 -0.233401
C9    C     C_R   0.760433 0.522088 0.131838 -0.149578
C10   C     C_R   0.391398 0.449437 0.808842 -0.129152
C11   C     C_2   0.623369 0.063585 0.455358 0.000719
C12   C     C_R   0.426129 0.485207 0.698435 0.814951
C13   C     C_2   0.504630 0.132662 0.497630 -0.366311
C14   C     C_2   0.620029 0.930556 0.472866 -0.197579
C15   C     C_2   0.499914 0.866421 0.486372 -0.339517
C16   C     C_2   0.062092 0.593979 0.524035 0.008818
C17   C     C_2   0.922405 0.597833 0.496986 -0.119567
C18   C     C_R   0.502321 0.265397 0.496767 0.880611
C19   C     C_R   0.575980 0.501214 0.300749 0.827437
C20   C     C_R   0.800358 0.515490 0.024779 -0.156488
C21   C     C_R   0.618730 0.499714 0.187963 -0.047720
C22   C     C_R   0.250564 0.416778 0.860428 -0.233828
C23   C     C_R   0.212479 0.385565 0.965047 0.021174
C24   C     C_R   0.310456 0.404452 0.022085 -0.227824
Cu1   Cu    Cu3+1 0.361370 0.499980 0.499980 0.996730
Cu2   Cu    Cu3+1 0.638630 0.500020 0.500020 0.975259
H1    H     H_    0.840417 0.544230 0.170581 0.176747
H2    H     H_    0.405562 0.091629 0.542033 0.158349
H3    H     H_    0.720495 0.883574 0.469106 0.203507
H4    H     H_    0.400540 0.909369 0.482366 0.182912
H5    H     H_    0.879195 0.685727 0.482383 0.192792
H6    H     H_    0.879623 0.423748 0.531599 0.205441
H7    H     H_    0.858638 0.466078 0.825289 0.170293
H8    H     H_    0.910456 0.533463 0.982237 0.147524
H9    H     H_    0.406498 0.464875 0.181892 0.162740
H10   H     H_    0.171364 0.411390 0.818128 0.196217
H11   H     H_    0.275891 0.383392 0.103325 0.177018
H12   H     H_    0.693045 0.409906 0.735292 0.184019
N1    N     N_2   0.152660 0.501340 0.501130 -0.278721
N2    N     N_2   0.846520 0.501370 0.501160 -0.291158
O1    O     O_R   0.382960 0.678040 0.499980 -0.569012
O2    O     O_R   0.617100 0.678080 0.500020 -0.584346
O3    O     O_R   0.325800 0.499940 0.650950 -0.532255
O4    O     O_R   0.559930 0.499980 0.650990 -0.598352
O5    O     O_R   0.382900 0.321920 0.499980 -0.584987
O6    O     O_R   0.617040 0.321960 0.500020 -0.564229
O7    O     O_R   0.440070 0.500020 0.349010 -0.603482
O8    O     O_R   0.674200 0.500060 0.349050 -0.552764
C25   C     C_2   0.088149 0.699660 0.584689 0.901560
O9    O     O_2   0.059876 0.803477 0.561925 -0.608025
O10   O     O_R   0.137856 0.680997 0.670942 -0.733634
H13   H     H_    0.149916 0.760479 0.706445 0.323211
C26   C     C_1   0.136445 0.417587 0.426998 0.451383
N3    N     N_1   0.123647 0.348061 0.365353 -0.282562
C27   C     C_2   0.071715 0.329711 0.013879 0.831362
O11   O     O_2   0.027937 0.320759 0.107903 -0.605597
O12   O     O_R   0.989951 0.284342 0.952127 -0.774340
H14   H     H_    0.896711 0.247407 0.994275 0.349124
C28   C     C_2   0.759466 0.115164 0.389515 0.894375
O13   O     O_2   0.874398 0.071042 0.392363 -0.573635
O14   O     O_R   0.756288 0.210566 0.321185 -0.742173
H15   H     H_    0.855628 0.238122 0.281753 0.376115

loop_
_geom_bond_atom_site_label_1
_geom_bond_atom_site_label_2
_ccdc_geom_bond_type
C2    C4    A    
C27   O11   D    
C13   H2    S    
C23   C27   S    
C6    C7    A    
C1    C15   S    
C22   H10   S    
Cu1   O7    S    
C9    C20   A    
C6    H7    S    
Cu2   O8    S    
C4    C8    A    
C20   H8    S    
C9    H1    S    
Cu1   O3    S    
H6    N2    S    
C24   H11   S    
Cu2   O4    S    
C28   O13   D    
C12   O4    A    
C3    C10   A    
C26   N3    T    
C10   C22   A    
C11   C13   D    
Cu2   N2    S    
O12   H14   S    
N1    C26   S    
C10   C12   S    
C13   C18   S    
C11   C28   S    
C5    C6    A    
C18   O6    A    
C1    O1    A    
C19   C21   S    
C7    H12   S    
C2    C3    A    
C12   O3    A    
C3    C7    A    
C27   O12   S    
C2    C24   A    
O14   H15   S    
C17   H5    S    
C11   C14   S    
C19   O7    A    
C28   O14   S    
Cu2   O6    S    
C23   C24   A    
O10   H13   S    
C9    C21   A    
C18   O5    A    
Cu1   O5    S    
C1    O2    A    
C16   C25   S    
Cu2   O2    S    
C15   H4    S    
C25   O9    D    
Cu1   O1    S    
C5    C20   A    
C14   C15   D    
C16   C17   S    
C16   N1    D    
Cu1   Cu2   S    
C19   O8    A    
C8    H9    S    
C22   C23   A    
Cu1   N1    S    
C14   H3    S    
C4    C5    A    
C25   O10   S    
C17   N2    D    
C8    C21   A    
