data_mof_unit_16582.cif
_audit_creation_date              2012-12-10T16:47:59-0500
_audit_creation_method            fapswitch 2.2
_symmetry_space_group_name_H-M    P1
_symmetry_Int_Tables_number       1
_space_group_crystal_system       triclinic
_cell_length_a                    7.811784
_cell_length_b                    8.577207
_cell_length_c                    10.673401
_cell_angle_alpha                 91.223408
_cell_angle_beta                  85.872209
_cell_angle_gamma                 93.88741
_cell_volume                      711.559203708

loop_
_atom_site_label
_atom_site_type_symbol
_atom_type_description
_atom_site_fract_x
_atom_site_fract_y
_atom_site_fract_z
_atom_type_partial_charge
C1    C     C_R   0.545345 0.794104 0.490710 0.979296
C2    C     C_2   0.567734 0.958177 0.486526 -0.350103
C3    C     C_2   0.280848 0.984404 0.399242 0.504054
C4    C     C_2   0.008644 0.314489 0.421388 0.727069
C5    C     C_2   0.433687 0.043161 0.466398 -0.227585
C6    C     C_R   0.503005 0.501963 0.737136 0.863726
C7    C     C_R   0.454244 0.205246 0.495708 0.884078
C8    C     C_R   0.495602 0.488809 0.263263 0.970325
C9    C     C_2   0.619264 0.419857 0.059753 -0.246330
C10   C     C_2   0.481577 0.452741 0.133641 -0.219194
C11   C     C_2   0.604712 0.408648 0.925093 0.404298
C12   C     C_2   0.514851 0.513640 0.869849 0.229424
H1    H     H_    0.743309 0.404874 0.096325 0.191228
H2    H     H_    0.354892 0.453279 0.097501 0.208561
H3    H     H_    0.687972 0.009082 0.519706 0.158616
H4    H     H_    0.992858 0.635507 0.576999 0.185722
H5    H     H_    0.740690 0.226882 0.912687 0.346321
H6    H     H_    0.395307 0.706470 0.877340 0.342290
H7    H     H_    0.155289 0.022974 0.427956 0.047419
H8    H     H_    0.985100 0.212692 0.479905 -0.043126
N1    N     N_2   0.950320 0.457950 0.466680 -0.140056
N2    N     N_2   0.049680 0.542050 0.533320 -0.186126
O1    O     O_R   0.389250 0.738570 0.508180 -0.603008
O2    O     O_3   0.448560 0.639425 0.936234 -0.778749
O3    O     O_2   0.295931 0.895036 0.309057 -0.523137
O4    O     O_2   0.072167 0.302273 0.314135 -0.611783
O5    O     O_R   0.678390 0.711630 0.486820 -0.638780
O6    O     O_R   0.355470 0.513470 0.691600 -0.632540
O7    O     O_R   0.644610 0.486520 0.670240 -0.591565
O8    O     O_R   0.321610 0.288370 0.513180 -0.654126
O9    O     O_R   0.610750 0.261430 0.491820 -0.625506
O10   O     O_R   0.355390 0.513480 0.329760 -0.560687
O11   O     O_R   0.644530 0.486530 0.308400 -0.621814
O12   O     O_3   0.683255 0.292239 0.854939 -0.777280
Zn1   Zn    Zn3+2 0.306940 0.517990 0.514260 1.000257
Zn2   Zn    Zn3+2 0.693060 0.482010 0.485740 0.988811

loop_
_geom_bond_atom_site_label_1
_geom_bond_atom_site_label_2
_ccdc_geom_bond_type
C4    O4    D    
C11   C12   D    
C3    H7    S    
C2    H3    S    
O5    Zn2   S    
C9    C10   D    
C12   O2    S    
C1    O5    A    
O11   Zn2   S    
N2    Zn1   S    
C7    O8    A    
N1    N2    D    
N1    Zn2   S    
C4    N1    S    
C9    C11   S    
O7    Zn2   S    
O8    Zn1   S    
H6    O2    S    
C1    O1    A    
O1    Zn1   S    
C8    O11   A    
C6    C12   S    
C2    C5    D    
C7    O9    A    
H5    O12   S    
C4    H8    S    
O10   Zn1   S    
C3    O3    D    
C6    O7    A    
C8    C10   S    
C1    C2    S    
C10   H2    S    
C5    C7    S    
C9    H1    S    
O9    Zn2   S    
H4    N2    S    
C11   O12   S    
C6    O6    A    
O6    Zn1   S    
C3    C5    S    
C8    O10   A    
