data_mof_unit_46090.cif
_audit_creation_date              2012-12-10T21:11:38-0500
_audit_creation_method            fapswitch 2.2
_symmetry_space_group_name_H-M    P1
_symmetry_Int_Tables_number       1
_space_group_crystal_system       triclinic
_cell_length_a                    17.369518
_cell_length_b                    16.6487
_cell_length_c                    11.006796
_cell_angle_alpha                 89.996366
_cell_angle_beta                  90.004877
_cell_angle_gamma                 89.905707
_cell_volume                      3182.93977584

loop_
_atom_site_label
_atom_site_type_symbol
_atom_type_description
_atom_site_fract_x
_atom_site_fract_y
_atom_site_fract_z
_atom_type_partial_charge
C1    C     C_R   0.352677 0.500100 0.502642 0.937341
C2    C     C_R   0.431458 0.167420 0.483623 -0.287694
C3    C     C_R   0.432793 0.748380 0.517420 -0.022704
C4    C     C_R   0.567226 0.251617 0.517248 -0.022319
C5    C     C_R   0.567226 0.748178 0.482899 -0.014197
C6    C     C_R   0.432752 0.251823 0.483089 -0.014842
C7    C     C_R   0.500053 0.875770 0.500564 0.134213
C8    C     C_R   0.499949 0.124228 0.500568 0.133913
C9    C     C_1   0.499990 0.963425 0.499887 -0.064079
C10   C     C_1   0.500008 0.036573 0.499891 -0.064765
C11   C     C_R   0.499939 0.500007 0.258985 0.897369
C12   C     C_R   0.647330 0.499904 0.502657 0.937583
C13   C     C_R   0.499973 0.499994 0.740685 0.894776
C14   C     C_R   0.524143 0.649315 0.113767 -0.336582
C15   C     C_R   0.539203 0.354138 0.884292 -0.328871
C16   C     C_R   0.460075 0.645697 0.884085 -0.328687
C17   C     C_R   0.475041 0.350806 0.113906 -0.335972
C18   C     C_R   0.503494 0.721329 0.057310 0.438200
C19   C     C_R   0.528279 0.280296 0.942200 0.438495
C20   C     C_R   0.470560 0.719584 0.942073 0.438471
C21   C     C_R   0.495279 0.278688 0.057388 0.438149
C22   C     C_R   0.487090 0.572977 0.937449 0.016464
C23   C     C_R   0.884980 0.501774 0.583222 -0.079766
C24   C     C_R   0.494329 0.426076 0.061161 0.017656
C25   C     C_R   0.505137 0.573958 0.061080 0.017769
C26   C     C_R   0.512414 0.426970 0.937548 0.016391
C27   C     C_R   0.499845 0.499978 0.872831 -0.136850
C28   C     C_R   0.499813 0.500019 0.126230 -0.140242
C29   C     C_R   0.849091 0.573388 0.546936 0.454257
C30   C     C_R   0.150683 0.426945 0.545437 0.454521
C31   C     C_R   0.155657 0.570767 0.592256 0.462778
C32   C     C_R   0.844597 0.429175 0.591033 0.462730
C33   C     C_R   0.771475 0.571178 0.513987 -0.315063
C34   C     C_R   0.115033 0.498390 0.583062 -0.079847
C35   C     C_R   0.228331 0.429109 0.512673 -0.315095
C36   C     C_R   0.234328 0.570489 0.565703 -0.326143
C37   C     C_R   0.765928 0.429364 0.564423 -0.326052
C38   C     C_R   0.729858 0.499682 0.523800 -0.156457
C39   C     C_R   0.270168 0.500371 0.523825 -0.156149
C40   C     C_3   0.535057 0.188181 0.201096 0.081504
C41   C     C_3   0.608142 0.151817 0.145145 -0.316741
C42   C     C_3   0.662586 0.120543 0.243125 -0.981373
C43   C     C_3   0.496241 0.822749 0.809699 0.082225
C44   C     C_3   0.557068 0.873479 0.875622 -0.318256
C45   C     C_1   0.965847 0.500743 0.596907 0.106547
C46   C     C_3   0.602936 0.925313 0.787277 -0.976279
C47   C     C_3   0.501960 0.177622 0.809307 0.082314
C48   C     C_3   0.440640 0.127284 0.874760 -0.318152
C49   C     C_3   0.394263 0.076317 0.785925 -0.976894
C50   C     C_3   0.463035 0.811088 0.201577 0.081427
C51   C     C_3   0.389322 0.846352 0.146044 -0.316555
C52   C     C_3   0.334565 0.876496 0.244380 -0.982315
C53   C     C_3   0.861200 0.707900 0.598996 0.087719
C54   C     C_3   0.838621 0.775415 0.511451 -0.340888
C55   C     C_3   0.801425 0.845612 0.578701 -0.981658
C56   C     C_1   0.034175 0.499553 0.596850 0.106484
C57   C     C_3   0.137875 0.292046 0.594753 0.087273
C58   C     C_3   0.160099 0.225125 0.505978 -0.341058
C59   C     C_3   0.196239 0.153846 0.572062 -0.980973
C60   C     C_3   0.130912 0.707160 0.563015 0.096211
C61   C     C_3   0.174839 0.770952 0.635330 -0.342973
C62   C     C_3   0.190003 0.845704 0.558821 -0.979923
C63   C     C_3   0.869909 0.293161 0.559207 0.096547
C64   C     C_3   0.826270 0.228526 0.630222 -0.343481
C65   C     C_3   0.811417 0.154396 0.552205 -0.980072
C66   C     C_R   0.431502 0.832785 0.516918 -0.313436
C67   C     C_R   0.568516 0.167212 0.516778 -0.312121
C68   C     C_R   0.568521 0.832581 0.483420 -0.286696
H1    H     H_    0.743632 0.625181 0.481331 0.161970
H2    H     H_    0.715110 0.095322 0.200011 0.271628
H3    H     H_    0.634363 0.072443 0.296979 0.273652
H4    H     H_    0.463526 0.863501 0.749138 0.188543
H5    H     H_    0.524164 0.776376 0.751260 0.144995
H6    H     H_    0.528457 0.913415 0.942866 0.252862
H7    H     H_    0.597926 0.833264 0.923915 0.237918
H8    H     H_    0.630916 0.887192 0.717330 0.268563
H9    H     H_    0.648257 0.958488 0.837590 0.272714
H10   H     H_    0.564681 0.969743 0.742417 0.270608
H11   H     H_    0.534438 0.136724 0.748686 0.188606
H12   H     H_    0.256008 0.375284 0.479009 0.161678
H13   H     H_    0.474496 0.224357 0.750973 0.145184
H14   H     H_    0.468860 0.086781 0.941653 0.252417
H15   H     H_    0.400173 0.167730 0.923407 0.238205
H16   H     H_    0.366514 0.115071 0.716539 0.268015
H17   H     H_    0.348727 0.043281 0.835954 0.272601
H18   H     H_    0.432097 0.031797 0.740402 0.270596
H19   H     H_    0.488261 0.857360 0.261624 0.192291
H20   H     H_    0.449484 0.757863 0.259089 0.151056
H21   H     H_    0.404328 0.897130 0.084930 0.247318
H22   H     H_    0.359162 0.799546 0.092297 0.237097
H23   H     H_    0.267595 0.624573 0.579135 0.162149
H24   H     H_    0.318251 0.826334 0.305627 0.261850
H25   H     H_    0.281563 0.900868 0.201595 0.271733
H26   H     H_    0.362117 0.924993 0.298286 0.273345
H27   H     H_    0.556784 0.654799 0.196613 0.202534
H28   H     H_    0.571183 0.352801 0.800293 0.199368
H29   H     H_    0.428177 0.646865 0.799988 0.199050
H30   H     H_    0.442406 0.345517 0.196790 0.202348
H31   H     H_    0.906658 0.730761 0.660993 0.166300
H32   H     H_    0.811186 0.691841 0.658000 0.125738
H33   H     H_    0.890809 0.797039 0.463094 0.228156
H34   H     H_    0.732855 0.375041 0.576812 0.162261
H35   H     H_    0.797423 0.752451 0.442619 0.216158
H36   H     H_    0.748135 0.825452 0.625266 0.260805
H37   H     H_    0.786036 0.893610 0.512937 0.268385
H38   H     H_    0.841950 0.870732 0.646845 0.270690
H39   H     H_    0.092237 0.268983 0.656239 0.166630
H40   H     H_    0.187968 0.307283 0.654101 0.125533
H41   H     H_    0.107892 0.204585 0.456584 0.228346
H42   H     H_    0.201842 0.248283 0.438126 0.216154
H43   H     H_    0.249469 0.172940 0.619811 0.260455
H44   H     H_    0.211504 0.106368 0.505381 0.268638
H45   H     H_    0.509336 0.142275 0.261261 0.192338
H46   H     H_    0.155101 0.128468 0.639053 0.270529
H47   H     H_    0.073626 0.732078 0.538227 0.174926
H48   H     H_    0.160863 0.694400 0.475332 0.122831
H49   H     H_    0.140634 0.788173 0.716638 0.234878
H50   H     H_    0.230767 0.746254 0.666999 0.218709
H51   H     H_    0.225388 0.830052 0.478223 0.261608
H52   H     H_    0.221786 0.890668 0.613843 0.271387
H53   H     H_    0.134805 0.872784 0.528297 0.269283
H54   H     H_    0.927316 0.268756 0.533974 0.175028
H55   H     H_    0.839907 0.306530 0.471765 0.122944
H56   H     H_    0.549471 0.241187 0.258553 0.150669
H57   H     H_    0.860560 0.210742 0.711176 0.234778
H58   H     H_    0.770241 0.252685 0.662378 0.218429
H59   H     H_    0.775922 0.170605 0.471970 0.261605
H60   H     H_    0.779870 0.108777 0.606326 0.271105
H61   H     H_    0.866725 0.127876 0.521080 0.269303
H62   H     H_    0.377542 0.864200 0.530550 0.161789
H63   H     H_    0.622496 0.135799 0.530278 0.161860
H64   H     H_    0.622491 0.863816 0.469832 0.154688
H65   H     H_    0.377473 0.136186 0.470164 0.154944
H66   H     H_    0.379670 0.716136 0.531517 0.134986
H67   H     H_    0.592278 0.101426 0.083848 0.247413
H68   H     H_    0.620364 0.283859 0.531201 0.134757
H69   H     H_    0.620352 0.715753 0.468629 0.133405
H70   H     H_    0.379607 0.284248 0.468966 0.133654
H71   H     H_    0.638932 0.198239 0.091529 0.237418
H72   H     H_    0.679817 0.170307 0.304468 0.261902
N1    N     N_R   0.500000 0.707230 0.500000 -0.095476
N2    N     N_R   0.500000 0.292770 0.500000 -0.095409
O1    O     O_R   0.389110 0.566570 0.499990 -0.635329
O2    O     O_3   0.442098 0.789615 0.891423 -0.660922
O3    O     O_3   0.556239 0.210100 0.891411 -0.661138
O4    O     O_3   0.518969 0.794254 0.111925 -0.665326
O5    O     O_3   0.892732 0.642644 0.532684 -0.641266
O6    O     O_3   0.106768 0.358034 0.529598 -0.641374
O7    O     O_3   0.118377 0.638657 0.636938 -0.636981
O8    O     O_3   0.882102 0.361070 0.634498 -0.637080
O9    O     O_R   0.610890 0.433430 0.500010 -0.635196
O10   O     O_R   0.610890 0.566570 0.500010 -0.633846
O11   O     O_R   0.389110 0.433430 0.499990 -0.633881
O12   O     O_R   0.499990 0.566540 0.316770 -0.629493
O13   O     O_R   0.500010 0.433460 0.683230 -0.628248
O14   O     O_R   0.500010 0.566540 0.683230 -0.628121
O15   O     O_R   0.499990 0.433460 0.316770 -0.629293
O16   O     O_3   0.479147 0.205836 0.111752 -0.665312
Zn1   Zn    Zn3+2 0.500000 0.588860 0.500000 0.927084
Zn2   Zn    Zn3+2 0.500000 0.411140 0.500000 0.927187

loop_
_geom_bond_atom_site_label_1
_geom_bond_atom_site_label_2
_ccdc_geom_bond_type
C43   H5    S    
C47   O3    S    
C34   C56   S    
C43   H4    S    
C23   C45   S    
C63   H55   S    
C58   H41   S    
C41   C42   S    
C14   C18   A    
C54   H33   S    
C3    N1    A    
C47   H11   S    
C46   H8    S    
C63   O8    S    
C53   C54   S    
C53   H31   S    
C25   C28   A    
C15   C19   A    
C26   C27   A    
C19   O3    S    
C30   C35   A    
C55   H37   S    
C23   C29   A    
C49   H16   S    
C40   O16   S    
C19   C21   A    
C24   C26   A    
C51   H22   S    
C4    N2    A    
C37   H34   S    
C31   O7    S    
O9    Zn2   S    
C16   H29   S    
C29   C33   A    
C35   H12   S    
C53   O5    S    
C21   O16   S    
C68   H64   S    
C20   O2    S    
C13   O13   A    
C11   O12   A    
C7    C68   A    
N1    Zn1   S    
C47   C48   S    
C45   C56   T    
C22   C25   A    
C59   H43   S    
C52   H26   S    
C6    N2    A    
C9    C10   T    
C62   H52   S    
C33   H1    S    
C4    H68   S    
C50   O4    S    
C61   H50   S    
O10   Zn1   S    
C12   O9    A    
C43   O2    S    
C2    C6    A    
C5    C68   A    
C44   C46   S    
C59   H44   S    
C36   C39   A    
C53   H32   S    
C40   H56   S    
C67   H63   S    
C17   C24   A    
C30   C34   A    
C55   H38   S    
C61   H49   S    
C51   C52   S    
C2    H65   S    
C65   H60   S    
C49   H17   S    
C54   H35   S    
C15   H28   S    
C46   H10   S    
C15   C26   A    
C58   C59   S    
C42   H72   S    
C55   H36   S    
C17   C21   A    
C1    O11   A    
C60   C61   S    
C6    H70   S    
C44   H7    S    
C35   C39   A    
C43   C44   S    
C13   O14   A    
C37   C38   A    
C1    O1    A    
C42   H2    S    
C5    N1    A    
C40   H45   S    
C16   C20   A    
C50   C51   S    
C31   C34   A    
C52   H25   S    
C32   C37   A    
C44   H6    S    
C62   H51   S    
C50   H19   S    
C36   H23   S    
C48   C49   S    
C57   H39   S    
O15   Zn2   S    
C64   H58   S    
C22   C27   A    
C52   H24   S    
C3    C66   A    
C65   H59   S    
C14   H27   S    
C41   H67   S    
C63   H54   S    
C11   O15   A    
C17   H30   S    
C7    C9    S    
C54   C55   S    
C40   C41   S    
C16   C22   A    
O13   Zn2   S    
C58   H42   S    
C49   H18   S    
O1    Zn1   S    
O14   Zn1   S    
C2    C8    A    
C24   C28   A    
N2    Zn2   S    
C18   O4    S    
C29   O5    S    
C4    C67   A    
C65   H61   S    
C30   O6    S    
C50   H20   S    
C46   H9    S    
C33   C38   A    
C48   H15   S    
C3    H66   S    
C23   C32   A    
O11   Zn2   S    
C5    H69   S    
C64   C65   S    
C7    C66   A    
C57   C58   S    
C11   C28   S    
C59   H46   S    
C42   H3    S    
C48   H14   S    
C18   C20   A    
C60   O7    S    
C47   H13   S    
C14   C25   A    
C12   C38   S    
C61   C62   S    
C41   H71   S    
C60   H48   S    
C1    C39   S    
C63   C64   S    
O12   Zn1   S    
C57   H40   S    
C32   O8    S    
C8    C67   A    
C8    C10   S    
C64   H57   S    
C57   O6    S    
C12   O10   A    
C31   C36   A    
C13   C27   S    
C60   H47   S    
C62   H53   S    
C51   H21   S    
C66   H62   S    
