data_mof_unit_27810.cif
_audit_creation_date              2012-12-10T17:57:50-0500
_audit_creation_method            fapswitch 2.2
_symmetry_space_group_name_H-M    P1
_symmetry_Int_Tables_number       1
_space_group_crystal_system       triclinic
_cell_length_a                    10.892441
_cell_length_b                    9.513791
_cell_length_c                    15.026755
_cell_angle_alpha                 89.999726
_cell_angle_beta                  91.256891
_cell_angle_gamma                 90.0
_cell_volume                      1556.82401734

loop_
_atom_site_label
_atom_site_type_symbol
_atom_type_description
_atom_site_fract_x
_atom_site_fract_y
_atom_site_fract_z
_atom_type_partial_charge
C1    C     C_R   0.261946 0.500002 0.499275 0.799606
C2    C     C_R   0.738054 0.500002 0.500726 0.799612
C3    C     C_R   0.277435 0.537239 0.048017 -0.005987
C4    C     C_R   0.722564 0.537244 0.951981 -0.005996
C5    C     C_R   0.063676 0.372416 0.499743 -0.166846
C6    C     C_R   0.936369 0.627552 0.500777 -0.198798
C7    C     C_R   0.936323 0.372417 0.500242 -0.166863
C8    C     C_R   0.063631 0.627552 0.499247 -0.198792
C9    C     C_R   0.871917 0.500006 0.500724 -0.003115
C10   C     C_R   0.128083 0.500006 0.499279 -0.003115
C11   C     C_R   0.421388 0.074413 0.445233 -0.018223
C12   C     C_R   0.578590 0.925531 0.554784 -0.035668
C13   C     C_R   0.578612 0.074412 0.554767 -0.018223
C14   C     C_R   0.421410 0.925532 0.445216 -0.035668
C15   C     C_R   0.500849 0.500136 0.329037 0.898846
C16   C     C_R   0.499150 0.500136 0.670963 0.898851
C17   C     C_R   0.602841 0.486318 0.814518 0.506430
C18   C     C_R   0.397157 0.486325 0.185481 0.506420
C19   C     C_R   0.492798 0.502103 0.767367 -0.203772
C20   C     C_R   0.507200 0.502106 0.232632 -0.203764
C21   C     C_R   0.383267 0.537080 0.810605 -0.030960
C22   C     C_R   0.616733 0.537079 0.189394 -0.030969
C23   C     C_R   0.383582 0.532405 0.905558 -0.003797
C24   C     C_R   0.616418 0.532409 0.094442 -0.003797
C25   C     C_R   0.498085 0.521604 0.952962 -0.112117
C26   C     C_R   0.501914 0.521606 0.047038 -0.112115
C27   C     C_R   0.609220 0.513784 0.906194 -0.061925
C28   C     C_R   0.390779 0.513787 0.093805 -0.061911
C29   C     C_R   0.274893 0.543704 0.954748 0.529721
C30   C     C_R   0.725106 0.543714 0.045250 0.529719
Cu1   Cu    Cu3+1 0.500000 0.640660 0.500000 0.937882
Cu2   Cu    Cu3+1 0.500000 0.359340 0.500000 0.975633
H1    H     H_    0.111454 0.272564 0.499648 0.148012
H2    H     H_    0.888702 0.727398 0.501758 0.151279
H3    H     H_    0.888545 0.272564 0.500322 0.148012
H4    H     H_    0.111299 0.727398 0.498281 0.151278
H5    H     H_    0.358427 0.130561 0.401372 0.139597
H6    H     H_    0.641520 0.869341 0.598656 0.126100
H7    H     H_    0.641572 0.130559 0.598628 0.139598
H8    H     H_    0.358480 0.869343 0.401344 0.126098
N1    N     N_R   0.500000 0.852070 0.500000 -0.165008
N2    N     N_R   0.500000 0.147930 0.500000 -0.165867
O1    O     O_R   0.319640 0.618740 0.499990 -0.601126
O2    O     O_R   0.680360 0.381260 0.500010 -0.588532
O3    O     O_R   0.680360 0.618740 0.500010 -0.601124
O4    O     O_R   0.319640 0.381260 0.499990 -0.588531
O5    O     O_R   0.499970 0.618800 0.370260 -0.590894
O6    O     O_R   0.500030 0.381200 0.629740 -0.564813
O7    O     O_R   0.500030 0.618800 0.629740 -0.590897
O8    O     O_R   0.499970 0.381200 0.370260 -0.564815
F1    F     F_    0.703572 0.448605 0.768442 -0.704106
F2    F     F_    0.296426 0.448610 0.231557 -0.704117
C31   C     C_3   0.275927 0.595941 0.754457 -0.291551
C32   C     C_3   0.271840 0.757074 0.763404 -0.301470
C33   C     C_3   0.206463 0.826826 0.684048 -0.864119
H9    H     H_    0.263160 0.816965 0.623867 0.274521
H10   H     H_    0.115822 0.777618 0.670455 0.254308
H11   H     H_    0.192865 0.940281 0.698051 0.245201
H12   H     H_    0.225532 0.786250 0.825745 0.237686
H13   H     H_    0.366758 0.800217 0.767564 0.217578
H14   H     H_    0.284383 0.569239 0.683288 0.165336
H15   H     H_    0.186937 0.546300 0.768880 0.246799
C34   C     C_3   0.724081 0.595917 0.245544 -0.291537
C35   C     C_3   0.728193 0.757051 0.236600 -0.301456
C36   C     C_3   0.793565 0.826786 0.315964 -0.864132
H16   H     H_    0.736851 0.816941 0.376137 0.274530
H17   H     H_    0.884193 0.777555 0.329570 0.254305
H18   H     H_    0.807189 0.940237 0.301962 0.245196
H19   H     H_    0.774518 0.786222 0.174266 0.237728
H20   H     H_    0.633282 0.800212 0.232432 0.217573
H21   H     H_    0.715620 0.569213 0.316713 0.165333
H22   H     H_    0.813062 0.546256 0.231119 0.246770
F3    F     F_    0.163935 0.557582 0.913450 -0.741626
F4    F     F_    0.836063 0.557609 0.086546 -0.741630
C37   C     C_3   0.160418 0.574585 0.096601 -0.240792
C38   C     C_3   0.175373 0.715316 0.145956 -0.375192
C39   C     C_3   0.057007 0.757327 0.190590 -0.779960
H23   H     H_    0.984070 0.776576 0.139357 0.280033
H24   H     H_    0.027807 0.672512 0.236262 0.273906
H25   H     H_    0.071842 0.855350 0.229473 0.231065
H26   H     H_    0.249249 0.709103 0.197803 0.243426
H27   H     H_    0.200536 0.798856 0.097902 0.212783
H28   H     H_    0.081276 0.586214 0.049841 0.252420
H29   H     H_    0.131998 0.488784 0.141464 0.259426
C40   C     C_3   0.839579 0.574588 0.903394 -0.240788
C41   C     C_3   0.824620 0.715317 0.854037 -0.375121
C42   C     C_3   0.942953 0.757266 0.809332 -0.780010
H30   H     H_    0.015963 0.776438 0.860521 0.280093
H31   H     H_    0.972048 0.672456 0.763621 0.273864
H32   H     H_    0.928123 0.855319 0.770479 0.231059
H33   H     H_    0.750688 0.709133 0.802230 0.243391
H34   H     H_    0.799537 0.798875 0.902102 0.212771
H35   H     H_    0.918723 0.586221 0.950151 0.252397
H36   H     H_    0.867997 0.488784 0.858534 0.259444

loop_
_geom_bond_atom_site_label_1
_geom_bond_atom_site_label_2
_ccdc_geom_bond_type
C42   H30   S    
C15   O5    A    
C33   H9    S    
C17   F1    S    
C6    C9    A    
C18   F2    S    
C32   H13   S    
C31   C32   S    
C12   C13   A    
Cu1   O1    S    
C23   C29   A    
C3    C28   A    
C19   C21   A    
C24   C26   A    
C41   H33   S    
C8    H4    S    
C30   F4    S    
C11   C14   A    
C37   H29   S    
C29   F3    S    
C11   N2    A    
C11   H5    S    
C31   H15   S    
C15   O8    A    
C3    C29   A    
C22   C34   S    
C31   H14   S    
C21   C23   A    
C1    O1    A    
C2    O2    A    
C36   H17   S    
C5    H1    S    
C35   H20   S    
C3    C37   S    
Cu1   O5    S    
Cu2   O6    S    
C16   O6    A    
C40   H35   S    
Cu1   O7    S    
C13   N2    A    
C32   H12   S    
C39   H24   S    
C2    O3    A    
C15   C20   S    
C17   C27   A    
C18   C28   A    
C16   O7    A    
C38   H27   S    
C5    C7    A    
C41   C42   S    
C6    C8    A    
C4    C40   S    
C25   C26   A    
C39   H23   S    
C6    H2    S    
C37   C38   S    
C12   N1    A    
C40   H36   S    
Cu1   Cu2   S    
C36   H18   S    
Cu2   O2    S    
C35   H19   S    
C38   C39   S    
Cu2   O8    S    
C40   C41   S    
C14   N1    A    
C34   H21   S    
C33   H10   S    
C22   C24   A    
C42   H32   S    
C4    C27   A    
C39   H25   S    
C7    C9    A    
C32   C33   S    
Cu1   N1    S    
Cu2   O4    S    
C1    C10   S    
C20   C22   A    
C38   H26   S    
C25   C27   A    
C26   C28   A    
C35   C36   S    
C42   H31   S    
C5    C10   A    
C41   H34   S    
C21   C31   S    
C37   H28   S    
C16   C19   S    
C7    H3    S    
C17   C19   A    
C18   C20   A    
C23   C25   A    
C12   H6    S    
C1    O4    A    
C24   C30   A    
C13   H7    S    
C14   H8    S    
C34   C35   S    
C34   H22   S    
C8    C10   A    
C36   H16   S    
Cu1   O3    S    
C33   H11   S    
Cu2   N2    S    
C2    C9    S    
C4    C30   A    
