data_mof_unit_17632.cif
_audit_creation_date              2013-03-05T15:48:04-0500
_audit_creation_method            fapswitch 2.2
_symmetry_space_group_name_H-M    P1
_symmetry_Int_Tables_number       1
_space_group_crystal_system       triclinic
_cell_length_a                    8.556637
_cell_length_b                    19.082252
_cell_length_c                    26.702831
_cell_angle_alpha                 94.769274
_cell_angle_beta                  93.249321
_cell_angle_gamma                 85.147171
_cell_volume                      4323.94917029

loop_
_atom_site_label
_atom_site_type_symbol
_atom_site_description
_atom_site_fract_x
_atom_site_fract_y
_atom_site_fract_z
_atom_type_partial_charge
P1    P     P_3+3 0.082480 0.557670 0.610090 0.462570
O1    O     O_2   0.913240 0.537010 0.617740 -0.332417
O2    O     O_3   0.145240 0.536960 0.557560 -0.384626
O3    O     O_3   0.669960 0.410470 0.588880 -0.317239
O4    O     O_2   0.795014 0.463977 0.670780 -0.344844
O5    O     O_3   0.035290 0.649264 0.614323 -0.674395
O6    O     O_3   0.679091 0.354060 0.688642 -0.477078
C1    C     C_3   0.599485 0.253854 0.724410 -0.937097
H1    H     H_    0.716236 0.224791 0.718927 0.245672
H2    H     H_    0.603962 0.282821 0.762290 0.291747
P2    P     P_3+3 0.635220 0.340300 0.462910 0.517130
P3    P     P_3+3 0.112884 0.288316 0.537685 0.500590
O7    O     O_2   0.812980 0.329910 0.477500 -0.320234
O8    O     O_3   0.078660 0.374870 0.564770 -0.336496
O9    O     O_2   0.085879 0.297649 0.480792 -0.340858
O10   O     O_3   0.622523 0.316795 0.398260 -0.591265
O11   O     O_3   0.968096 0.233276 0.549906 -0.547683
C2    C     C_3   0.007145 0.203340 0.596148 1.011992
H3    H     H_    0.134876 0.186705 0.600021 -0.060770
C3    C     C_3   0.919458 0.136078 0.596342 -0.723239
H4    H     H_    0.791062 0.148790 0.591256 0.211935
C4    C     C_3   0.242682 0.317652 0.357758 0.399326
H5    H     H_    0.354440 0.340506 0.369699 0.136922
C5    C     C_3   0.208472 0.325030 0.301376 -0.964607
H6    H     H_    0.241421 0.376874 0.291696 0.254360
H7    H     H_    0.278479 0.283925 0.278389 0.253215
H8    H     H_    0.082880 0.320499 0.290655 0.306509
Ba1   Ba    Ba6+2 0.854000 0.466860 0.523710 1.632415
C6    C     C_3   0.169064 0.688286 0.619225 0.896963
H9    H     H_    0.271925 0.654973 0.605504 0.056174
C7    C     C_3   0.210669 0.713539 0.675478 -0.701157
H10   H     H_    0.282124 0.669295 0.692174 0.047691
C8    C     C_3   0.711338 0.358764 0.372730 0.068265
H11   H     H_    0.822707 0.370396 0.393602 0.156915
H12   H     H_    0.637704 0.408266 0.367573 0.030179
C9    C     C_3   0.752513 0.322387 0.320747 0.243211
H13   H     H_    0.812176 0.361924 0.302238 0.012797
P4    P     P_3+3 0.107220 0.442270 0.389900 0.525010
O12   O     O_2   0.276450 0.462960 0.382230 -0.378251
O13   O     O_3   0.044470 0.462980 0.442430 -0.322591
O14   O     O_3   0.519740 0.589470 0.411120 -0.351156
O15   O     O_3   0.119422 0.349404 0.386785 -0.549562
P5    P     P_3+3 0.082235 0.718367 0.434284 0.563914
O16   O     O_3   0.632420 0.583650 0.524140 -0.396191
O17   O     O_3   0.111040 0.625070 0.435230 -0.341881
O18   O     O_2   0.203690 0.745369 0.474401 -0.307369
O19   O     O_3   0.163216 0.744053 0.379904 -0.576256
Ba2   Ba    Ba6+2 0.335820 0.533080 0.476290 1.642486
P6    P     P_3+3 0.644533 0.429040 0.653714 0.516301
C10   C     C_3   0.560872 0.305578 0.683407 0.523126
H14   H     H_    0.509790 0.214772 0.723616 0.197199
O20   O     O_3   0.557280 0.416300 0.475860 -0.380913
C11   C     C_3   0.596977 0.637342 0.632465 0.300494
H15   H     H_    0.487697 0.622752 0.646920 -0.039374
H16   H     H_    0.649333 0.590075 0.611176 0.145609
C12   C     C_3   0.710421 0.656687 0.676619 -0.629599
H17   H     H_    0.772334 0.608140 0.690602 0.195920
H18   H     H_    0.797319 0.689310 0.662877 0.235419
P7    P     P_3+3 0.557361 0.672014 0.539003 0.486243
O21   O     O_2   0.376710 0.670070 0.522470 -0.325893
O22   O     O_3   0.562602 0.695915 0.603990 -0.519790
H19   H     H_    0.942130 0.112303 0.632866 0.188643
C13   C     C_3   0.064739 0.747279 0.335718 0.769528
C14   C     C_3   0.991469 0.824030 0.334842 0.222700
H20   H     H_    0.907744 0.834541 0.365125 0.124728
H21   H     H_    0.088636 0.859458 0.343788 0.086444
P8    P     P_3+3 0.529260 0.580659 0.345618 0.479941
C15   C     C_3   0.568927 0.719654 0.351227 0.088922
H22   H     H_    0.689335 0.702600 0.364710 0.109974
O23   O     O_2   0.372279 0.550095 0.327665 -0.384167
O24   O     O_3   0.499811 0.664241 0.321475 -0.588739
C16   C     C_3   0.570097 0.780601 0.316578 0.271130
H23   H     H_    0.448195 0.790856 0.300944 0.120603
H24   H     H_    0.642855 0.764044 0.284102 0.122008
C17   C     C_R   0.030776 0.453934 0.179621 0.546133
O25   O     O_2   0.076716 0.402904 0.202742 -0.599599
N1    N     N_R   0.925964 0.505859 0.201132 -0.162859
C18   C     C_R   0.866176 0.561075 0.172883 0.516873
C19   C     C_2   0.731274 0.515593 0.266790 -0.239894
C20   C     C_3   0.689934 0.514385 0.321147 0.101905
C21   C     C_1   0.971181 0.484450 0.341985 0.225919
C22   C     C_2   0.008097 0.489510 0.294671 -0.240055
C23   C     C_2   0.882924 0.502915 0.253467 0.119676
C24   C     C_R   0.028243 0.516065 0.102947 -0.070750
C25   C     C_R   0.084011 0.458714 0.130751 -0.059573
C26   C     C_R   0.189452 0.406447 0.108586 -0.084519
C27   C     C_R   0.916489 0.566764 0.123871 -0.018919
C28   C     C_2   0.830939 0.508411 0.357527 -0.301735
H25   H     H_    0.130061 0.490134 0.286059 0.173093
H26   H     H_    0.229605 0.359970 0.127859 0.170896
C29   C     C_2   0.335520 0.486706 0.643582 -0.475357
C30   C     C_R   0.266246 0.482651 0.987253 -0.015945
C31   C     C_R   0.062787 0.579143 0.974010 0.015761
C32   C     C_R   0.186672 0.531463 0.955340 0.083305
C33   C     C_R   0.407962 0.445717 0.970655 -0.257969
C34   C     C_R   0.439798 0.440246 0.919105 0.568613
C35   C     C_R   0.353139 0.484736 0.885648 -0.195321
C36   C     C_R   0.231919 0.532935 0.904620 -0.185058
C37   C     C_R   0.154982 0.582168 0.872786 -0.201041
C38   C     C_R   0.199851 0.581723 0.822313 0.594233
N2    N     N_R   0.307411 0.530110 0.802434 -0.173236
C39   C     C_R   0.386825 0.483152 0.833894 0.605885
C40   C     C_2   0.470551 0.511392 0.728505 -0.194317
C41   C     C_3   0.488235 0.498716 0.672105 0.075330
C42   C     C_1   0.205821 0.518585 0.661278 0.124146
C43   C     C_2   0.183904 0.520488 0.710692 0.480152
C44   C     C_2   0.325964 0.521703 0.747744 -0.000694
O26   O     O_2   0.484973 0.438953 0.816610 -0.515384
C45   C     C_R   0.201730 0.472961 0.034342 0.099557
C46   C     C_R   0.082975 0.522286 0.053902 0.066878
C47   C     C_R   0.017483 0.577290 0.024661 0.085683
C48   C     C_R   0.244800 0.412840 0.061123 -0.126067
H27   H     H_    0.575746 0.514647 0.752997 0.176766
H28   H     H_    0.319104 0.368970 0.045213 0.113264
O27   O     O_2   0.769886 0.605988 0.190420 -0.620094
C49   C     C_R   0.858357 0.622901 0.095579 -0.053584
H29   H     H_    0.636638 0.523139 0.238486 0.190846
H30   H     H_    0.773843 0.663478 0.110810 0.166042
C50   C     C_R   0.986587 0.626682 0.941052 -0.369421
C51   C     C_R   0.033544 0.630076 0.892019 0.670359
O28   O     O_2   0.142786 0.627342 0.795827 -0.570312
C52   C     C_R   0.907127 0.628054 0.047161 -0.201955
H31   H     H_    0.885651 0.661188 0.951632 0.155065
H32   H     H_    0.858251 0.673645 0.028732 0.126573
H33   H     H_    0.801249 0.499104 0.394991 0.183153
H34   H     H_    0.333074 0.451850 0.609246 0.167017
C53   C     C_R   0.415540 0.300816 0.522856 -0.311190
C54   C     C_R   0.549065 0.277140 0.497821 0.410376
C55   C     C_R   0.596785 0.204823 0.492237 -0.190493
C56   C     C_R   0.503643 0.155848 0.510147 0.064367
C57   C     C_R   0.358509 0.180335 0.529929 -0.272846
C58   C     C_R   0.315778 0.253122 0.536396 0.105635
C59   C     C_R   0.554919 0.040557 0.548378 -0.260823
C60   C     C_R   0.608000 0.968563 0.546268 -0.046274
C61   C     C_R   0.652659 0.933438 0.499388 0.125262
C62   C     C_R   0.643465 0.972585 0.456758 -0.169896
C63   C     C_R   0.596971 0.044694 0.460054 -0.194804
C64   C     C_R   0.552122 0.079238 0.505891 0.168558
C65   C     C_R   0.853691 0.832962 0.470630 -0.213058
C66   C     C_R   0.892974 0.758772 0.461251 0.210357
C67   C     C_R   0.659923 0.735234 0.505292 0.114681
C68   C     C_R   0.611581 0.806994 0.508566 -0.045521
C69   C     C_R   0.707803 0.856620 0.492795 -0.002484
C70   C     C_R   0.799430 0.712047 0.481823 -0.495128
H35   H     H_    0.502073 0.824667 0.525823 0.174508
H36   H     H_    0.521655 0.067685 0.583981 0.113963
H37   H     H_    0.702829 0.186905 0.473074 0.106222
H38   H     H_    0.676464 0.947123 0.420839 0.152660
H39   H     H_    0.594289 0.073375 0.426628 0.138776
H40   H     H_    0.276708 0.142514 0.536860 0.126092
H41   H     H_    0.377027 0.356512 0.525309 0.138117
C71   C     C_2   0.565812 0.262251 0.633887 0.392753
H42   H     H_    0.487358 0.220480 0.625981 -0.066413
O29   O     O_2   0.659050 0.271998 0.602937 -0.507768
O30   O     O_3   0.149765 0.744189 0.586851 -0.602836
C72   C     C_3   0.009885 0.787567 0.594421 0.041494
H43   H     H_    0.011192 0.816114 0.632238 0.169647
H44   H     H_    0.903931 0.757645 0.587541 0.124673
H45   H     H_    0.001978 0.828442 0.567083 0.158161
C73   C     C_2   0.310006 0.776175 0.682850 0.737454
H46   H     H_    0.342063 0.796507 0.720884 0.033842
O31   O     O_2   0.356260 0.804318 0.647657 -0.516167
C74   C     C_2   0.069085 0.725793 0.707164 0.588506
H47   H     H_    0.011675 0.680626 0.716715 0.114911
O32   O     O_2   0.020622 0.784795 0.723681 -0.561868
O33   O     O_3   0.862256 0.262009 0.322265 -0.604005
C75   C     C_3   0.816231 0.209256 0.351239 0.012898
H48   H     H_    0.850142 0.221479 0.391578 0.137951
H49   H     H_    0.881216 0.158483 0.339108 0.095105
H50   H     H_    0.689078 0.201167 0.346214 0.181093
C76   C     C_2   0.609596 0.309621 0.286756 0.568155
H51   H     H_    0.521627 0.352985 0.281298 -0.059027
O34   O     O_2   0.593970 0.252427 0.263735 -0.560542
C77   C     C_2   0.396774 0.339881 0.690038 0.384751
H52   H     H_    0.316862 0.347060 0.657483 -0.061477
O35   O     O_2   0.351575 0.359655 0.731781 -0.573216
C78   C     C_2   0.629372 0.696143 0.719901 0.680444
H53   H     H_    0.542490 0.671390 0.738972 -0.045203
O36   O     O_2   0.662458 0.755625 0.734574 -0.531120
C79   C     C_2   0.174569 0.729539 0.292394 0.385621
H54   H     H_    0.233873 0.677220 0.288061 0.111115
O37   O     O_2   0.190509 0.770879 0.260832 -0.601300
O38   O     O_3   0.946636 0.698849 0.335538 -0.682590
C80   C     C_3   0.898246 0.671521 0.286828 -0.230860
H55   H     H_    0.986087 0.629683 0.272744 0.142606
H56   H     H_    0.879500 0.712302 0.259358 0.205182
H57   H     H_    0.786240 0.647821 0.288870 0.213143
O39   O     O_3   0.910977 0.835799 0.288107 -0.595917
C81   C     C_3   0.923596 0.905631 0.276052 -0.112090
H58   H     H_    0.045533 0.912715 0.266224 0.154388
H59   H     H_    0.887644 0.944754 0.307391 0.095011
H60   H     H_    0.844683 0.916038 0.242636 0.151128
C82   C     C_2   0.477864 0.744460 0.397198 0.612846
H61   H     H_    0.454826 0.708149 0.424004 0.092990
O40   O     O_2   0.430247 0.806253 0.405994 -0.533097
O41   O     O_3   0.626484 0.841824 0.342521 -0.599770
C83   C     C_3   0.560110 0.902230 0.319479 -0.107568
H62   H     H_    0.433840 0.912462 0.327653 0.152482
H63   H     H_    0.574027 0.897070 0.278093 0.124984
H64   H     H_    0.620903 0.948775 0.335150 0.124182
O42   O     O_3   0.959550 0.253035 0.636002 -0.545870
C84   C     C_3   0.047592 0.240547 0.681188 -0.252322
H65   H     H_    0.012874 0.283062 0.710217 0.198435
H66   H     H_    0.175608 0.241457 0.676690 0.093618
H67   H     H_    0.022194 0.189946 0.695464 0.121928
O43   O     O_3   0.568585 0.397278 0.902810 -0.595406
C85   C     C_3   0.523169 0.327808 0.893262 -0.160019
H68   H     H_    0.489336 0.306241 0.928196 0.080499
H69   H     H_    0.624635 0.293609 0.878729 0.169722
H70   H     H_    0.425192 0.324965 0.864060 0.162860
C86   C     C_2   0.538116 0.422551 0.006529 0.546028
H71   H     H_    0.624183 0.379908 0.995376 0.046481
O44   O     O_2   0.555703 0.453627 0.048080 -0.571981
O45   O     O_3   0.948135 0.675997 0.861342 -0.583025
C87   C     C_3   0.995771 0.744552 0.873669 -0.092202
H72   H     H_    0.935229 0.780287 0.846717 0.198487
H73   H     H_    0.124510 0.746284 0.870228 0.126275
H74   H     H_    0.961893 0.764981 0.912100 0.090043
O46   O     O_3   0.034098 0.518547 0.727390 -0.613575
C88   C     C_3   0.022942 0.453910 0.748838 0.045754
H75   H     H_    0.045896 0.408460 0.720660 0.148775
H76   H     H_    0.901763 0.452471 0.761244 0.161676
H77   H     H_    0.101363 0.447537 0.782797 0.077132
C89   C     C_2   0.619589 0.934682 0.594545 0.568505
H78   H     H_    0.554568 0.959053 0.626072 0.040075
O47   O     O_2   0.705423 0.881492 0.600748 -0.597976
C90   C     C_2   0.967923 0.886544 0.464396 0.494093
H79   H     H_    0.945302 0.940448 0.479926 0.061243
O48   O     O_2   0.090100 0.872190 0.443161 -0.538207
C91   C     C_2   0.860494 0.639287 0.485951 0.750439
H80   H     H_    0.936697 0.625347 0.517869 0.051817
O49   O     O_2   0.826105 0.594437 0.453233 -0.577774
C92   C     C_2   0.969790 0.082623 0.554694 0.517663
H81   H     H_    0.946755 0.094282 0.515741 0.039987
O50   O     O_2   0.035735 0.025698 0.564279 -0.572793
C93   C     C_2   0.260829 0.240745 0.367013 0.536509
H82   H     H_    0.164005 0.208108 0.357506 0.052128
O51   O     O_2   0.383535 0.214299 0.385315 -0.637412

loop_
_geom_bond_atom_site_label_1
_geom_bond_atom_site_label_2
_geom_bond_distance
_ccdc_geom_bond_type
C18   C27   1.416124 A    
N2    C44   1.471971 S    
P4    O13   1.539266 S    
C76   H51   1.083885 S    
O8    Ba1   2.736608 S    
N2    C39   1.388462 Am   
C29   H34   1.087335 S    
C83   H64   1.107372 S    
C33   C34   1.411989 A    
P2    O7    1.548956 D    
O42   C84   1.412283 S    
C29   C42   1.312393 D    
C74   H47   1.082393 S    
C72   H45   1.107251 S    
C24   C27   1.405955 A    
C29   C41   1.499663 S    
C17   O25   1.221311 D    
C63   H39   1.083276 S    
C54   C55   1.403780 A    
P6    C41   1.860801 S    
C48   H28   1.080247 S    
C21   C22   1.332658 D    
C61   C62   1.407602 A    
C75   H49   1.109021 S    
C4    O15   1.409515 S    
N1    C18   1.392141 Am   
C93   H82   1.084361 S    
C76   O34   1.220931 D    
C6    H9    1.102786 S    
C22   H25   1.082547 S    
C84   H66   1.110442 S    
C70   C91   1.452276 S    
C9    H13   1.108993 S    
C40   H27   1.085262 S    
C5    H7    1.110396 S    
C2    H3    1.113528 S    
C87   H73   1.114064 S    
O19   C13   1.412986 S    
P4    O12   1.561549 D    
C30   C45   1.433396 A    
O17   Ba2   2.737251 S    
C43   C44   1.523688 S    
C32   C36   1.432709 A    
O16   P7    1.774144 S    
C51   O45   1.384237 S    
C35   C36   1.413896 A    
O2    Ba2   2.779979 S    
C87   H74   1.112298 S    
C8    C9    1.544871 S    
C12   H17   1.109199 S    
C2    C3    1.541058 S    
C65   C90   1.498124 S    
P1    O1    1.561326 D    
O41   C83   1.413283 S    
C83   H63   1.113550 S    
C90   H79   1.082583 S    
C46   C47   1.418643 A    
P2    O20   1.564188 S    
C53   H41   1.083527 S    
C37   C51   1.414555 A    
C77   H52   1.085627 S    
C65   C69   1.433993 A    
C17   C25   1.418788 A    
Ba1   Ba2   4.683651 S    
C37   C38   1.421335 A    
C93   O51   1.220288 D    
C15   H22   1.103510 S    
C82   O40   1.222727 D    
C84   H67   1.109514 S    
P3    O11   1.751412 S    
P1    Ba1   3.397440 S    
C5    H8    1.104999 S    
O7    Ba1   2.836385 S    
C39   O26   1.220264 D    
C15   C82   1.512456 S    
C12   H18   1.105566 S    
C92   H81   1.085414 S    
C45   C46   1.416994 A    
P4    Ba2   3.398198 S    
C7    C73   1.517781 S    
C82   H61   1.073733 S    
C6    O30   1.421236 S    
C61   C69   1.500619 S    
C43   O46   1.385237 S    
C59   C64   1.402045 A    
C89   H78   1.085711 S    
C47   C52   1.415537 A    
C68   H35   1.083399 S    
O4    P6    1.529147 D    
C81   H58   1.112003 S    
C11   O22   1.405078 S    
C88   H76   1.109456 S    
C88   H75   1.111899 S    
O3    Ba1   2.752248 S    
C79   O37   1.221872 D    
Ba2   O21   2.836592 S    
C75   H50   1.110859 S    
C12   C78   1.497123 S    
C11   H16   1.101196 S    
C65   C66   1.431805 A    
C7    C74   1.507863 S    
P7    O22   1.756274 S    
C13   O38   1.425489 S    
C84   H65   1.108175 S    
C85   H68   1.112648 S    
N1    C23   1.471962 S    
C8    H11   1.105903 S    
C24   C25   1.408268 A    
O6    P6    1.767360 S    
C18   O27   1.220738 D    
C16   H24   1.105355 S    
C26   H26   1.083409 S    
C67   C70   1.400997 A    
O46   C88   1.414932 S    
O45   C87   1.410401 S    
C1    H1    1.111911 S    
C78   O36   1.220588 D    
C11   H15   1.097125 S    
Ba1   O16   2.800877 S    
C30   C33   1.424070 A    
C24   C46   1.432962 A    
C13   C79   1.529853 S    
P1    O5    1.756019 S    
O39   C81   1.410882 S    
P1    O2    1.539295 S    
C73   O31   1.220743 D    
C81   H60   1.109062 S    
C26   C48   1.396059 A    
C87   H72   1.109460 S    
O38   C80   1.413472 S    
C28   H33   1.078359 S    
O10   C8    1.391454 S    
C85   H70   1.113720 S    
P5    O17   1.778617 S    
P2    O10   1.746841 S    
C34   O43   1.384972 S    
C86   H71   1.084603 S    
P3    O9    1.546402 D    
Ba2   O20   2.800107 S    
C15   C16   1.546168 S    
C34   C35   1.418902 A    
C3    H4    1.108046 S    
C30   C32   1.419945 A    
O11   C2    1.414533 S    
C27   C49   1.402667 A    
P5    C66   1.887901 S    
C31   C32   1.421732 A    
C62   H38   1.079688 S    
C5    H6    1.105892 S    
C91   O49   1.213039 D    
O16   Ba2   2.974301 S    
C53   C58   1.381618 A    
C1    H14   1.112685 S    
C25   C26   1.403274 A    
C14   O39   1.416053 S    
C49   C52   1.394499 A    
P1    C42   1.846953 S    
C31   C47   1.431978 A    
C4    C93   1.502116 S    
C1    H2    1.111911 S    
C86   O44   1.221521 D    
P3    O8    1.755077 S    
C3    C92   1.501361 S    
C60   C89   1.484237 S    
C22   C23   1.513301 S    
P4    C21   1.866481 S    
C59   C60   1.407589 A    
C4    C5    1.533129 S    
C19   C20   1.515785 S    
C45   C48   1.413658 A    
C52   H32   1.077147 S    
C57   C58   1.404990 A    
C56   C64   1.482300 S    
C1    C10   1.538069 S    
C75   H48   1.110448 S    
C79   H54   1.081356 S    
C55   C56   1.407431 A    
C42   C43   1.340323 D    
C11   C12   1.525511 S    
O13   Ba2   2.988202 S    
O2    Ba1   2.987343 S    
C9    C76   1.505481 S    
P3    C58   1.808837 S    
C74   O32   1.222000 D    
O43   C85   1.411769 S    
C7    H10   1.108929 S    
P8    C20   1.893877 S    
C66   C70   1.410468 A    
O6    C10   1.421087 S    
C71   O29   1.216361 D    
C16   H23   1.109167 S    
C89   O47   1.218630 D    
C16   O41   1.414371 S    
C40   C44   1.359152 D    
C50   C51   1.399308 A    
P4    O15   1.761623 S    
C60   C61   1.426088 A    
C50   H31   1.076955 S    
C63   C64   1.398650 A    
C80   H56   1.108974 S    
C80   H57   1.099724 S    
O3    P6    1.760054 S    
C10   C77   1.511564 S    
P8    O23   1.545083 D    
C33   C86   1.489807 S    
C14   H20   1.105327 S    
C72   H44   1.110402 S    
P2    C54   1.811130 S    
C91   H80   1.080591 S    
C20   C28   1.508209 S    
C90   O48   1.217527 D    
C67   C68   1.393628 A    
C73   H46   1.085420 S    
C19   C23   1.361545 D    
Ba1   O20   2.975109 S    
C4    H5    1.104167 S    
O33   C75   1.413548 S    
P2    Ba1   3.426541 S    
C15   O24   1.418408 S    
C19   H29   1.084748 S    
C38   N2    1.383439 Am   
C8    H12   1.104220 S    
O14   Ba2   2.751592 S    
C49   H30   1.083582 S    
C56   C57   1.405250 A    
C2    O42   1.419025 S    
P8    O24   1.762796 S    
O14   P8    1.749045 S    
C3    H19   1.109934 S    
C83   H62   1.112246 S    
P5    O18   1.538075 D    
C77   O35   1.220106 D    
C55   H37   1.083112 S    
C21   C28   1.324150 D    
O1    Ba1   2.786558 S    
C78   H53   1.085101 S    
C9    O33   1.425224 S    
C13   C14   1.545088 S    
C10   C71   1.500828 S    
P7    O21   1.585970 D    
O5    C6    1.411684 S    
C72   H43   1.106755 S    
C71   H42   1.084924 S    
P7    C67   1.866833 S    
C6    C7    1.569516 S    
C36   C37   1.415385 A    
C17   N1    1.389049 Am   
C92   O50   1.220654 D    
C40   C41   1.519400 S    
C85   H69   1.109271 S    
Ba1   O13   2.779603 S    
C68   C69   1.410517 A    
C62   C63   1.396654 A    
C57   H40   1.080468 S    
C80   H55   1.106502 S    
C59   H36   1.084771 S    
C31   C50   1.410747 A    
C81   H59   1.112985 S    
O30   C72   1.410886 S    
P5    O19   1.766037 S    
C35   C39   1.424993 A    
C88   H77   1.105851 S    
C53   C54   1.380359 A    
C14   H21   1.118524 S    
O12   Ba2   2.787189 S    
C38   O28   1.219706 D    
