data_mof_unit_44050.cif
_audit_creation_date              2012-12-10T19:05:50-0500
_audit_creation_method            fapswitch 2.2
_symmetry_space_group_name_H-M    P1
_symmetry_Int_Tables_number       1
_space_group_crystal_system       triclinic
_cell_length_a                    19.317849
_cell_length_b                    10.8442
_cell_length_c                    9.589514
_cell_angle_alpha                 90.980201
_cell_angle_beta                  89.727656
_cell_angle_gamma                 92.311976
_cell_volume                      2006.92927736

loop_
_atom_site_label
_atom_site_type_symbol
_atom_type_description
_atom_site_fract_x
_atom_site_fract_y
_atom_site_fract_z
_atom_type_partial_charge
C1    C     C_R   0.499087 0.262466 0.498985 0.874091
C2    C     C_R   0.291221 0.503119 0.498359 -0.164559
C3    C     C_R   0.930781 0.544691 0.498644 0.405046
C4    C     C_R   0.071095 0.541864 0.496624 0.446829
C5    C     C_R   0.817735 0.520797 0.624063 -0.148699
C6    C     C_R   0.745681 0.508566 0.624289 -0.193543
C7    C     C_R   0.708831 0.512480 0.498830 -0.025933
C8    C     C_R   0.745404 0.529937 0.373187 -0.185965
C9    C     C_R   0.817547 0.543126 0.373091 -0.151470
C10   C     C_R   0.854413 0.537972 0.498494 0.060219
C11   C     C_R   0.483255 0.065582 0.621349 0.137278
C12   C     C_R   0.367375 0.498310 0.500121 0.904488
C13   C     C_R   0.491659 0.129118 0.496940 -0.088648
C14   C     C_R   0.489886 0.061659 0.370617 -0.164451
C15   C     C_R   0.489866 0.933043 0.372024 -0.214545
C16   C     C_R   0.492067 0.870719 0.499711 -0.103268
C17   C     C_R   0.483421 0.938690 0.623107 0.153565
C18   C     C_3   0.523015 0.940779 0.756585 -0.489500
C19   C     C_3   0.522108 0.080368 0.754756 -0.464903
C20   C     C_R   0.556648 0.543478 0.074060 0.178512
C21   C     C_R   0.448816 0.436209 0.069955 0.436389
C22   C     C_R   0.449258 0.440466 0.922130 -0.110633
C23   C     C_R   0.498865 0.737696 0.500649 0.780559
C24   C     C_R   0.557007 0.541984 0.927296 0.231386
C25   C     C_3   0.591549 0.666824 0.923278 -0.488786
C26   C     C_3   0.590465 0.669062 0.081807 -0.468588
C27   C     C_R   0.632590 0.502648 0.499632 0.762609
C28   C     C_R   0.247189 0.427736 0.582697 0.402697
C29   C     C_R   0.175930 0.444170 0.581591 -0.178054
C30   C     C_R   0.146667 0.529616 0.494148 -0.032819
C31   C     C_R   0.189711 0.599731 0.405367 -0.109583
C32   C     C_R   0.261386 0.587244 0.408442 -0.165520
Cu1   Cu    Cu3+1 0.500000 0.499980 0.640670 0.977363
Cu2   Cu    Cu3+1 0.500000 0.500020 0.359330 1.007984
H1    H     H_    0.491642 0.883552 0.273212 0.165565
H2    H     H_    0.491673 0.901139 0.843680 0.209358
H3    H     H_    0.576008 0.905813 0.743172 0.197082
H4    H     H_    0.490016 0.120166 0.839556 0.218828
H5    H     H_    0.574356 0.125582 0.741161 0.198508
H6    H     H_    0.408275 0.395830 0.862039 0.239030
H7    H     H_    0.644591 0.664948 0.878062 0.191346
H8    H     H_    0.557460 0.734110 0.877595 0.212946
H9    H     H_    0.643010 0.668572 0.128319 0.190485
H10   H     H_    0.142702 0.387723 0.648332 0.201340
H11   H     H_    0.556027 0.739186 0.126699 0.208093
H12   H     H_    0.168184 0.665947 0.336103 0.171836
H13   H     H_    0.293868 0.645061 0.341724 0.175473
H14   H     H_    0.844668 0.516670 0.722547 0.156692
H15   H     H_    0.718933 0.495811 0.722833 0.148211
H16   H     H_    0.718357 0.533775 0.274836 0.145544
H17   H     H_    0.844410 0.555442 0.274635 0.155712
H18   H     H_    0.492172 0.107655 0.271233 0.191390
N1    N     N_R   0.036496 0.579028 0.382865 -0.212715
N2    N     N_R   0.967523 0.580081 0.383795 -0.228578
N3    N     N_R   0.965655 0.509991 0.612855 -0.228484
N4    N     N_R   0.034336 0.508319 0.611708 -0.217967
N5    N     N_R   0.500440 0.500930 0.147930 -0.249714
N6    N     N_R   0.500440 0.500890 0.852020 -0.226843
O1    O     O_R   0.500000 0.319640 0.618810 -0.577260
O2    O     O_R   0.500010 0.319680 0.381230 -0.539296
O3    O     O_R   0.400140 0.499970 0.618830 -0.547325
O4    O     O_R   0.400150 0.500010 0.381250 -0.515778
O5    O     O_R   0.499990 0.680320 0.618770 -0.579203
O6    O     O_R   0.500000 0.680360 0.381190 -0.593928
O7    O     O_R   0.599850 0.499990 0.618750 -0.587425
O8    O     O_R   0.599860 0.500030 0.381170 -0.589077
S1    S     S_3+6 0.275829 0.310814 0.691492 0.017762
O9    O     O_2   0.279658 0.363782 0.836904 -0.232043
O10   O     O_2   0.223724 0.203997 0.689129 -0.262640
O11   O     O_3   0.353067 0.259231 0.642140 -0.561704
H19   H     H_    0.365065 0.200186 0.715005 0.376541
S2    S     S_3+6 0.375018 0.349204 0.135371 0.042863
O12   O     O_2   0.315882 0.434803 0.146165 -0.264427
O13   O     O_2   0.355976 0.249038 0.030502 -0.279675
O14   O     O_3   0.382801 0.277869 0.287630 -0.511267
H20   H     H_    0.335449 0.246089 0.311126 0.381198

loop_
_geom_bond_atom_site_label_1
_geom_bond_atom_site_label_2
_ccdc_geom_bond_type
N3    N4    A    
Cu1   N6    S    
C4    N1    A    
C9    H17   S    
C2    C12   S    
Cu2   O8    S    
Cu1   O7    S    
C7    C8    A    
N1    N2    A    
C11   C19   S    
C28   C29   A    
C18   H3    S    
C1    O1    A    
C5    C6    A    
C3    N2    A    
C15   C16   A    
Cu2   O4    S    
C7    C27   S    
C2    C32   A    
C18   C19   S    
C26   H11   S    
C3    N3    A    
C14   H18   S    
C20   C24   A    
C8    C9    A    
C31   H12   S    
Cu2   N5    S    
O11   H19   S    
C9    C10   A    
C23   O5    A    
Cu1   O1    S    
C21   C22   A    
C4    N4    A    
Cu2   O2    S    
S2    O14   S    
C15   H1    S    
C26   H9    S    
C17   C18   S    
C5    H14   S    
C21   S2    S    
S1    O9    D    
C28   S1    S    
C24   C25   S    
S2    O13   D    
C1    O2    A    
C25   H7    S    
C16   C17   A    
C25   C26   S    
S1    O10   D    
O14   H20   S    
C21   N5    A    
C29   C30   A    
C27   O7    A    
C19   H4    S    
C12   O4    A    
C31   C32   A    
Cu1   O5    S    
C22   H6    S    
Cu2   O6    S    
Cu1   Cu2   S    
C19   H5    S    
Cu1   O3    S    
C23   O6    A    
C16   C23   S    
C29   H10   S    
C32   H13   S    
C1    C13   S    
C8    H16   S    
C11   C17   A    
S2    O12   D    
C25   H8    S    
C22   N6    A    
C6    C7    A    
S1    O11   S    
C5    C10   A    
C27   O8    A    
C12   O3    A    
C11   C13   A    
C30   C31   A    
C20   C26   S    
C6    H15   S    
C24   N6    A    
C3    C10   S    
C14   C15   A    
C2    C28   A    
C20   N5    A    
C13   C14   A    
C18   H2    S    
C4    C30   S    
