data_mof_unit_53476.cif
_audit_creation_date              2013-03-05T15:53:36-0500
_audit_creation_method            fapswitch 2.2
_symmetry_space_group_name_H-M    P1
_symmetry_Int_Tables_number       1
_space_group_crystal_system       triclinic
_cell_length_a                    9.927815
_cell_length_b                    10.680757
_cell_length_c                    13.610257
_cell_angle_alpha                 91.876938
_cell_angle_beta                  82.627497
_cell_angle_gamma                 88.997232
_cell_volume                      1430.14322771

loop_
_atom_site_label
_atom_site_type_symbol
_atom_site_description
_atom_site_fract_x
_atom_site_fract_y
_atom_site_fract_z
_atom_type_partial_charge
O1    O     O_R   0.385310 0.683220 0.500000 -0.653143
O2    O     O_R   0.614640 0.683250 0.500010 -0.647156
C1    C     C_R   0.498015 0.741341 0.498482 0.890159
O3    O     O_R   0.368830 0.499960 0.640340 -0.641120
O4    O     O_R   0.598160 0.499980 0.640350 -0.618850
C2    C     C_R   0.475258 0.500724 0.685702 0.872267
Zn1   Zn    Zn3+2 0.346870 0.499980 0.499990 0.940389
Zn2   Zn    Zn3+2 0.653130 0.500020 0.500010 1.035141
O5    O     O_R   0.385360 0.316750 0.499990 -0.623612
O6    O     O_R   0.614690 0.316780 0.500000 -0.538736
O7    O     O_R   0.401840 0.500020 0.359650 -0.617836
O8    O     O_R   0.631170 0.500040 0.359660 -0.554596
C3    C     C_R   0.498247 0.263146 0.516647 0.911220
C4    C     C_R   0.524725 0.499648 0.314308 0.912694
C5    C     C_1   0.543894 0.500093 0.210262 -0.115794
C6    C     C_2   0.558791 0.501332 0.018300 -0.152741
C7    C     C_2   0.441242 0.503972 0.981746 -0.152730
C8    C     C_1   0.444336 0.503137 0.877736 0.044678
C9    C     C_1   0.555663 0.500635 0.122291 0.048789
C10   C     C_1   0.456067 0.502026 0.789742 -0.125318
H1    H     H_    0.344219 0.506027 0.029086 0.173585
H2    H     H_    0.655814 0.499081 0.970947 0.173953
H3    H     H_    0.709341 0.883216 0.510639 0.200446
C11   C     C_R   0.237229 0.898880 0.510022 -0.165894
H4    H     H_    0.223978 0.814742 0.466977 0.176437
C12   C     C_R   0.117964 0.962685 0.549408 -0.083515
H5    H     H_    0.021026 0.920691 0.542962 0.182341
C13   C     C_R   0.123893 0.078055 0.598604 -0.076528
H6    H     H_    0.031676 0.126015 0.632185 0.194747
C14   C     C_R   0.248838 0.134150 0.600736 -0.122408
H7    H     H_    0.250592 0.225347 0.637684 0.157517
C15   C     C_R   0.370038 0.072127 0.557265 0.068174
C16   C     C_R   0.366171 0.946847 0.523861 0.122086
C17   C     C_R   0.491472 0.877091 0.506911 -0.167210
C18   C     C_R   0.614177 0.935924 0.516773 -0.285827
C19   C     C_R   0.617259 0.062877 0.536385 0.342834
C20   C     C_R   0.495321 0.132888 0.544068 -0.261620
C21   C     C_R   0.834879 0.659637 0.634829 -0.114290
H8    H     H_    0.728054 0.671360 0.636075 0.205393
C22   C     C_R   0.892032 0.735164 0.702957 -0.309752
H9    H     H_    0.826572 0.797140 0.753530 0.161360
C23   C     C_R   0.031700 0.733291 0.704727 -0.001567
C24   C     C_R   0.114120 0.655465 0.636328 -0.134668
H10   H     H_    0.220897 0.661887 0.636214 0.234532
C25   C     C_R   0.059176 0.576125 0.567764 0.084148
C26   C     C_R   0.914874 0.576795 0.567533 0.112678
N1    N     N_R   0.857120 0.501200 0.500900 -0.168888
C27   C     C_R   0.942481 0.430502 0.432278 0.374275
H11   H     H_    0.150302 0.372514 0.379180 0.183256
C28   C     C_R   0.085179 0.429104 0.433895 -0.148489
N2    N     N_R   0.142720 0.501280 0.500940 -0.145206
C29   C     C_2   0.090580 0.816568 0.776331 0.412840
H12   H     H_    0.024528 0.877331 0.827739 0.077747
O9    O     O_2   0.213078 0.818769 0.778743 -0.575002
N3    N     N_R   0.744087 0.118446 0.550631 0.221140
O10   O     O_R   0.751677 0.194183 0.626524 -0.413576
O11   O     O_R   0.855052 0.080528 0.495865 -0.399064
N4    N     N_R   0.890104 0.365944 0.352457 0.221630
O12   O     O_R   0.897396 0.244299 0.346618 -0.328862
O13   O     O_R   0.879433 0.426058 0.272154 -0.392456

loop_
_geom_bond_atom_site_label_1
_geom_bond_atom_site_label_2
_geom_bond_distance
_ccdc_geom_bond_type
C7    C8    1.411733 S    
O4    Zn2   1.917998 S    
C21   C22   1.390869 A    
N3    O10   1.301668 A    
C27   N4    1.426371 S    
C14   C15   1.414360 A    
C2    C10   1.403909 S    
C3    C20   1.452028 S    
C11   C16   1.419554 A    
C4    C5    1.404587 S    
C14   H7    1.082916 S    
Zn2   O8    1.950203 S    
C15   C16   1.401815 A    
H11   C28   1.082205 S    
C13   C14   1.390177 A    
O2    C1    1.306843 A    
Zn2   N1    2.027022 S    
Zn1   N2    2.024947 S    
C19   N3    1.434054 S    
O1    Zn1   2.000546 S    
C15   C20   1.406767 A    
C11   H4    1.075899 S    
Zn1   O7    1.917998 S    
C27   C28   1.419497 A    
C24   C25   1.407646 A    
C11   C12   1.392361 A    
C13   H6    1.081813 S    
C12   H5    1.081316 S    
O4    C2    1.294557 A    
H3    C18   1.083763 S    
O3    Zn1   1.950203 S    
C22   C23   1.389707 A    
C19   C20   1.402249 A    
C29   O9    1.221397 D    
C16   C17   1.427738 A    
C8    C10   1.187943 T    
N3    O11   1.298882 A    
C24   H10   1.063286 S    
C6    C9    1.411963 S    
C21   H8    1.063628 S    
O7    C4    1.294472 A    
C7    H1    1.087420 S    
C21   C26   1.410019 A    
C23   C24   1.398971 A    
C25   N2    1.374662 A    
N4    O13   1.300503 A    
N1    C27   1.374378 A    
C25   C26   1.432904 A    
C29   H12   1.085527 S    
O3    C2    1.290359 A    
C17   C18   1.400035 A    
C23   C29   1.479935 S    
Zn1   O5    1.987416 S    
O5    C3    1.298636 A    
C26   N1    1.380151 A    
C22   H9    1.083779 S    
C6    H2    1.087475 S    
C1    C17   1.450353 S    
C28   N2    1.362485 A    
N4    O12   1.299275 A    
C5    C9    1.188196 T    
C12   C13   1.388820 A    
Zn2   O6    2.000544 S    
O2    Zn2   1.987419 S    
C18   C19   1.375005 A    
O8    C4    1.290408 A    
C6    C7    1.326266 D    
O1    C1    1.287238 A    
O6    C3    1.296275 A    
