data_mof_unit_56054.cif
_audit_creation_date              2012-12-10T20:35:48-0500
_audit_creation_method            fapswitch 2.2
_symmetry_space_group_name_H-M    P1
_symmetry_Int_Tables_number       1
_space_group_crystal_system       triclinic
_cell_length_a                    15.745954
_cell_length_b                    10.685208
_cell_length_c                    9.864813
_cell_angle_alpha                 89.924813
_cell_angle_beta                  90.120781
_cell_angle_gamma                 90.164293
_cell_volume                      1659.7309597

loop_
_atom_site_label
_atom_site_type_symbol
_atom_type_description
_atom_site_fract_x
_atom_site_fract_y
_atom_site_fract_z
_atom_type_partial_charge
C1    C     C_R   0.502463 0.260084 0.500300 0.879108
C2    C     C_3   0.950501 0.387701 0.617334 -0.189651
C3    C     C_3   0.917153 0.492964 0.514830 0.101665
C4    C     C_3   0.952816 0.627069 0.552009 -0.222299
C5    C     C_3   0.050105 0.618202 0.571847 -0.375344
C6    C     C_1   0.825508 0.496179 0.506688 0.041645
C7    C     C_1   0.174603 0.496419 0.505311 -0.036206
C8    C     C_1   0.249729 0.498666 0.500954 -0.150311
C9    C     C_R   0.505744 0.063753 0.623927 0.096865
C10   C     C_R   0.514526 0.128767 0.502267 -0.098087
C11   C     C_R   0.537247 0.065172 0.383458 -0.167726
C12   C     C_R   0.338387 0.500269 0.500026 0.918861
C13   C     C_R   0.536535 0.935651 0.382950 -0.177356
C14   C     C_R   0.512176 0.871586 0.500776 -0.083939
C15   C     C_R   0.502139 0.936146 0.621942 0.070780
C16   C     C_3   0.433575 0.930337 0.727497 -0.306145
C17   C     C_3   0.438983 0.073126 0.732105 -0.299664
C18   C     C_R   0.433481 0.548588 0.070999 0.207822
C19   C     C_R   0.568740 0.458401 0.072173 -0.130210
C20   C     C_R   0.568733 0.458387 0.928295 -0.074242
C21   C     C_R   0.433477 0.548755 0.928401 0.220148
C22   C     C_3   0.343398 0.505177 0.922893 -0.397179
C23   C     C_R   0.501676 0.739960 0.499863 0.886472
C24   C     C_3   0.343545 0.504905 0.076569 -0.486429
C25   C     C_R   0.661646 0.500066 0.500166 0.902588
C26   C     C_3   0.050860 0.380207 0.600680 -0.277054
C27   C     C_3   0.048506 0.477372 0.366816 -0.418884
C28   C     C_3   0.951174 0.464711 0.369662 -0.414394
C29   C     C_1   0.750347 0.498349 0.501695 -0.073824
C30   C     C_3   0.083214 0.493192 0.512946 0.189789
H1    H     H_    0.550569 0.114635 0.289894 0.181845
H2    H     H_    0.550026 0.886686 0.289373 0.179945
H3    H     H_    0.455347 0.882295 0.821491 0.176671
H4    H     H_    0.380769 0.122667 0.697156 0.173046
H5    H     H_    0.066180 0.296000 0.538687 0.139370
H6    H     H_    0.336441 0.410416 0.877886 0.252565
H7    H     H_    0.300834 0.576625 0.120885 0.218302
H8    H     H_    0.066651 0.559845 0.303925 0.206908
H9    H     H_    0.076331 0.393143 0.317723 0.193824
H10   H     H_    0.932931 0.369628 0.334999 0.230840
H11   H     H_    0.923413 0.530947 0.294448 0.193042
H12   H     H_    0.067336 0.625043 0.680910 0.242994
N1    N     N_R   0.499430 0.499140 0.142800 -0.115829
N2    N     N_R   0.499430 0.499180 0.857150 -0.113117
O1    O     O_R   0.500010 0.316790 0.614690 -0.616212
O2    O     O_R   0.500000 0.316760 0.385350 -0.622445
O3    O     O_R   0.377150 0.500020 0.614720 -0.603727
O4    O     O_R   0.377140 0.499990 0.385380 -0.620125
O5    O     O_R   0.500000 0.683240 0.614650 -0.613938
O6    O     O_R   0.499990 0.683210 0.385310 -0.618092
O7    O     O_R   0.622860 0.500010 0.614620 -0.598448
O8    O     O_R   0.622850 0.499980 0.385280 -0.631929
Zn1   Zn    Zn3+2 0.500010 0.500020 0.653130 0.996910
Zn2   Zn    Zn3+2 0.499990 0.499980 0.346870 0.960477
C31   C     C_2   0.914490 0.256619 0.587794 0.923064
O9    O     O_2   0.860589 0.239226 0.500319 -0.632728
O10   O     O_R   0.942499 0.155153 0.665510 -0.728937
H13   H     H_    0.914300 0.073493 0.638443 0.368156
C32   C     C_2   0.099706 0.356547 0.732079 0.982605
O11   O     O_2   0.144182 0.437996 0.783035 -0.628160
O12   O     O_R   0.093079 0.239702 0.795036 -0.734669
H14   H     H_    0.127916 0.234286 0.881388 0.351311
C33   C     C_2   0.920996 0.419096 0.761539 0.966006
O13   O     O_2   0.965198 0.481340 0.838287 -0.609156
O14   O     O_R   0.840064 0.381208 0.804046 -0.771586
H15   H     H_    0.826595 0.409230 0.899755 0.351954
H16   H     H_    0.942106 0.688580 0.462256 0.139626
C34   C     C_2   0.349434 0.881621 0.675259 0.956303
O15   O     O_2   0.318740 0.922749 0.570221 -0.622604
O16   O     O_R   0.306922 0.788549 0.747998 -0.807684
H17   H     H_    0.251778 0.761991 0.703044 0.347525
C35   C     C_2   0.473184 0.122829 0.864590 0.977756
O17   O     O_2   0.542881 0.090116 0.906598 -0.620757
O18   O     O_R   0.423902 0.205740 0.940050 -0.821868
H18   H     H_    0.452535 0.231864 0.027747 0.337920
H19   H     H_    0.623429 0.423152 0.126409 0.166252
H20   H     H_    0.623406 0.423122 0.874470 0.180645
H21   H     H_    0.300276 0.576673 0.879226 0.257364
H22   H     H_    0.337099 0.409678 0.121086 0.230351
H23   H     H_    0.080988 0.699043 0.520022 0.188605
C36   C     C_2   0.911848 0.699045 0.667701 0.950889
O19   O     O_2   0.846904 0.662037 0.722563 -0.610568
O20   O     O_R   0.947905 0.812906 0.707809 -0.779991
H24   H     H_    0.915487 0.853994 0.784403 0.362699

loop_
_geom_bond_atom_site_label_1
_geom_bond_atom_site_label_2
_ccdc_geom_bond_type
C31   O9    D    
C33   O14   S    
C19   N1    A    
C18   C21   A    
C13   H2    S    
C19   C20   A    
C12   O4    A    
C3    C6    S    
C36   O19   D    
C7    C8    T    
O4    Zn2   S    
O6    Zn2   S    
C20   H20   S    
C18   C24   S    
C3    C28   S    
C2    C31   S    
C1    O2    A    
C23   O5    A    
C28   H10   S    
C27   H8    S    
C15   C16   S    
C28   H11   S    
N1    Zn2   S    
C20   N2    A    
N2    Zn1   S    
C4    C36   S    
C27   H9    S    
C34   O15   D    
O16   H17   S    
C16   C34   S    
C26   C32   S    
O3    Zn1   S    
O1    Zn1   S    
C32   O11   D    
C7    C30   S    
C13   C14   A    
C27   C30   S    
C12   O3    A    
C36   O20   S    
O8    Zn2   S    
C25   C29   S    
C32   O12   S    
O18   H18   S    
C22   H21   S    
C35   O18   S    
C16   C17   S    
C23   O6    A    
O7    Zn1   S    
C14   C23   S    
C25   O7    A    
C16   H3    S    
C21   N2    A    
C24   H22   S    
O20   H24   S    
C8    C12   S    
O2    Zn2   S    
C24   H7    S    
C2    C26   S    
C5    H23   S    
C9    C17   S    
C26   C30   S    
C31   O10   S    
C22   C24   S    
C17   H4    S    
C3    C4    S    
C2    C33   S    
C5    H12   S    
C5    C30   S    
C9    C10   A    
C19   H19   S    
C1    C10   S    
C35   O17   D    
C4    H16   S    
C22   H6    S    
C2    C3    S    
C9    C15   A    
C25   O8    A    
C18   N1    A    
C11   C13   A    
C1    O1    A    
O10   H13   S    
O5    Zn1   S    
O12   H14   S    
C10   C11   A    
C11   H1    S    
C33   O13   D    
C26   H5    S    
C4    C5    S    
C6    C29   T    
C17   C35   S    
C34   O16   S    
O14   H15   S    
C27   C28   S    
C14   C15   A    
C21   C22   S    
