data_mof_unit_64561.cif
_audit_creation_date              2012-12-10T17:27:51-0500
_audit_creation_method            fapswitch 2.2
_symmetry_space_group_name_H-M    P1
_symmetry_Int_Tables_number       1
_space_group_crystal_system       triclinic
_cell_length_a                    21.934307
_cell_length_b                    21.934279
_cell_length_c                    38.663751
_cell_angle_alpha                 89.999764
_cell_angle_beta                  89.999929
_cell_angle_gamma                 89.999914
_cell_volume                      18601.6413312

loop_
_atom_site_label
_atom_site_type_symbol
_atom_type_description
_atom_site_fract_x
_atom_site_fract_y
_atom_site_fract_z
_atom_type_partial_charge
C1    C     C_R   0.500000 0.119551 0.500000 0.873120
C2    C     C_R   0.880449 0.500000 0.499999 0.873115
C3    C     C_R   0.500000 0.880449 0.500000 0.873120
C4    C     C_R   0.119551 0.500000 0.500000 0.873115
C5    C     C_R   0.000000 0.619551 1.000000 0.873124
C6    C     C_R   0.380449 0.000000 0.000000 0.873120
C7    C     C_R   1.000000 0.380449 1.000000 0.873125
C8    C     C_R   0.619551 1.000000 0.000000 0.873119
C9    C     C_R   0.441245 0.283982 0.411552 -0.186953
C10   C     C_R   0.716016 0.441249 0.411552 -0.186952
C11   C     C_R   0.558754 0.716020 0.411552 -0.186953
C12   C     C_R   0.283984 0.558751 0.411552 -0.186952
C13   C     C_R   0.441245 0.716018 0.588448 -0.186953
C14   C     C_R   0.716020 0.558752 0.588448 -0.186953
C15   C     C_R   0.558754 0.283980 0.588448 -0.186954
C16   C     C_R   0.283980 0.441247 0.588448 -0.186953
C17   C     C_R   0.941242 0.783983 0.911553 -0.186953
C18   C     C_R   0.216019 0.941245 0.911552 -0.186952
C19   C     C_R   0.058756 0.216020 0.911552 -0.186953
C20   C     C_R   0.783981 0.058755 0.911552 -0.186952
C21   C     C_R   0.941240 0.216020 0.088447 -0.186953
C22   C     C_R   0.216018 0.058757 0.088447 -0.186951
C23   C     C_R   0.058759 0.783978 0.088447 -0.186953
C24   C     C_R   0.783981 0.941245 0.088448 -0.186952
C25   C     C_R   0.442499 0.310800 0.444104 0.052766
C26   C     C_R   0.689200 0.442500 0.444104 0.052768
C27   C     C_R   0.557500 0.689200 0.444103 0.052765
C28   C     C_R   0.310800 0.557501 0.444104 0.052768
C29   C     C_R   0.442498 0.689200 0.555896 0.052765
C30   C     C_R   0.689201 0.557499 0.555897 0.052764
C31   C     C_R   0.557500 0.310799 0.555897 0.052764
C32   C     C_R   0.310799 0.442500 0.555897 0.052764
C33   C     C_R   0.942497 0.810801 0.944105 0.052764
C34   C     C_R   0.189200 0.942499 0.944104 0.052764
C35   C     C_R   0.057501 0.189200 0.944103 0.052763
C36   C     C_R   0.810800 0.057501 0.944104 0.052764
C37   C     C_R   0.942497 0.189200 0.055896 0.052761
C38   C     C_R   0.189200 0.057502 0.055896 0.052764
C39   C     C_R   0.057502 0.810799 0.055896 0.052760
C40   C     C_R   0.810800 0.942499 0.055896 0.052763
C41   C     C_R   0.473535 0.280958 0.471714 0.033158
C42   C     C_R   0.719042 0.473537 0.471714 0.033164
C43   C     C_R   0.526464 0.719042 0.471714 0.033158
C44   C     C_R   0.280958 0.526464 0.471714 0.033165
C45   C     C_R   0.473535 0.719042 0.528286 0.033160
C46   C     C_R   0.719042 0.526464 0.528286 0.033157
C47   C     C_R   0.526464 0.280958 0.528286 0.033160
C48   C     C_R   0.280958 0.473536 0.528286 0.033158
C49   C     C_R   0.973534 0.780958 0.971714 0.033160
C50   C     C_R   0.219042 0.973535 0.971714 0.033159
C51   C     C_R   0.026465 0.219042 0.971714 0.033160
C52   C     C_R   0.780958 0.026465 0.971714 0.033160
C53   C     C_R   0.973534 0.219042 0.028286 0.033155
C54   C     C_R   0.219042 0.026465 0.028286 0.033159
C55   C     C_R   0.026465 0.780957 0.028286 0.033155
C56   C     C_R   0.780958 0.973535 0.028286 0.033159
C57   C     C_R   0.477067 0.216803 0.470433 0.022436
C58   C     C_R   0.783197 0.477071 0.470432 0.022434
C59   C     C_R   0.522932 0.783197 0.470433 0.022436
C60   C     C_R   0.216803 0.522929 0.470432 0.022434
C61   C     C_R   0.477068 0.783197 0.529567 0.022436
C62   C     C_R   0.783197 0.522932 0.529567 0.022439
C63   C     C_R   0.522932 0.216802 0.529567 0.022436
C64   C     C_R   0.216802 0.477068 0.529567 0.022438
C65   C     C_R   0.977066 0.716803 0.970433 0.022435
C66   C     C_R   0.283197 0.977068 0.970433 0.022437
C67   C     C_R   0.022934 0.283197 0.970433 0.022435
C68   C     C_R   0.716803 0.022932 0.970433 0.022437
C69   C     C_R   0.977064 0.283197 0.029566 0.022438
C70   C     C_R   0.283197 0.022933 0.029567 0.022436
C71   C     C_R   0.022935 0.716802 0.029566 0.022438
C72   C     C_R   0.716803 0.977067 0.029567 0.022436
C73   C     C_R   0.500000 0.312930 0.500000 -0.173830
C74   C     C_R   0.687070 0.500000 0.500000 -0.173833
C75   C     C_R   0.500000 0.687070 0.500000 -0.173831
C76   C     C_R   0.312930 0.500000 0.500000 -0.173832
C77   C     C_R   1.000000 0.812930 0.000000 -0.173827
C78   C     C_R   0.187070 1.000000 1.000000 -0.173830
C79   C     C_R   1.000000 0.187070 1.000000 -0.173827
C80   C     C_R   0.812930 0.000000 0.000000 -0.173828
C81   C     C_R   0.500000 0.185183 0.500000 -0.167953
C82   C     C_R   0.814817 0.500001 0.499999 -0.167954
C83   C     C_R   0.500000 0.814817 0.500000 -0.167953
C84   C     C_R   0.185183 0.499999 0.499999 -0.167954
C85   C     C_R   0.000000 0.685183 1.000000 -0.167952
C86   C     C_R   0.314817 0.000000 1.000000 -0.167953
C87   C     C_R   1.000000 0.314817 0.999999 -0.167952
C88   C     C_R   0.685183 1.000000 1.000000 -0.167953
C89   C     C_R   0.620291 0.500000 0.500000 0.905006
C90   C     C_R   0.500000 0.620291 0.500000 0.905006
C91   C     C_R   0.379709 0.500000 0.500000 0.905006
C92   C     C_R   0.500000 0.379709 0.500000 0.905006
C93   C     C_R   0.120291 1.000000 1.000000 0.905006
C94   C     C_R   1.000000 0.120291 1.000000 0.905006
C95   C     C_R   0.879709 0.000000 0.000000 0.905005
C96   C     C_R   1.000000 0.879709 0.000000 0.905005
C97   C     C_R   0.500000 1.000000 0.432881 0.866739
C98   C     C_R   1.000000 0.500000 0.432882 0.866723
C99   C     C_R   0.500000 0.000000 0.567119 0.866741
C100  C     C_R   1.000000 0.500000 0.567118 0.866749
C101  C     C_R   1.000000 0.500000 0.932881 0.866735
C102  C     C_R   0.500000 0.000000 0.932881 0.866741
C103  C     C_R   1.000000 0.500000 0.067119 0.866753
C104  C     C_R   0.500000 1.000000 0.067118 0.866742
C105  C     C_R   0.444998 0.994584 0.376943 -0.222903
C106  C     C_R   0.005558 0.445014 0.376944 -0.222878
C107  C     C_R   0.555001 0.005415 0.376942 -0.222904
C108  C     C_R   0.994440 0.554987 0.376944 -0.222878
C109  C     C_R   0.444997 0.005393 0.623058 -0.222908
C110  C     C_R   0.005397 0.555003 0.623057 -0.222908
C111  C     C_R   0.555004 0.994608 0.623058 -0.222907
C112  C     C_R   0.994602 0.444997 0.623057 -0.222909
C113  C     C_R   0.944997 0.494602 0.876943 -0.222907
C114  C     C_R   0.505416 0.944999 0.876943 -0.222904
C115  C     C_R   0.055003 0.505397 0.876943 -0.222910
C116  C     C_R   0.494586 0.055002 0.876943 -0.222903
C117  C     C_R   0.944983 0.505263 0.123059 -0.222926
C118  C     C_R   0.505400 0.055003 0.123057 -0.222906
C119  C     C_R   0.055016 0.494739 0.123059 -0.222928
C120  C     C_R   0.494598 0.944997 0.123058 -0.222907
C121  C     C_R   0.444569 0.994547 0.340956 0.001128
C122  C     C_R   0.005602 0.444585 0.340957 0.001135
C123  C     C_R   0.555430 0.005452 0.340955 0.001128
C124  C     C_R   0.994395 0.555416 0.340957 0.001136
C125  C     C_R   0.444568 0.005430 0.659045 0.001127
C126  C     C_R   0.005433 0.555432 0.659044 0.001126
C127  C     C_R   0.555433 0.994572 0.659044 0.001126
C128  C     C_R   0.994566 0.444567 0.659044 0.001127
C129  C     C_R   0.944568 0.494566 0.840956 0.001126
C130  C     C_R   0.505454 0.944570 0.840956 0.001128
C131  C     C_R   0.055432 0.505432 0.840956 0.001126
C132  C     C_R   0.494550 0.055431 0.840956 0.001127
C133  C     C_R   0.944554 0.505293 0.159046 0.001120
C134  C     C_R   0.505436 0.055432 0.159044 0.001127
C135  C     C_R   0.055445 0.494710 0.159046 0.001119
C136  C     C_R   0.494561 0.944568 0.159045 0.001127
C137  C     C_R   0.500000 1.000000 0.322659 -0.010292
C138  C     C_R   0.999998 0.500001 0.322659 -0.010331
C139  C     C_R   0.500001 0.000001 0.677342 -0.010287
C140  C     C_R   0.999999 0.500000 0.677341 -0.010291
C141  C     C_R   0.000000 0.499999 0.822659 -0.010289
C142  C     C_R   0.500002 0.000001 0.822659 -0.010293
C143  C     C_R   0.999999 0.500001 0.177342 -0.010249
C144  C     C_R   0.499998 1.000000 0.177341 -0.010290
C145  C     C_R   0.500000 1.000000 0.395071 -0.073255
C146  C     C_R   1.000000 0.500000 0.395072 -0.073252
C147  C     C_R   0.500000 0.000000 0.604929 -0.073257
C148  C     C_R   1.000000 0.500000 0.604929 -0.073257
C149  C     C_R   0.000000 0.499999 0.895071 -0.073252
C150  C     C_R   0.500000 0.000000 0.895071 -0.073256
C151  C     C_R   1.000000 0.500000 0.104930 -0.073262
C152  C     C_R   0.500000 1.000000 0.104929 -0.073255
C153  C     C_R   0.499998 1.000000 0.215156 0.286497
C154  C     C_R   0.999999 0.500001 0.215156 0.286501
C155  C     C_R   0.500002 0.000001 0.784844 0.286496
C156  C     C_R   1.000000 0.499999 0.784844 0.286496
C157  C     C_R   1.000000 0.499999 0.715156 0.286495
C158  C     C_R   0.500001 0.000001 0.715156 0.286497
C159  C     C_R   0.999998 0.500001 0.284844 0.286493
C160  C     C_R   0.499999 0.000000 0.284844 0.286498
C161  C     C_R   0.456887 0.187735 0.439063 -0.028762
C162  C     C_R   0.812264 0.456895 0.439061 -0.028791
C163  C     C_R   0.543114 0.812266 0.439063 -0.028763
C164  C     C_R   0.187736 0.543105 0.439060 -0.028791
C165  C     C_R   0.456887 0.812265 0.560937 -0.028757
C166  C     C_R   0.812266 0.543112 0.560937 -0.028757
C167  C     C_R   0.543113 0.187734 0.560937 -0.028758
C168  C     C_R   0.187734 0.456887 0.560937 -0.028757
C169  C     C_R   0.956884 0.687735 0.939063 -0.028760
C170  C     C_R   0.312266 0.956887 0.939063 -0.028762
C171  C     C_R   0.043116 0.312266 0.939063 -0.028761
C172  C     C_R   0.687734 0.043113 0.939063 -0.028762
C173  C     C_R   0.956878 0.312266 0.060934 -0.028731
C174  C     C_R   0.312265 0.043115 0.060936 -0.028759
C175  C     C_R   0.043121 0.687732 0.060935 -0.028732
C176  C     C_R   0.687734 0.956886 0.060937 -0.028759
C177  C     C_R   0.451425 0.222051 0.408804 -0.181862
C178  C     C_R   0.777946 0.451434 0.408802 -0.181863
C179  C     C_R   0.548575 0.777951 0.408804 -0.181862
C180  C     C_R   0.222054 0.548566 0.408802 -0.181862
C181  C     C_R   0.451425 0.777949 0.591196 -0.181861
C182  C     C_R   0.777950 0.548572 0.591196 -0.181863
C183  C     C_R   0.548575 0.222049 0.591196 -0.181861
C184  C     C_R   0.222049 0.451426 0.591196 -0.181863
C185  C     C_R   0.951421 0.722052 0.908804 -0.181861
C186  C     C_R   0.277950 0.951425 0.908804 -0.181862
C187  C     C_R   0.048578 0.277951 0.908804 -0.181862
C188  C     C_R   0.722051 0.048575 0.908804 -0.181862
C189  C     C_R   0.951416 0.277952 0.091194 -0.181860
C190  C     C_R   0.277949 0.048578 0.091195 -0.181862
C191  C     C_R   0.048584 0.722046 0.091194 -0.181859
C192  C     C_R   0.722050 0.951424 0.091196 -0.181862
H1    H     H_    0.402257 0.989875 0.390779 0.176068
H2    H     H_    0.010381 0.402286 0.390781 0.176020
H3    H     H_    0.597743 0.010124 0.390778 0.176068
H4    H     H_    0.989618 0.597715 0.390781 0.176020
H5    H     H_    0.402253 0.010083 0.609222 0.176075
H6    H     H_    0.010093 0.597746 0.609221 0.176074
H7    H     H_    0.597747 0.989917 0.609221 0.176076
H8    H     H_    0.989907 0.402253 0.609221 0.176074
H9    H     H_    0.902254 0.489907 0.890779 0.176075
H10   H     H_    0.510124 0.902257 0.890779 0.176068
H11   H     H_    0.097746 0.510091 0.890779 0.176075
H12   H     H_    0.489876 0.097744 0.890779 0.176068
H13   H     H_    0.902228 0.509851 0.109224 0.176119
H14   H     H_    0.510098 0.097746 0.109221 0.176073
H15   H     H_    0.097772 0.490151 0.109224 0.176119
H16   H     H_    0.489901 0.902254 0.109222 0.176073
H17   H     H_    0.559857 0.200144 0.615538 0.155289
H18   H     H_    0.799855 0.559854 0.615538 0.155290
H19   H     H_    0.440142 0.799853 0.615538 0.155289
H20   H     H_    0.200144 0.440144 0.615538 0.155289
H21   H     H_    0.559858 0.799856 0.384462 0.155290
H22   H     H_    0.799849 0.440156 0.384459 0.155291
H23   H     H_    0.440143 0.200147 0.384462 0.155290
H24   H     H_    0.200151 0.559845 0.384459 0.155291
H25   H     H_    0.059870 0.700140 0.115535 0.155289
H26   H     H_    0.299854 0.059862 0.115537 0.155289
H27   H     H_    0.940129 0.299858 0.115535 0.155289
H28   H     H_    0.700145 0.940141 0.115538 0.155290
H29   H     H_    0.059862 0.299856 0.884463 0.155290
H30   H     H_    0.299854 0.940142 0.884462 0.155289
H31   H     H_    0.940138 0.700147 0.884463 0.155290
H32   H     H_    0.700146 0.059858 0.884462 0.155290
H33   H     H_    0.422025 0.308012 0.389604 0.150280
H34   H     H_    0.691986 0.422029 0.389604 0.150279
H35   H     H_    0.577974 0.691990 0.389604 0.150280
H36   H     H_    0.308014 0.577971 0.389604 0.150279
H37   H     H_    0.422024 0.691988 0.610395 0.150280
H38   H     H_    0.691990 0.577971 0.610396 0.150280
H39   H     H_    0.577974 0.308009 0.610396 0.150281
H40   H     H_    0.308009 0.422028 0.610396 0.150281
H41   H     H_    0.922022 0.808013 0.889605 0.150281
H42   H     H_    0.191990 0.922025 0.889605 0.150280
H43   H     H_    0.077976 0.191990 0.889604 0.150280
H44   H     H_    0.808011 0.077975 0.889604 0.150280
H45   H     H_    0.922019 0.191991 0.110395 0.150282
H46   H     H_    0.191989 0.077978 0.110395 0.150281
H47   H     H_    0.077979 0.808007 0.110395 0.150282
H48   H     H_    0.808010 0.922025 0.110396 0.150281
N1    N     N_R   0.537715 0.962271 0.267170 -0.153068
N2    N     N_R   0.037589 0.537854 0.267170 -0.153066
N3    N     N_R   0.462283 0.037728 0.267170 -0.153067
N4    N     N_R   0.962408 0.462148 0.267170 -0.153066
N5    N     N_R   0.537704 0.037743 0.732829 -0.153068
N6    N     N_R   0.037730 0.462286 0.732830 -0.153067
N7    N     N_R   0.462299 0.962260 0.732830 -0.153069
N8    N     N_R   0.962269 0.537713 0.732830 -0.153067
N9    N     N_R   0.037709 0.462265 0.767170 -0.153067
N10   N     N_R   0.537725 0.037722 0.767170 -0.153068
N11   N     N_R   0.962290 0.537734 0.767170 -0.153067
N12   N     N_R   0.462278 0.962281 0.767171 -0.153068
N13   N     N_R   0.037569 0.537875 0.232829 -0.153071
N14   N     N_R   0.537735 0.962292 0.232830 -0.153068
N15   N     N_R   0.962429 0.462127 0.232829 -0.153071
N16   N     N_R   0.462262 0.037707 0.232830 -0.153068
O1    O     O_R   0.551620 0.091530 0.500110 -0.613040
O2    O     O_R   0.908470 0.551620 0.500110 -0.613050
O3    O     O_R   0.448380 0.908470 0.500110 -0.613040
O4    O     O_R   0.091530 0.448380 0.500110 -0.613049
O5    O     O_R   0.551620 0.908470 0.499890 -0.613039
O6    O     O_R   0.908470 0.448380 0.499890 -0.613041
O7    O     O_R   0.448380 0.091530 0.499890 -0.613039
O8    O     O_R   0.091530 0.551620 0.499890 -0.613041
O9    O     O_R   0.051620 0.591530 0.000110 -0.613037
O10   O     O_R   0.408470 0.051620 0.000110 -0.613040
O11   O     O_R   0.948380 0.408470 0.000110 -0.613038
O12   O     O_R   0.591530 0.948380 0.000110 -0.613040
O13   O     O_R   0.051620 0.408470 0.999890 -0.613031
O14   O     O_R   0.408470 0.948380 0.999890 -0.613040
O15   O     O_R   0.948380 0.591530 0.999890 -0.613031
O16   O     O_R   0.591530 0.051620 0.999890 -0.613040
O17   O     O_R   0.551620 0.999930 0.449180 -0.615020
O18   O     O_R   0.000070 0.551620 0.449180 -0.615017
O19   O     O_R   0.448380 0.000070 0.449180 -0.615019
O20   O     O_R   0.999930 0.448380 0.449180 -0.615017
O21   O     O_R   0.551620 0.000070 0.550820 -0.615019
O22   O     O_R   0.000070 0.448380 0.550820 -0.615018
O23   O     O_R   0.448380 0.999930 0.550820 -0.615019
O24   O     O_R   0.999930 0.551620 0.550820 -0.615019
O25   O     O_R   0.051620 0.499930 0.949180 -0.615022
O26   O     O_R   0.500070 0.051620 0.949180 -0.615020
O27   O     O_R   0.948380 0.500070 0.949180 -0.615021
O28   O     O_R   0.499930 0.948380 0.949180 -0.615019
O29   O     O_R   0.051620 0.500070 0.050820 -0.615020
O30   O     O_R   0.500070 0.948380 0.050820 -0.615020
O31   O     O_R   0.948380 0.499930 0.050820 -0.615020
O32   O     O_R   0.499930 0.051620 0.050820 -0.615020
O33   O     O_R   0.591500 0.499930 0.528880 -0.620093
O34   O     O_R   0.500070 0.591500 0.528880 -0.620093
O35   O     O_R   0.408500 0.500070 0.528880 -0.620093
O36   O     O_R   0.499930 0.408500 0.528880 -0.620093
O37   O     O_R   0.591500 0.500070 0.471120 -0.620092
O38   O     O_R   0.500070 0.408500 0.471120 -0.620093
O39   O     O_R   0.408500 0.499930 0.471120 -0.620092
O40   O     O_R   0.499930 0.591500 0.471120 -0.620093
O41   O     O_R   0.091500 0.999930 0.028880 -0.620093
O42   O     O_R   0.000070 0.091500 0.028880 -0.620093
O43   O     O_R   0.908500 0.000070 0.028880 -0.620093
O44   O     O_R   0.999930 0.908500 0.028880 -0.620093
O45   O     O_R   0.091500 0.000070 0.971120 -0.620093
O46   O     O_R   0.000070 0.908500 0.971120 -0.620093
O47   O     O_R   0.908500 0.999930 0.971120 -0.620093
O48   O     O_R   0.999930 0.091500 0.971120 -0.620094
Zn1   Zn    Zn3+2 0.568970 1.000000 0.500000 1.002895
Zn2   Zn    Zn3+2 1.000000 0.568970 0.500000 1.002881
Zn3   Zn    Zn3+2 0.431030 1.000000 0.500000 1.002895
Zn4   Zn    Zn3+2 0.000000 0.431030 0.500000 1.002882
Zn5   Zn    Zn3+2 0.068970 0.500000 0.000000 1.002910
Zn6   Zn    Zn3+2 0.500000 0.068970 0.000000 1.002895
Zn7   Zn    Zn3+2 0.931030 0.500000 0.000000 1.002910
Zn8   Zn    Zn3+2 0.500000 0.931030 0.000000 1.002896
Zn9   Zn    Zn3+2 0.500000 0.500000 0.538510 0.984183
Zn10  Zn    Zn3+2 0.500000 0.500000 0.461490 0.984182
Zn11  Zn    Zn3+2 0.000000 1.000000 0.038510 0.984184
Zn12  Zn    Zn3+2 0.000000 1.000000 0.961490 0.984183
C193  C     C_1   0.386816 0.986807 0.323487 0.186241
N17   N     N_1   0.340566 0.980589 0.309520 -0.176081
C194  C     C_1   0.013508 0.386852 0.323491 0.186267
N18   N     N_1   0.019859 0.340617 0.309527 -0.176075
C195  C     C_1   0.613183 0.013193 0.323486 0.186240
N19   N     N_1   0.659433 0.019412 0.309520 -0.176081
C196  C     C_1   0.986487 0.613149 0.323491 0.186268
N20   N     N_1   0.980133 0.659384 0.309527 -0.176075
C197  C     C_1   0.386811 0.013145 0.676513 0.186240
N21   N     N_1   0.340558 0.019344 0.690479 -0.176081
C198  C     C_1   0.013153 0.613188 0.676512 0.186244
N22   N     N_1   0.019355 0.659441 0.690479 -0.176080
C199  C     C_1   0.613190 0.986858 0.676513 0.186240
N23   N     N_1   0.659444 0.980661 0.690478 -0.176081
C200  C     C_1   0.986845 0.386811 0.676513 0.186244
N24   N     N_1   0.980643 0.340558 0.690479 -0.176080
C201  C     C_1   0.886812 0.486846 0.823487 0.186243
N25   N     N_1   0.840559 0.480645 0.809520 -0.176080
C202  C     C_1   0.513194 0.886817 0.823487 0.186243
N26   N     N_1   0.519413 0.840566 0.809521 -0.176080
C203  C     C_1   0.113188 0.513152 0.823487 0.186242
N27   N     N_1   0.159441 0.519352 0.809520 -0.176080
C204  C     C_1   0.486811 0.113185 0.823487 0.186243
N28   N     N_1   0.480595 0.159436 0.809521 -0.176080
C205  C     C_1   0.886779 0.512856 0.176517 0.186213
N29   N     N_1   0.840511 0.518932 0.190484 -0.176088
C206  C     C_1   0.513158 0.113187 0.176513 0.186241
N30   N     N_1   0.519362 0.159439 0.190480 -0.176080
C207  C     C_1   0.113221 0.487150 0.176517 0.186214
N31   N     N_1   0.159489 0.481076 0.190485 -0.176088
C208  C     C_1   0.486837 0.886813 0.176514 0.186240
N32   N     N_1   0.480631 0.840561 0.190481 -0.176080
C209  C     C_1   0.416084 0.136389 0.438793 0.201327
N33   N     N_1   0.380541 0.097455 0.437801 -0.167031
C210  C     C_1   0.863614 0.416098 0.438787 0.201331
N34   N     N_1   0.902550 0.380557 0.437791 -0.166947
C211  C     C_1   0.583917 0.863612 0.438794 0.201328
N35   N     N_1   0.619461 0.902545 0.437801 -0.167031
C212  C     C_1   0.136386 0.583902 0.438787 0.201331
N36   N     N_1   0.097450 0.619443 0.437790 -0.166947
C213  C     C_1   0.416084 0.863611 0.561206 0.201324
N37   N     N_1   0.380540 0.902544 0.562198 -0.167045
C214  C     C_1   0.863611 0.583916 0.561206 0.201328
N38   N     N_1   0.902544 0.619461 0.562198 -0.167043
C215  C     C_1   0.583917 0.136388 0.561206 0.201327
N39   N     N_1   0.619461 0.097455 0.562198 -0.167045
C216  C     C_1   0.136389 0.416083 0.561206 0.201328
N40   N     N_1   0.097456 0.380538 0.562198 -0.167043
C217  C     C_1   0.916082 0.636389 0.938794 0.201325
N41   N     N_1   0.880538 0.597455 0.937802 -0.167040
C218  C     C_1   0.363611 0.916084 0.938794 0.201329
N42   N     N_1   0.402545 0.880540 0.937801 -0.167031
C219  C     C_1   0.083920 0.363611 0.938795 0.201328
N43   N     N_1   0.119464 0.402545 0.937803 -0.167040
C220  C     C_1   0.636389 0.083916 0.938793 0.201328
N44   N     N_1   0.597455 0.119460 0.937801 -0.167031
C221  C     C_1   0.916071 0.363609 0.061200 0.201321
N45   N     N_1   0.880524 0.402540 0.062189 -0.167120
C222  C     C_1   0.363611 0.083918 0.061205 0.201328
N46   N     N_1   0.402545 0.119462 0.062197 -0.167039
C223  C     C_1   0.083929 0.636390 0.061200 0.201322
N47   N     N_1   0.119476 0.597459 0.062189 -0.167121
C224  C     C_1   0.636389 0.916083 0.061206 0.201326
N48   N     N_1   0.597456 0.880539 0.062198 -0.167039
C225  C     C_1   0.394553 0.354272 0.450675 0.185936
N49   N     N_1   0.354586 0.387560 0.455432 -0.200330
C226  C     C_1   0.645729 0.394553 0.450675 0.185935
N50   N     N_1   0.612442 0.354585 0.455433 -0.200329
C227  C     C_1   0.605446 0.645728 0.450674 0.185936
N51   N     N_1   0.645413 0.612439 0.455430 -0.200329
C228  C     C_1   0.354271 0.605447 0.450675 0.185935
N52   N     N_1   0.387558 0.645415 0.455432 -0.200328
C229  C     C_1   0.394553 0.645728 0.549325 0.185939
N53   N     N_1   0.354585 0.612441 0.544568 -0.200328
C230  C     C_1   0.645728 0.605445 0.549327 0.185938
N54   N     N_1   0.612440 0.645412 0.544570 -0.200325
C231  C     C_1   0.605446 0.354271 0.549326 0.185939
N55   N     N_1   0.645413 0.387559 0.544569 -0.200327
C232  C     C_1   0.354272 0.394554 0.549327 0.185938
N56   N     N_1   0.387560 0.354587 0.544570 -0.200326
C233  C     C_1   0.894551 0.854273 0.950676 0.185938
N57   N     N_1   0.854584 0.887560 0.955433 -0.200329
C234  C     C_1   0.145728 0.894553 0.950675 0.185937
N58   N     N_1   0.112441 0.854586 0.955432 -0.200328
C235  C     C_1   0.105446 0.145727 0.950674 0.185940
N59   N     N_1   0.145413 0.112438 0.955430 -0.200326
C236  C     C_1   0.854272 0.105447 0.950674 0.185938
N60   N     N_1   0.887560 0.145414 0.955431 -0.200328
C237  C     C_1   0.894552 0.145727 0.049325 0.185940
N61   N     N_1   0.854585 0.112439 0.044568 -0.200328
C238  C     C_1   0.145728 0.105448 0.049324 0.185939
N62   N     N_1   0.112440 0.145415 0.044567 -0.200327
C239  C     C_1   0.105447 0.854272 0.049325 0.185941
N63   N     N_1   0.145413 0.887561 0.044569 -0.200327
C240  C     C_1   0.854272 0.894553 0.049326 0.185940
N64   N     N_1   0.887560 0.854586 0.044569 -0.200325

loop_
_geom_bond_atom_site_label_1
_geom_bond_atom_site_label_2
_ccdc_geom_bond_type
O14   Zn8   S    
N5    N10   A    
C5    O9    A    
C213  N37   T    
C6    O14   A    
C36   C236  S    
C109  H5    S    
C53   C69   A    
C191  H25   S    
C203  N27   T    
C9    C177  A    
N7    N12   A    
C171  C219  S    
C91   O35   A    
O4    Zn4   S    
C118  H14   S    
C164  C212  S    
C58   C82   A    
C22   C38   A    
C38   C238  S    
C64   C84   A    
C75   C90   S    
O47   Zn12  S    
C1    O7    A    
C20   H44   S    
C115  H11   S    
C113  H9    S    
C22   C190  A    
C129  C201  S    
C157  N6    A    
O37   Zn10  S    
C24   H48   S    
C117  C133  A    
C4    O4    A    
C119  C151  A    
C114  C130  A    
C42   C58   A    
C69   C173  A    
C108  C124  A    
C14   C182  A    
O48   Zn12  S    
C108  C146  A    
C154  N15   A    
C43   C75   A    
C34   C50   A    
C196  N20   T    
C120  H16   S    
O41   Zn11  S    
C25   C41   A    
O3    Zn3   S    
C156  N9    A    
C143  C154  S    
C201  N25   T    
C28   C44   A    
C29   C45   A    
C135  C207  S    
C131  C203  S    
O23   Zn3   S    
C212  N36   T    
C4    C84   S    
C11   C27   A    
C232  N56   T    
C133  C205  S    
C16   C184  A    
C141  C156  S    
C97   O19   A    
C103  O31   A    
O12   Zn8   S    
C98   O20   A    
C39   C239  S    
C46   C62   A    
C3    C83   S    
C229  N53   T    
C11   C179  A    
C114  C150  A    
C161  C177  A    
C226  N50   T    
C58   C162  A    
C159  N4    A    
O11   Zn7   S    
O18   Zn2   S    
C124  C138  A    
C99   C147  S    
C123  C195  S    
C137  C160  S    
C56   C72   A    
C97   C145  S    
O25   Zn5   S    
C222  N46   T    
C18   H42   S    
C40   C240  S    
C166  C214  S    
C132  C142  A    
C231  N55   T    
O35   Zn9   S    
C67   C171  A    
C104  C152  S    
O20   Zn4   S    
C19   C35   A    
C217  N41   T    
C2    O6    A    
O29   Zn5   S    
C168  C216  S    
C3    O3    A    
C16   H40   S    
C157  N8    A    
C14   H38   S    
C48   C64   A    
C202  N26   T    
C57   C161  A    
C64   C168  A    
C195  N19   T    
C185  H31   S    
C173  C221  S    
C214  N38   T    
C95   O47   A    
C239  N63   T    
C237  N61   T    
C33   C49   A    
C112  H8    S    
C55   C71   A    
C189  H27   S    
C104  O30   A    
C154  N13   A    
C5    O15   A    
C21   H45   S    
O45   Zn12  S    
C209  N33   T    
C48   C76   A    
C210  N34   T    
C166  C182  A    
C235  N59   T    
C156  N11   A    
C106  H2    S    
C165  C213  S    
C90   O34   A    
C27   C227  S    
C234  N58   T    
C182  H18   S    
C121  C137  A    
C44   C76   A    
C103  O29   A    
C98   O18   A    
C99   O23   A    
C37   C237  S    
C128  C200  S    
C126  C198  S    
C6    O10   A    
O34   Zn9   S    
C159  N2    A    
C118  C134  A    
C43   C59   A    
C28   C228  S    
C37   C53   A    
C63   C167  A    
C115  C149  A    
C109  C147  A    
C96   O46   A    
C110  C148  A    
C39   C55   A    
C175  C223  S    
O40   Zn10  S    
C79   C94   S    
C117  C151  A    
C30   C230  S    
C51   C67   A    
C130  C202  S    
C3    O5    A    
O30   Zn8   S    
C71   C85   A    
C8    C88   S    
C118  C152  A    
C20   C188  A    
C50   C66   A    
C21   C189  A    
C116  C132  A    
C4    O8    A    
C106  C122  A    
C125  C197  S    
C24   C192  A    
C169  C217  S    
C94   O42   A    
C80   C95   S    
C7    O11   A    
C70   C174  A    
C110  C126  A    
C124  C196  S    
C89   O33   A    
C62   C166  A    
C104  O32   A    
C13   C181  A    
C163  C179  A    
C158  N7    A    
C26   C42   A    
C35   C235  S    
O33   Zn9   S    
O46   Zn12  S    
C30   C46   A    
C73   C92   S    
C69   C87   A    
C66   C86   A    
C15   C31   A    
C16   C32   A    
C123  C137  A    
C77   C96   S    
C56   C80   A    
C101  O25   A    
C128  C140  A    
C8    O16   A    
C233  N57   T    
C99   O21   A    
C68   C88   A    
C60   C164  A    
C49   C77   A    
C61   C165  A    
C62   C82   A    
O10   Zn6   S    
C51   C79   A    
C34   C234  S    
C162  C178  A    
C59   C163  A    
C76   C91   S    
C41   C73   A    
O19   Zn3   S    
C11   H35   S    
N2    N13   A    
C9    H33   S    
O6    Zn4   S    
O1    Zn1   S    
N6    N9    A    
C110  H6    S    
C127  C199  S    
C107  C123  A    
C206  N30   T    
C93   O41   A    
O21   Zn1   S    
C211  N35   T    
C9    C25   A    
C224  N48   T    
C132  C204  S    
C12   C28   A    
C13   C29   A    
C59   C83   A    
C117  H13   S    
C47   C63   A    
O27   Zn7   S    
C12   H36   S    
C129  C141  A    
C1    C81   S    
C220  N44   T    
C92   O38   A    
C54   C78   A    
C177  H23   S    
C116  H12   S    
C7    C87   S    
C236  N60   T    
C17   C185  A    
C40   C56   A    
C15   C183  A    
C216  N40   T    
C114  H10   S    
C158  N5    A    
C108  H4    S    
C164  C180  A    
C103  C151  S    
C15   H39   S    
C176  C224  S    
C186  H30   S    
C31   C47   A    
C121  C193  S    
C32   C48   A    
C17   C33   A    
C190  H26   S    
C107  H3    S    
C1    O1    A    
C42   C74   A    
C178  H22   S    
C102  O28   A    
C180  H24   S    
C47   C73   A    
C61   C83   A    
C208  N32   T    
C101  O27   A    
C187  H29   S    
O39   Zn10  S    
C119  C135  A    
N3    N16   A    
C172  C220  S    
C65   C169  A    
C120  C136  A    
O15   Zn7   S    
C29   C229  S    
C200  N24   T    
C12   C180  A    
C111  C147  A    
C23   H47   S    
C204  N28   T    
C38   C54   A    
C105  C145  A    
C170  C186  A    
C122  C138  A    
C113  C129  A    
C102  C150  S    
C92   O36   A    
C2    C82   S    
O8    Zn2   S    
C162  C210  S    
O22   Zn4   S    
C227  N51   T    
C100  O22   A    
C19   H43   S    
C155  N12   A    
C17   H41   S    
C31   C231  S    
C45   C75   A    
O5    Zn1   S    
C41   C57   A    
C198  N22   T    
C136  C144  A    
C136  C208  S    
C68   C172  A    
C89   O37   A    
C44   C60   A    
C107  C145  A    
C45   C61   A    
C71   C175  A    
C72   C176  A    
C197  N21   T    
O16   Zn6   S    
C112  C128  A    
C13   H37   S    
C194  N18   T    
C20   C36   A    
C27   C43   A    
C21   C37   A    
C32   C232  S    
C240  N64   T    
O44   Zn11  S    
C33   C233  S    
C52   C80   A    
C22   H46   S    
C161  C209  S    
C153  N14   A    
C199  N23   T    
C102  O26   A    
C218  N42   T    
C8    O12   A    
C116  C150  A    
O28   Zn8   S    
C230  N54   T    
C115  C131  A    
C205  N29   T    
C125  C139  A    
C105  H1    S    
C126  C140  A    
C49   C65   A    
C63   C81   A    
C74   C89   S    
C93   O45   A    
C53   C79   A    
C172  C188  A    
C174  C222  S    
C175  C191  A    
C55   C77   A    
C176  C192  A    
C78   C93   S    
C96   O44   A    
C173  C189  A    
C144  C153  S    
O2    Zn2   S    
C111  H7    S    
C163  C211  S    
C138  C159  S    
C167  C183  A    
C139  C158  S    
C168  C184  A    
N4    N15   A    
C54   C70   A    
C238  N62   T    
C142  C155  S    
C52   C68   A    
N8    N11   A    
O43   Zn11  S    
C10   C26   A    
C122  C194  S    
O38   Zn10  S    
C100  O24   A    
C179  H21   S    
C127  C139  A    
C14   C30   A    
C130  C142  A    
O26   Zn6   S    
O32   Zn6   S    
C72   C88   A    
C155  N10   A    
C184  H20   S    
O13   Zn5   S    
C26   C226  S    
O24   Zn2   S    
C133  C143  A    
C10   C178  A    
C113  C149  A    
C23   C191  A    
C7    O13   A    
O36   Zn9   S    
O17   Zn1   S    
C98   C146  S    
C90   O40   A    
C134  C144  A    
C18   C186  A    
C112  C148  A    
C140  C157  S    
O7    Zn3   S    
C91   O39   A    
C105  C121  A    
C18   C34   A    
C46   C74   A    
C223  N47   T    
C188  H32   S    
C109  C125  A    
C2    O2    A    
C153  N16   A    
C174  C190  A    
C120  C152  A    
C111  C127  A    
C160  N1    A    
C57   C81   A    
C119  H15   S    
C192  H28   S    
C70   C86   A    
C6    C86   S    
C50   C78   A    
C167  C215  S    
C219  N43   T    
C25   C225  S    
C95   O43   A    
C66   C170  A    
C134  C206  S    
C94   O48   A    
C36   C52   A    
O42   Zn11  S    
C170  C218  S    
C65   C85   A    
C183  H17   S    
C215  N39   T    
C67   C87   A    
C106  C146  A    
C171  C187  A    
C181  H19   S    
C165  C181  A    
C5    C85   S    
C221  N45   T    
C35   C51   A    
C60   C84   A    
C225  N49   T    
C169  C185  A    
C100  C148  S    
C23   C39   A    
C101  C149  S    
C135  C143  A    
C24   C40   A    
C160  N3    A    
C193  N17   T    
C131  C141  A    
O9    Zn5   S    
C10   H34   S    
C19   C187  A    
N1    N14   A    
O31   Zn7   S    
C207  N31   T    
C97   O17   A    
C228  N52   T    
