data_mof_unit_16051.cif
_audit_creation_date              2012-12-11T16:44:13-0500
_audit_creation_method            fapswitch 2.2
_symmetry_space_group_name_H-M    P1
_symmetry_Int_Tables_number       1
_space_group_crystal_system       triclinic
_cell_length_a                    27.223229
_cell_length_b                    7.200975
_cell_length_c                    22.823811
_cell_angle_alpha                 90.000022
_cell_angle_beta                  101.46805
_cell_angle_gamma                 89.999971
_cell_volume                      4384.91328966

loop_
_atom_site_label
_atom_site_type_symbol
_atom_type_description
_atom_site_fract_x
_atom_site_fract_y
_atom_site_fract_z
_atom_type_partial_charge
O1    O     O_R   0.707300 0.594030 0.176840 -0.535703
O2    O     O_R   0.292700 0.405970 0.823160 -0.535703
O3    O     O_R   0.792700 0.094030 0.323160 -0.535704
O4    O     O_R   0.207300 0.905970 0.676840 -0.535704
O5    O     O_R   0.697330 0.262360 0.295660 -0.543857
O6    O     O_R   0.302670 0.737640 0.704340 -0.543857
O7    O     O_R   0.802670 0.762360 0.204340 -0.543856
O8    O     O_R   0.197330 0.237640 0.795660 -0.543857
C1    C     C_R   0.684777 0.432484 0.311740 0.680388
C2    C     C_R   0.315223 0.567516 0.688259 0.680388
C3    C     C_R   0.815223 0.932484 0.188259 0.680388
C4    C     C_R   0.184777 0.067516 0.811740 0.680387
O9    O     O_R   0.701410 0.264250 0.175600 -0.529176
O10   O     O_R   0.298590 0.735750 0.824400 -0.529176
O11   O     O_R   0.798590 0.764250 0.324400 -0.529176
O12   O     O_R   0.201410 0.235750 0.675600 -0.529176
O13   O     O_R   0.796800 0.094950 0.202240 -0.533323
O14   O     O_R   0.203200 0.905050 0.797760 -0.533323
O15   O     O_R   0.703200 0.594950 0.297760 -0.533323
O16   O     O_R   0.296800 0.405050 0.702240 -0.533323
C5    C     C_R   0.689765 0.432544 0.153481 0.765846
C6    C     C_R   0.310235 0.567456 0.846519 0.765846
C7    C     C_R   0.810235 0.932544 0.346519 0.765846
C8    C     C_R   0.189765 0.067456 0.653481 0.765847
O17   O     O_3   0.781290 0.427390 0.258880 -0.379675
O18   O     O_3   0.218710 0.572610 0.741120 -0.379675
O19   O     O_3   0.718710 0.927390 0.241120 -0.379675
O20   O     O_3   0.281290 0.072610 0.758880 -0.379676
V1    V     V_3+5 0.744190 0.152150 0.248350 1.469736
V2    V     V_3+5 0.255810 0.847850 0.751650 1.469736
V3    V     V_3+5 0.755810 0.652150 0.251650 1.469737
V4    V     V_3+5 0.244190 0.347850 0.748350 1.469737
C9    C     C_R   0.154867 0.062146 0.595060 -0.161765
C10   C     C_R   0.845133 0.937854 0.404940 -0.161765
C11   C     C_R   0.345133 0.562146 0.904940 -0.161765
C12   C     C_R   0.654867 0.437854 0.095060 -0.161766
C13   C     C_R   0.139185 0.118331 0.488528 -0.230709
C14   C     C_R   0.860815 0.881669 0.511472 -0.230709
C15   C     C_R   0.360815 0.618324 0.011472 -0.230709
C16   C     C_R   0.639185 0.381676 0.988527 -0.230709
C17   C     C_R   0.172191 0.111505 0.543534 0.620012
C18   C     C_R   0.827809 0.888495 0.456466 0.620012
C19   C     C_R   0.327809 0.611500 0.956466 0.620012
C20   C     C_R   0.672191 0.388500 0.043534 0.620012
C21   C     C_R   0.103809 0.020147 0.591092 -0.315385
C22   C     C_R   0.896191 0.979853 0.408908 -0.315385
C23   C     C_R   0.396191 0.520149 0.908908 -0.315385
C24   C     C_R   0.603809 0.479851 0.091092 -0.315386
C25   C     C_R   0.069046 0.029160 0.535418 0.096513
C26   C     C_R   0.930954 0.970840 0.464581 0.096513
C27   C     C_R   0.430954 0.529160 0.964581 0.096513
C28   C     C_R   0.569046 0.470840 0.035418 0.096513
C29   C     C_R   0.088072 0.078979 0.484035 0.045986
C30   C     C_R   0.911928 0.921021 0.515965 0.045986
C31   C     C_R   0.411928 0.578974 0.015965 0.045986
C32   C     C_R   0.588072 0.421026 0.984035 0.045986
C33   C     C_R   0.016262 0.992882 0.528888 0.077246
C34   C     C_R   0.983738 0.007118 0.471112 0.077246
C35   C     C_R   0.483738 0.492884 0.971112 0.077246
C36   C     C_R   0.516262 0.507116 0.028888 0.077246
C37   C     C_R   0.005117 0.056595 0.421837 -0.183640
C38   C     C_R   0.994883 0.943405 0.578163 -0.183640
C39   C     C_R   0.494883 0.556588 0.078163 -0.183639
C40   C     C_R   0.505117 0.443412 0.921837 -0.183639
C41   C     C_R   0.056064 0.091292 0.428325 -0.163981
C42   C     C_R   0.943936 0.908708 0.571675 -0.163981
C43   C     C_R   0.443935 0.591284 0.071676 -0.163982
C44   C     C_R   0.556065 0.408716 0.928324 -0.163981
H1    H     H_    0.070584 0.129355 0.389048 0.128098
H2    H     H_    0.929416 0.870645 0.610951 0.128098
H3    H     H_    0.429415 0.629344 0.110952 0.128098
H4    H     H_    0.570585 0.370656 0.889048 0.128098
H5    H     H_    0.907484 0.014832 0.367646 0.120933
H6    H     H_    0.092515 0.985168 0.632354 0.120933
H7    H     H_    0.592515 0.514827 0.132354 0.120933
H8    H     H_    0.407485 0.485173 0.867646 0.120933
H9    H     H_    0.153602 0.156887 0.449239 0.150239
H10   H     H_    0.846398 0.843113 0.550760 0.150239
H11   H     H_    0.346398 0.656875 0.050761 0.150239
H12   H     H_    0.653602 0.343124 0.949239 0.150239
H13   H     H_    0.983420 0.070383 0.377183 0.121205
H14   H     H_    0.016579 0.929617 0.622817 0.121205
H15   H     H_    0.516579 0.570374 0.122817 0.121204
H16   H     H_    0.483421 0.429626 0.877182 0.121204
C45   C     C_R   0.872013 0.117659 0.135704 -0.121127
C46   C     C_R   0.127987 0.882341 0.864296 -0.121128
C47   C     C_R   0.627988 0.617659 0.364296 -0.121126
C48   C     C_R   0.372013 0.382341 0.635704 -0.121126
H17   H     H_    0.858699 0.245174 0.152296 0.132602
H18   H     H_    0.141301 0.754826 0.847704 0.132602
H19   H     H_    0.641302 0.745175 0.347705 0.132602
H20   H     H_    0.358698 0.254825 0.652295 0.132602
C49   C     C_R   0.907634 0.130325 0.099369 -0.138682
C50   C     C_R   0.092366 0.869675 0.900631 -0.138682
C51   C     C_R   0.592366 0.630326 0.400632 -0.138683
C52   C     C_R   0.407634 0.369674 0.599368 -0.138683
H21   H     H_    0.920952 0.266531 0.089805 0.101641
H22   H     H_    0.079048 0.733469 0.910195 0.101641
H23   H     H_    0.579049 0.766532 0.410196 0.101641
H24   H     H_    0.420951 0.233468 0.589804 0.101641
C53   C     C_R   0.926337 0.969752 0.076423 0.090514
C54   C     C_R   0.073663 0.030248 0.923577 0.090514
C55   C     C_R   0.573663 0.469753 0.423577 0.090514
C56   C     C_R   0.426337 0.530247 0.576423 0.090514
C57   C     C_R   0.908678 0.795654 0.091361 -0.135411
C58   C     C_R   0.091322 0.204346 0.908639 -0.135411
C59   C     C_R   0.591322 0.295654 0.408638 -0.135411
C60   C     C_R   0.408678 0.704346 0.591361 -0.135411
H25   H     H_    0.921763 0.669038 0.073951 0.104871
H26   H     H_    0.078237 0.330962 0.926049 0.104871
H27   H     H_    0.578236 0.169038 0.426048 0.104871
H28   H     H_    0.421764 0.830962 0.573952 0.104871
C61   C     C_R   0.873023 0.782801 0.127901 -0.144642
C62   C     C_R   0.126977 0.217199 0.872099 -0.144641
C63   C     C_R   0.626977 0.282801 0.372099 -0.144642
C64   C     C_R   0.373023 0.717199 0.627901 -0.144642
H29   H     H_    0.860036 0.646511 0.137917 0.131906
H30   H     H_    0.139964 0.353489 0.862083 0.131906
H31   H     H_    0.639963 0.146510 0.362082 0.131905
H32   H     H_    0.360036 0.853490 0.637918 0.131905
C65   C     C_R   0.854010 0.943814 0.150434 -0.049070
C66   C     C_R   0.145990 0.056186 0.849566 -0.049070
C67   C     C_R   0.645990 0.443814 0.349566 -0.049070
C68   C     C_R   0.354010 0.556186 0.650434 -0.049070
C69   C     C_R   0.003397 0.855769 0.041601 -0.152391
C70   C     C_R   0.996603 0.144231 0.958399 -0.152391
C71   C     C_R   0.496603 0.355770 0.458399 -0.152391
C72   C     C_R   0.503397 0.644230 0.541601 -0.152392
H33   H     H_    0.007371 0.744719 0.074180 0.111605
H34   H     H_    0.992629 0.255281 0.925820 0.111605
H35   H     H_    0.492629 0.244721 0.425819 0.111605
H36   H     H_    0.507371 0.755279 0.574181 0.111605
C73   C     C_R   0.038908 0.870991 0.005070 -0.142250
C74   C     C_R   0.961092 0.129008 0.994930 -0.142250
C75   C     C_R   0.461092 0.370992 0.494930 -0.142250
C76   C     C_R   0.538908 0.629008 0.505070 -0.142249
H37   H     H_    0.069174 0.770988 0.010573 0.119016
H38   H     H_    0.930826 0.229012 0.989426 0.119016
H39   H     H_    0.430825 0.270990 0.489426 0.119016
H40   H     H_    0.569175 0.729010 0.510574 0.119016
C77   C     C_R   0.036005 0.015365 0.962906 0.082038
C78   C     C_R   0.963995 0.984634 0.037094 0.082038
C79   C     C_R   0.463994 0.515365 0.537094 0.082038
C80   C     C_R   0.536006 0.484635 0.462906 0.082038
F1    F     F_    0.778776 0.845805 0.453401 -0.689607
F2    F     F_    0.221224 0.154195 0.546598 -0.689607
F3    F     F_    0.721224 0.345813 0.046598 -0.689607
F4    F     F_    0.278776 0.654187 0.953402 -0.689608

loop_
_geom_bond_atom_site_label_1
_geom_bond_atom_site_label_2
_ccdc_geom_bond_type
O17   V3    S    
C48   C52   A    
O1    C5    A    
C47   H19   S    
O19   V1    S    
C9    C21   A    
O3    C7    A    
C10   C18   A    
C48   C68   A    
C11   C23   A    
C55   C80   S    
C25   C33   A    
C33   C38   A    
C5    C12   S    
C73   H37   S    
C6    C11   S    
C35   C40   A    
C26   C30   A    
C58   C62   A    
C36   C39   A    
C40   C44   A    
C57   C61   A    
C71   C75   A    
C23   H8    S    
C14   C18   A    
C2    C68   S    
C72   C76   A    
C58   H26   S    
O4    C8    A    
C51   H23   S    
C44   H4    S    
C70   H34   S    
O1    V3    S    
C20   F3    S    
O13   V1    S    
O2    V4    S    
O3    V1    S    
C40   H16   S    
C19   F4    S    
C46   C50   A    
C45   C49   A    
C1    O15   A    
C15   C31   A    
C17   F2    S    
C48   H20   S    
C2    O16   A    
C16   C32   A    
C47   C51   A    
O2    C6    A    
C16   H12   S    
C45   C65   A    
C10   C22   A    
C54   C77   S    
C11   C19   A    
C16   C20   A    
C43   H3    S    
C76   H40   S    
C13   C29   A    
C34   C37   A    
O11   C7    A    
C38   H14   S    
O15   V3    S    
C35   C36   A    
O12   C8    A    
C24   H7    S    
C3    C65   S    
O10   V2    S    
C72   H36   S    
C51   C55   A    
O7    C3    A    
O5    V1    S    
C53   C57   A    
C39   C43   A    
C63   C67   A    
C38   C42   A    
C26   C34   A    
O7    V3    S    
C4    C66   S    
C46   H18   S    
C49   C53   A    
C45   H17   S    
O18   V4    S    
C23   C27   A    
C14   H10   S    
C32   C44   A    
C13   H9    S    
C64   H32   S    
C39   H15   S    
C21   H6    S    
O8    V4    S    
C75   H39   S    
O5    C1    A    
C37   C41   A    
C74   C78   A    
C53   C78   S    
C31   C43   A    
C14   C30   A    
C21   C25   A    
C69   C78   A    
O8    C4    A    
C7    C10   S    
C56   C79   S    
O9    C5    A    
C59   C63   A    
C62   H30   S    
C61   H29   S    
O6    V2    S    
C63   H31   S    
C52   C56   A    
C69   H33   S    
O14   V2    S    
C12   C20   A    
C27   C35   A    
O9    V1    S    
C49   H21   S    
C56   C60   A    
C29   C41   A    
O16   V4    S    
C69   C73   A    
C57   H25   S    
C3    O13   A    
C64   C68   A    
C59   H27   S    
C74   H38   S    
C15   C19   A    
O11   V3    S    
C30   C42   A    
O12   V4    S    
C22   C26   A    
C70   C77   A    
C73   C77   A    
C8    C9    S    
C9    C17   A    
O10   C6    A    
O20   V2    S    
C76   C80   A    
C37   H13   S    
C47   C67   A    
C60   C64   A    
C33   C34   A    
C42   H2    S    
C41   H1    S    
C52   H24   S    
C75   C79   A    
C1    C67   S    
C12   C24   A    
C27   C31   A    
C71   C80   A    
C13   C17   A    
C46   C66   A    
C72   C79   A    
C71   H35   S    
C25   C29   A    
O6    C2    A    
C62   C66   A    
C60   H28   S    
C24   C28   A    
C61   C65   A    
C70   C74   A    
C28   C36   A    
C54   C58   A    
C4    O14   A    
C50   H22   S    
C55   C59   A    
C18   F1    S    
C22   H5    S    
O4    V2    S    
C28   C32   A    
C50   C54   A    
C15   H11   S    
