data_mof_unit_57489.cif
_audit_creation_date              2012-12-10T19:34:07-0500
_audit_creation_method            fapswitch 2.2
_symmetry_space_group_name_H-M    P1
_symmetry_Int_Tables_number       1
_space_group_crystal_system       triclinic
_cell_length_a                    23.300555
_cell_length_b                    23.522132
_cell_length_c                    16.442616
_cell_angle_alpha                 90.20751
_cell_angle_beta                  95.058902
_cell_angle_gamma                 90.055554
_cell_volume                      8976.67671253

loop_
_atom_site_label
_atom_site_type_symbol
_atom_type_description
_atom_site_fract_x
_atom_site_fract_y
_atom_site_fract_z
_atom_type_partial_charge
C1    C     C_R   0.426496 0.079066 0.488711 0.860336
C2    C     C_R   0.576595 0.924105 0.512200 0.860441
C3    C     C_R   0.573574 0.078991 0.511469 0.857859
C4    C     C_R   0.424719 0.922519 0.487876 0.873934
C5    C     C_R   0.926814 0.579260 0.488854 0.865548
C6    C     C_R   0.076706 0.424176 0.512229 0.855656
C7    C     C_R   0.077467 0.575227 0.512603 0.854924
C8    C     C_R   0.923002 0.424339 0.487531 0.860170
C9    C     C_R   0.536107 0.001409 0.851234 -0.308860
C10   C     C_R   0.467502 0.984630 0.148384 -0.319672
C11   C     C_R   0.037293 0.499742 0.850600 -0.310672
C12   C     C_R   0.966546 0.492455 0.147648 -0.318818
C13   C     C_R   0.483002 0.005637 0.884023 0.136672
C14   C     C_R   0.520200 0.995380 0.117305 0.134782
C15   C     C_R   0.984681 0.506186 0.884086 0.135051
C16   C     C_R   0.020637 0.492415 0.117323 0.135451
C17   C     C_R   0.432291 0.007400 0.829725 -0.065674
C18   C     C_R   0.568809 0.007822 0.172051 -0.066970
C19   C     C_R   0.933644 0.510008 0.830660 -0.063477
C20   C     C_R   0.070353 0.494599 0.173243 -0.065963
C21   C     C_R   0.437292 0.005136 0.745019 -0.062850
C22   C     C_R   0.562343 0.010003 0.256084 -0.062637
C23   C     C_R   0.937801 0.506970 0.745827 -0.063284
C24   C     C_R   0.063596 0.499211 0.257100 -0.052765
C25   C     C_2   0.481324 0.010995 0.973995 -0.214004
C26   C     C_2   0.523788 0.991765 0.028166 -0.203695
C27   C     C_2   0.984081 0.512444 0.973938 -0.214031
C28   C     C_2   0.023936 0.488418 0.027850 -0.207083
C29   C     C_R   0.389931 0.871294 0.481003 -0.035539
C30   C     C_R   0.600826 0.134819 0.515285 -0.043703
C31   C     C_R   0.628748 0.891190 0.523175 -0.015907
C32   C     C_R   0.399446 0.135031 0.485535 -0.048052
C33   C     C_R   0.869942 0.392317 0.476162 -0.022595
C34   C     C_R   0.131695 0.605486 0.524762 -0.021781
C35   C     C_R   0.129000 0.391358 0.523250 -0.014876
C36   C     C_R   0.900057 0.635343 0.486041 -0.046006
C37   C     C_R   0.351182 0.860636 0.539087 -0.216129
C38   C     C_R   0.588617 0.172189 0.449928 -0.201962
C39   C     C_R   0.678401 0.913567 0.493908 -0.192131
C40   C     C_R   0.408674 0.170626 0.553982 -0.202126
C41   C     C_R   0.822041 0.413212 0.511958 -0.194608
C42   C     C_R   0.177110 0.587709 0.480638 -0.204671
C43   C     C_R   0.178403 0.413371 0.492829 -0.188476
C44   C     C_R   0.907831 0.670198 0.555447 -0.212834
C45   C     C_R   0.324659 0.808168 0.541091 -0.166479
C46   C     C_R   0.612290 0.226151 0.452265 -0.175664
C47   C     C_R   0.730272 0.885420 0.508451 -0.176017
C48   C     C_R   0.385724 0.224744 0.552829 -0.177149
C49   C     C_R   0.769352 0.386300 0.497808 -0.175972
C50   C     C_R   0.231402 0.610953 0.497314 -0.185753
C51   C     C_R   0.230410 0.385480 0.507489 -0.173560
C52   C     C_R   0.884936 0.724341 0.554376 -0.180423
C53   C     C_R   0.337127 0.765199 0.485696 0.139037
C54   C     C_R   0.649912 0.243252 0.519055 0.150784
C55   C     C_R   0.732706 0.833510 0.550172 0.137185
C56   C     C_R   0.351557 0.243881 0.484089 0.151494
C57   C     C_R   0.764231 0.336867 0.449839 0.137780
C58   C     C_R   0.240659 0.653524 0.556801 0.140889
C59   C     C_R   0.233222 0.333947 0.550176 0.136204
C60   C     C_R   0.851765 0.743986 0.484984 0.154317
C61   C     C_R   0.374778 0.776177 0.424926 0.022030
C62   C     C_R   0.660147 0.206929 0.587306 0.033523
C63   C     C_R   0.682435 0.810795 0.580680 0.023134
C64   C     C_R   0.344865 0.209788 0.412719 0.033393
C65   C     C_R   0.812474 0.315999 0.412000 0.023278
C66   C     C_R   0.195507 0.670284 0.603785 0.031405
C67   C     C_R   0.183175 0.311489 0.581684 0.023224
C68   C     C_R   0.846506 0.710558 0.412910 0.030807
C69   C     C_R   0.401162 0.829505 0.423506 -0.254182
C70   C     C_R   0.634710 0.153044 0.584627 -0.265512
C71   C     C_R   0.630690 0.840821 0.567794 -0.270234
C72   C     C_R   0.369570 0.155567 0.414207 -0.264271
C73   C     C_R   0.865075 0.344845 0.424828 -0.274321
C74   C     C_R   0.140969 0.645997 0.586919 -0.274645
C75   C     C_R   0.131350 0.341448 0.568934 -0.265365
C76   C     C_R   0.871867 0.656695 0.414186 -0.259434
C77   C     C_2   0.305169 0.711762 0.486585 -0.236961
C78   C     C_2   0.683427 0.295500 0.512771 -0.249239
C79   C     C_2   0.786699 0.801559 0.557079 -0.255329
C80   C     C_2   0.317172 0.295455 0.491260 -0.249433
C81   C     C_2   0.710036 0.304900 0.444956 -0.255076
C82   C     C_2   0.292544 0.688477 0.556964 -0.251989
C83   C     C_2   0.287277 0.302000 0.556756 -0.255844
C84   C     C_2   0.817002 0.795316 0.491950 -0.250466
C85   C     C_R   0.538918 0.997152 0.767484 0.111073
C86   C     C_R   0.462906 0.987491 0.231983 0.114061
C87   C     C_R   0.039313 0.496080 0.766603 0.112540
C88   C     C_R   0.961799 0.496242 0.231140 0.114489
H1    H     H_    0.342101 0.892657 0.583730 0.150668
H2    H     H_    0.560325 0.159845 0.396944 0.157403
H3    H     H_    0.677204 0.953639 0.461436 0.138558
H4    H     H_    0.434095 0.156830 0.608699 0.160442
H5    H     H_    0.825171 0.451254 0.549515 0.141436
H6    H     H_    0.170767 0.555252 0.433804 0.137101
H7    H     H_    0.176929 0.452937 0.459256 0.131290
H8    H     H_    0.932113 0.655863 0.610801 0.159295
H9    H     H_    0.429831 0.973633 0.107863 0.151840
H10   H     H_    0.576187 0.002698 0.889772 0.152495
H11   H     H_    0.927637 0.488145 0.106787 0.152405
H12   H     H_    0.077503 0.499381 0.889013 0.153281
H13   H     H_    0.643297 0.124675 0.635225 0.150901
H14   H     H_    0.432750 0.837318 0.380254 0.155017
H15   H     H_    0.363704 0.128981 0.360698 0.144238
H16   H     H_    0.591766 0.824522 0.590973 0.141687
H17   H     H_    0.105862 0.658487 0.622244 0.143143
H18   H     H_    0.902448 0.329740 0.396306 0.141630
H19   H     H_    0.867878 0.630889 0.359985 0.156865
H20   H     H_    0.092616 0.325348 0.592876 0.139583
H21   H     H_    0.312212 0.705147 0.614446 0.164618
H22   H     H_    0.699369 0.279101 0.390823 0.169724
H23   H     H_    0.806160 0.820172 0.437252 0.170917
H24   H     H_    0.295482 0.274228 0.609095 0.169644
H25   H     H_    0.696992 0.318170 0.568822 0.171128
H26   H     H_    0.285407 0.696056 0.428446 0.169873
H27   H     H_    0.306056 0.320124 0.436470 0.171261
H28   H     H_    0.794558 0.773618 0.609285 0.169558
H29   H     H_    0.602638 0.254015 0.400549 0.138482
H30   H     H_    0.293747 0.801471 0.585638 0.157504
H31   H     H_    0.392931 0.251040 0.607015 0.139034
H32   H     H_    0.768506 0.904033 0.486468 0.139094
H33   H     H_    0.265738 0.597640 0.461160 0.142227
H34   H     H_    0.732643 0.403768 0.525348 0.139184
H35   H     H_    0.891237 0.750146 0.609158 0.138468
H36   H     H_    0.268422 0.403942 0.484656 0.138851
H37   H     H_    0.599076 0.019267 0.299087 0.143661
H38   H     H_    0.399186 0.007035 0.702390 0.139416
H39   H     H_    0.101052 0.500754 0.301000 0.135541
H40   H     H_    0.899510 0.510157 0.703735 0.137938
H41   H     H_    0.561466 0.971175 0.007788 0.154035
H42   H     H_    0.443994 0.031273 0.996578 0.167926
H43   H     H_    0.058798 0.463798 0.006321 0.156095
H44   H     H_    0.949537 0.537354 0.996266 0.167232
N1    N     N_R   0.489810 0.000000 0.715580 -0.112871
N2    N     N_R   0.510190 0.000000 0.284420 -0.113463
N3    N     N_R   0.989810 0.500000 0.715580 -0.112708
N4    N     N_R   0.010190 0.500000 0.284420 -0.112604
O1    O     O_R   0.445750 0.057890 0.422600 -0.610442
O2    O     O_R   0.554250 0.942110 0.577400 -0.602747
O3    O     O_R   0.554250 0.057890 0.577400 -0.606182
O4    O     O_R   0.445750 0.942110 0.422600 -0.602157
O5    O     O_R   0.945750 0.557890 0.422600 -0.600641
O6    O     O_R   0.054250 0.442110 0.577400 -0.599427
O7    O     O_R   0.054250 0.557890 0.577400 -0.612819
O8    O     O_R   0.945750 0.442110 0.422600 -0.604392
O9    O     O_R   0.439220 0.057900 0.561040 -0.623618
O10   O     O_R   0.560780 0.942100 0.438960 -0.613154
O11   O     O_R   0.560780 0.057900 0.438960 -0.628292
O12   O     O_R   0.439220 0.942100 0.561040 -0.615390
O13   O     O_R   0.939220 0.557900 0.561040 -0.627995
O14   O     O_R   0.060780 0.442100 0.438960 -0.620446
O15   O     O_R   0.060780 0.557900 0.438960 -0.620124
O16   O     O_R   0.939220 0.442100 0.561040 -0.612779
Zn1   Zn    Zn3+2 0.504350 0.000000 0.407560 0.938002
Zn2   Zn    Zn3+2 0.495650 0.000000 0.592440 0.941137
Zn3   Zn    Zn3+2 0.004350 0.500000 0.407560 0.942253
Zn4   Zn    Zn3+2 0.995650 0.500000 0.592440 0.937782
C89   C     C_R   0.388914 0.732356 0.364678 0.104581
C90   C     C_R   0.409202 0.678549 0.390713 -0.149664
C91   C     C_R   0.422432 0.637471 0.333626 -0.143746
C92   C     C_R   0.415899 0.649821 0.250269 -0.114916
C93   C     C_R   0.396298 0.703346 0.223864 -0.137797
C94   C     C_R   0.382981 0.744542 0.280733 -0.168586
H45   H     H_    0.415079 0.668522 0.455142 0.136614
H46   H     H_    0.437888 0.596092 0.354041 0.126582
H47   H     H_    0.426150 0.617968 0.206158 0.117869
H48   H     H_    0.391342 0.712905 0.159288 0.122056
H49   H     H_    0.367516 0.785665 0.259262 0.115717
C95   C     C_R   0.698870 0.222406 0.660525 0.092796
C96   C     C_R   0.757479 0.234248 0.654318 -0.161267
C97   C     C_R   0.793707 0.247712 0.724071 -0.131826
C98   C     C_R   0.771960 0.248757 0.800590 -0.113855
C99   C     C_R   0.713971 0.236172 0.807499 -0.136970
C100  C     C_R   0.677550 0.222864 0.737851 -0.166554
H50   H     H_    0.775173 0.232916 0.595716 0.131842
H51   H     H_    0.838711 0.257108 0.718827 0.130550
H52   H     H_    0.800088 0.259090 0.854553 0.118326
H53   H     H_    0.697238 0.236686 0.866849 0.125645
H54   H     H_    0.632707 0.213111 0.744089 0.127251
C101  C     C_R   0.681958 0.755456 0.623683 0.100230
C102  C     C_R   0.698101 0.705171 0.585223 -0.148967
C103  C     C_R   0.696636 0.653071 0.625612 -0.132425
C104  C     C_R   0.678461 0.650605 0.704245 -0.124475
C105  C     C_R   0.661857 0.700268 0.742709 -0.139212
C106  C     C_R   0.663364 0.752502 0.702584 -0.166181
H55   H     H_    0.711565 0.706227 0.523967 0.129218
H56   H     H_    0.709306 0.614559 0.595756 0.128266
H57   H     H_    0.676997 0.610174 0.735201 0.120426
H58   H     H_    0.647676 0.698270 0.803570 0.122316
H59   H     H_    0.650230 0.790610 0.733074 0.115904
C107  C     C_R   0.311020 0.228471 0.336945 0.093147
C108  C     C_R   0.251713 0.239666 0.336125 -0.162298
C109  C     C_R   0.220419 0.257539 0.264315 -0.129734
C110  C     C_R   0.247863 0.263713 0.192643 -0.112454
C111  C     C_R   0.306598 0.251733 0.192588 -0.137213
C112  C     C_R   0.338086 0.233995 0.264345 -0.162573
H60   H     H_    0.229768 0.234748 0.390946 0.130123
H61   H     H_    0.174867 0.266543 0.264219 0.129231
H62   H     H_    0.223591 0.277617 0.137121 0.114664
H63   H     H_    0.327761 0.256287 0.136959 0.124395
H64   H     H_    0.383627 0.225032 0.263552 0.126597
C113  C     C_R   0.810015 0.263697 0.361089 0.100791
C114  C     C_R   0.795493 0.211043 0.394002 -0.154211
C115  C     C_R   0.794108 0.161838 0.345925 -0.128750
C116  C     C_R   0.807811 0.164639 0.265016 -0.119950
C117  C     C_R   0.822773 0.216684 0.231971 -0.144058
C118  C     C_R   0.824098 0.266035 0.279801 -0.166101
H65   H     H_    0.785439 0.208020 0.456804 0.129060
H66   H     H_    0.782690 0.121477 0.371538 0.129819
H67   H     H_    0.807092 0.126440 0.228063 0.126158
H68   H     H_    0.833475 0.218767 0.169319 0.121687
H69   H     H_    0.835881 0.306042 0.253419 0.115900
C119  C     C_R   0.203409 0.714849 0.667547 0.106567
C120  C     C_R   0.242066 0.706499 0.736945 -0.186517
C121  C     C_R   0.249935 0.748975 0.796614 -0.131892
C122  C     C_R   0.219087 0.799832 0.787616 -0.110033
C123  C     C_R   0.180114 0.808180 0.719100 -0.145241
C124  C     C_R   0.172092 0.765792 0.659311 -0.159370
H70   H     H_    0.266150 0.667232 0.744597 0.117770
H71   H     H_    0.279967 0.742477 0.849813 0.124057
H72   H     H_    0.225314 0.832723 0.833777 0.122580
H73   H     H_    0.156187 0.847541 0.712253 0.127700
H74   H     H_    0.142014 0.772866 0.606262 0.129911
C125  C     C_R   0.182824 0.256283 0.625095 0.100042
C126  C     C_R   0.198997 0.205889 0.586928 -0.151261
C127  C     C_R   0.197093 0.153833 0.627330 -0.132647
C128  C     C_R   0.178425 0.151501 0.705677 -0.122228
C129  C     C_R   0.161873 0.201267 0.743916 -0.138560
C130  C     C_R   0.163826 0.253460 0.703782 -0.167427
H75   H     H_    0.212690 0.206791 0.525802 0.129173
H76   H     H_    0.209706 0.115235 0.597639 0.128206
H77   H     H_    0.176436 0.111080 0.736509 0.117514
H78   H     H_    0.147286 0.199370 0.804547 0.121900
H79   H     H_    0.150567 0.291610 0.734033 0.115462
C131  C     C_R   0.812917 0.728966 0.336775 0.091756
C132  C     C_R   0.753455 0.739526 0.335296 -0.161697
C133  C     C_R   0.722070 0.755756 0.262722 -0.133816
C134  C     C_R   0.749573 0.760878 0.190940 -0.116074
C135  C     C_R   0.808484 0.749592 0.191573 -0.136623
C136  C     C_R   0.840062 0.733506 0.264087 -0.167877
H80   H     H_    0.731380 0.735068 0.390083 0.131397
H81   H     H_    0.676366 0.764143 0.262075 0.131306
H82   H     H_    0.725199 0.773367 0.134775 0.117776
H83   H     H_    0.829684 0.753265 0.135845 0.126372
H84   H     H_    0.885678 0.724781 0.263707 0.128726
C137  C     C_R   0.596560 0.990734 0.738872 0.181478
C138  C     C_R   0.620439 0.936290 0.732353 -0.134608
C139  C     C_R   0.678542 0.930120 0.718762 -0.134999
C140  C     C_R   0.713206 0.978065 0.712329 -0.108862
C141  C     C_R   0.690282 0.032241 0.722071 -0.170566
C142  C     C_R   0.632391 0.038482 0.736780 -0.157380
H85   H     H_    0.594336 0.898757 0.739143 0.117004
H86   H     H_    0.696988 0.888197 0.714367 0.135712
H87   H     H_    0.758120 0.973169 0.701703 0.127728
H88   H     H_    0.717669 0.069312 0.719973 0.139606
H89   H     H_    0.615657 0.080326 0.748810 0.120320
C143  C     C_R   0.405694 0.978391 0.260542 0.174590
C144  C     C_R   0.382639 0.923358 0.263225 -0.157714
C145  C     C_R   0.326657 0.915327 0.285645 -0.141009
C146  C     C_R   0.293086 0.962213 0.303456 -0.118424
C147  C     C_R   0.314987 0.017204 0.297092 -0.167431
C148  C     C_R   0.370866 0.025222 0.274408 -0.117070
H90   H     H_    0.408129 0.886913 0.248386 0.111607
H91   H     H_    0.309231 0.872833 0.289066 0.132018
H92   H     H_    0.249803 0.955968 0.320837 0.126187
H93   H     H_    0.288427 0.053565 0.308676 0.131456
H94   H     H_    0.386965 0.067715 0.265903 0.114322
C149  C     C_R   0.096504 0.489193 0.736425 0.168714
C150  C     C_R   0.121799 0.435029 0.735978 -0.148001
C151  C     C_R   0.179276 0.428987 0.719099 -0.130981
C152  C     C_R   0.211855 0.476798 0.702822 -0.116406
C153  C     C_R   0.187546 0.530905 0.705836 -0.146591
C154  C     C_R   0.130329 0.537215 0.723852 -0.120010
H95   H     H_    0.097264 0.397692 0.749819 0.115642
H96   H     H_    0.198804 0.387308 0.719372 0.134281
H97   H     H_    0.256254 0.471989 0.689472 0.129515
H98   H     H_    0.213477 0.567949 0.695894 0.140876
H99   H     H_    0.112620 0.579451 0.729362 0.128733
C155  C     C_R   0.903328 0.495958 0.258088 0.176724
C156  C     C_R   0.875232 0.444200 0.269821 -0.131263
C157  C     C_R   0.816802 0.443595 0.283472 -0.141097
C158  C     C_R   0.785885 0.494401 0.283923 -0.115182
C159  C     C_R   0.812988 0.545770 0.268742 -0.166149
C160  C     C_R   0.871347 0.546453 0.254753 -0.162118
H100  H     H_    0.898368 0.404410 0.267235 0.118634
H101  H     H_    0.795154 0.403734 0.292392 0.139175
H102  H     H_    0.740664 0.493820 0.294312 0.127039
H103  H     H_    0.788600 0.584970 0.266649 0.142350
H104  H     H_    0.891442 0.586143 0.239671 0.120869
C161  C     C_R   0.374219 0.011170 0.859296 0.102669
C162  C     C_R   0.355120 0.969368 0.911563 -0.163020
C163  C     C_R   0.300429 0.973386 0.939905 -0.145570
C164  C     C_R   0.264436 0.018991 0.916191 -0.112483
C165  C     C_R   0.282995 0.060525 0.863837 -0.139477
C166  C     C_R   0.337534 0.056527 0.834993 -0.161393
H105  H     H_    0.382574 0.933774 0.930310 0.131022
H106  H     H_    0.285988 0.941187 0.980342 0.125546
H107  H     H_    0.222189 0.022165 0.938407 0.118882
H108  H     H_    0.255241 0.095983 0.845939 0.125823
H109  H     H_    0.351465 0.089121 0.794685 0.126383
C167  C     C_R   0.625584 0.020912 0.143358 0.112027
C168  C     C_R   0.659408 0.977568 0.113358 -0.172235
C169  C     C_R   0.713141 0.990384 0.086241 -0.129821
C170  C     C_R   0.733413 0.046389 0.089243 -0.119872
C171  C     C_R   0.700047 0.089637 0.119574 -0.147524
C172  C     C_R   0.646388 0.076963 0.146967 -0.143367
H110  H     H_    0.644147 0.934030 0.110990 0.121836
H111  H     H_    0.739066 0.956908 0.062929 0.125585
H112  H     H_    0.774984 0.056265 0.068182 0.118375
H113  H     H_    0.715736 0.132988 0.121821 0.128798
H114  H     H_    0.620885 0.110785 0.170391 0.123941
C173  C     C_R   0.876150 0.517193 0.861286 0.103656
C174  C     C_R   0.856102 0.478164 0.916877 -0.162392
C175  C     C_R   0.802189 0.485704 0.946515 -0.138110
C176  C     C_R   0.767799 0.531978 0.920608 -0.110768
C177  C     C_R   0.787188 0.570682 0.864808 -0.141310
C178  C     C_R   0.841013 0.563243 0.834854 -0.161665
H115  H     H_    0.882232 0.442019 0.937291 0.131739
H116  H     H_    0.787100 0.455698 0.989635 0.127229
H117  H     H_    0.726139 0.537851 0.943768 0.118929
H118  H     H_    0.760653 0.606638 0.845104 0.128450
H119  H     H_    0.855636 0.593777 0.792018 0.125544
C179  C     C_R   0.129225 0.492051 0.146712 0.112208
C180  C     C_R   0.150078 0.441352 0.114940 -0.172604
C181  C     C_R   0.206399 0.438619 0.092048 -0.132965
C182  C     C_R   0.242302 0.486279 0.101301 -0.107965
C183  C     C_R   0.222003 0.536678 0.133747 -0.138918
C184  C     C_R   0.165699 0.539564 0.156733 -0.155382
H120  H     H_    0.122833 0.403986 0.108335 0.120447
H121  H     H_    0.222284 0.399492 0.067472 0.121437
H122  H     H_    0.285913 0.484087 0.083657 0.118105
H123  H     H_    0.249951 0.573454 0.141294 0.128062
H124  H     H_    0.150489 0.578734 0.182166 0.126585

loop_
_geom_bond_atom_site_label_1
_geom_bond_atom_site_label_2
_ccdc_geom_bond_type
C45   H30   S    
C99   H53   S    
C71   H16   S    
C89   C90   A    
C125  C126  A    
C34   C42   A    
C137  C142  A    
C175  H116  S    
C139  H86   S    
C140  C141  A    
C159  C160  A    
C134  H82   S    
C58   C82   S    
C153  C154  A    
C4    O12   A    
C5    C36   S    
C5    O13   A    
C6    C35   S    
C30   C38   A    
C19   C173  S    
C9    C13   A    
C108  H60   S    
C11   C15   A    
C86   N2    A    
O16   Zn4   S    
C181  C182  A    
C24   H39   S    
C105  H58   S    
C96   H50   S    
C183  C184  A    
O15   Zn3   S    
O2    Zn2   S    
C137  C138  A    
C164  H107  S    
C50   H33   S    
C80   C83   D    
C41   C49   A    
C29   C69   A    
C114  C115  A    
C108  C109  A    
C2    O2    A    
O3    Zn2   S    
C176  C177  A    
C168  C169  A    
C17   C21   A    
C46   H29   S    
C19   C23   A    
C105  C106  A    
C149  C154  A    
C15   C27   S    
C170  C171  A    
C16   C20   A    
O1    Zn1   S    
C14   C26   S    
C67   C125  S    
C33   C73   A    
C95   C96   A    
C63   C71   A    
C76   H19   S    
C90   C91   A    
C36   C44   A    
C78   H25   S    
C66   C119  S    
C167  C168  A    
C39   C47   A    
C158  H102  S    
C40   C48   A    
C160  H104  S    
C125  C130  A    
C72   H15   S    
C37   H1    S    
C38   H2    S    
C127  H76   S    
C181  H121  S    
C148  H94   S    
C122  H72   S    
C77   C82   D    
O11   Zn1   S    
C119  C120  A    
C110  C111  A    
C83   H24   S    
C2    C31   S    
O6    Zn4   S    
C21   H38   S    
C126  H75   S    
C89   C94   A    
C172  H114  S    
C23   H40   S    
C167  C172  A    
C62   C95   S    
C3    O11   A    
C9    H10   S    
C132  H80   S    
C1    O9    A    
C7    O7    A    
C70   H13   S    
C62   C70   A    
C141  C142  A    
C151  H96   S    
C8    O16   A    
C79   C84   D    
N2    Zn1   S    
C97   C98   A    
C86   C143  S    
C66   C74   A    
C49   C57   A    
C133  C134  A    
C144  C145  A    
C165  H108  S    
C12   H11   S    
C52   C60   A    
C59   C67   A    
C104  C105  A    
C53   C61   A    
C111  H63   S    
C11   C87   A    
C55   C63   A    
C56   C64   A    
C35   C43   A    
C24   N4    A    
C31   C71   A    
C45   C53   A    
C159  H103  S    
C134  C135  A    
C85   C137  S    
C27   H44   S    
C25   H42   S    
C138  H85   S    
C153  H98   S    
C12   C88   A    
N1    Zn2   S    
C82   H21   S    
C12   C16   A    
C114  H65   S    
C157  C158  A    
C10   C14   A    
N4    Zn3   S    
C140  H87   S    
C22   H37   S    
C25   C26   D    
C135  H83   S    
C174  H115  S    
N3    Zn4   S    
C133  H81   S    
C10   H9    S    
C165  C166  A    
C44   H8    S    
C113  C118  A    
C161  C162  A    
C81   H22   S    
C130  H79   S    
C107  C112  A    
C42   C50   A    
O9    Zn2   S    
C90   H45   S    
C47   H32   S    
O14   Zn3   S    
C3    O3    A    
C1    O1    A    
C101  C106  A    
C176  H117  S    
C138  C139  A    
C10   C86   A    
C18   C22   A    
C152  H97   S    
C147  C148  A    
C103  H56   S    
C170  H112  S    
C68   C76   A    
C98   H52   S    
C56   C80   S    
C13   C17   A    
C155  C160  A    
C145  C146  A    
C166  H109  S    
C74   H17   S    
C117  H68   S    
C179  C180  A    
C38   C46   A    
C75   H20   S    
C67   C75   A    
C116  C117  A    
C128  C129  A    
C91   H46   S    
C143  C148  A    
C88   C155  S    
C87   C149  S    
C18   C167  S    
C173  C174  A    
C126  C127  A    
C93   C94   A    
C132  C133  A    
C32   C72   A    
C103  C104  A    
C15   C19   A    
C107  C108  A    
C59   C83   S    
C119  C124  A    
C110  H62   S    
C162  C163  A    
C113  C114  A    
C21   N1    A    
C123  H73   S    
C41   H5    S    
C116  H67   S    
C43   H7    S    
C156  C157  A    
C6    O6    A    
C4    C29   S    
O4    Zn1   S    
C111  C112  A    
C141  H88   S    
C151  C152  A    
C51   H36   S    
O12   Zn2   S    
C30   C70   A    
C48   H31   S    
C97   H51   S    
C171  H113  S    
C84   H23   S    
C144  H90   S    
C50   C58   A    
C87   N3    A    
C88   N4    A    
C146  H92   S    
O5    Zn3   S    
C54   C62   A    
C117  C118  A    
C169  H111  S    
C180  C181  A    
C53   C77   S    
C61   C89   S    
C55   C79   S    
C91   C92   A    
C80   H27   S    
C120  C121  A    
C120  H70   S    
C46   C54   A    
C177  H118  S    
C182  H122  S    
C156  H100  S    
C26   H41   S    
C68   C131  S    
C34   C74   A    
C7    O15   A    
C20   C179  S    
C178  H119  S    
C7    C34   S    
C131  C132  A    
C77   H26   S    
C102  C103  A    
C115  H66   S    
C124  H74   S    
C135  C136  A    
C42   H6    S    
C57   C65   A    
C161  C166  A    
C23   N3    A    
C149  C150  A    
C33   C41   A    
C92   H47   S    
C163  H106  S    
C109  C110  A    
C78   C81   D    
C43   C51   A    
C175  C176  A    
O10   Zn1   S    
C168  H110  S    
C182  C183  A    
C101  C102  A    
C6    O14   A    
C150  C151  A    
C60   C68   A    
C29   C37   A    
C152  C153  A    
C147  H93   S    
C85   N1    A    
C54   C78   S    
C16   C28   S    
C98   C99   A    
C154  H99   S    
C96   C97   A    
C14   C18   A    
C145  H91   S    
C122  C123  A    
C73   H18   S    
C63   C101  S    
C69   H14   S    
C174  C175  A    
C35   C75   A    
C22   N2    A    
C100  H54   S    
C164  C165  A    
O13   Zn4   S    
C121  H71   S    
C184  H124  S    
C52   H35   S    
C128  H77   S    
C65   C73   A    
C180  H120  S    
C36   C76   A    
C131  C136  A    
C118  H69   S    
C58   C66   A    
C129  C130  A    
C150  H95   S    
C136  H84   S    
C93   H48   S    
C8    C33   S    
C9    C85   A    
C163  C164  A    
C32   C40   A    
C129  H78   S    
C173  C178  A    
C13   C25   S    
C95   C100  A    
C162  H105  S    
C20   C24   A    
C123  C124  A    
C121  C122  A    
C158  C159  A    
C109  H61   S    
C1    C32   S    
C11   H12   S    
C3    C30   S    
C4    O4    A    
C5    O5    A    
C179  C184  A    
C143  C144  A    
C127  C128  A    
C8    O8    A    
C40   H4    S    
C171  C172  A    
C57   C81   S    
C51   C59   A    
C146  C147  A    
C27   C28   D    
C99   C100  A    
C47   C55   A    
C112  H64   S    
C61   C69   A    
C142  H89   S    
C48   C56   A    
C169  C170  A    
C155  C156  A    
C39   H3    S    
C157  H101  S    
C64   C107  S    
C139  C140  A    
C2    O10   A    
C28   H43   S    
C92   C93   A    
O8    Zn3   S    
C177  C178  A    
C60   C84   S    
C44   C52   A    
O7    Zn4   S    
C17   C161  S    
C49   H34   S    
C31   C39   A    
C104  H57   S    
C64   C72   A    
C102  H55   S    
C94   H49   S    
C65   C113  S    
C183  H123  S    
C106  H59   S    
C115  C116  A    
C79   H28   S    
C37   C45   A    
