data_mof_unit_52981.cif
_audit_creation_date              2012-12-11T15:56:44-0500
_audit_creation_method            fapswitch 2.2
_symmetry_space_group_name_H-M    P1
_symmetry_Int_Tables_number       1
_space_group_crystal_system       monoclinic
_cell_length_a                    14.686227
_cell_length_b                    7.165097
_cell_length_c                    13.610307
_cell_angle_alpha                 90.0
_cell_angle_beta                  100.062204
_cell_angle_gamma                 90.0
_cell_volume                      1410.15966876

loop_
_atom_site_label
_atom_site_type_symbol
_atom_type_description
_atom_site_fract_x
_atom_site_fract_y
_atom_site_fract_z
_atom_type_partial_charge
O1    O     O_R   0.336930 0.638190 0.166330 -0.546380
O2    O     O_R   0.663070 0.361810 0.833670 -0.546380
O3    O     O_R   0.163070 0.138190 0.333670 -0.546380
O4    O     O_R   0.836930 0.861810 0.666330 -0.546380
O5    O     O_R   0.147900 0.305430 0.139630 -0.538219
O6    O     O_R   0.852100 0.694570 0.860370 -0.538218
O7    O     O_R   0.352100 0.805430 0.360370 -0.538219
O8    O     O_R   0.647900 0.194570 0.639630 -0.538219
C1    C     C_R   0.115086 0.477590 0.113116 0.707381
C2    C     C_R   0.884913 0.522410 0.886883 0.707381
C3    C     C_R   0.384914 0.977590 0.386883 0.707380
C4    C     C_R   0.615086 0.022410 0.613116 0.707379
O9    O     O_R   0.335280 0.308290 0.154310 -0.508511
O10   O     O_R   0.664720 0.691710 0.845690 -0.508509
O11   O     O_R   0.164720 0.808290 0.345690 -0.508509
O12   O     O_R   0.835280 0.191710 0.654310 -0.508511
O13   O     O_R   0.351790 0.140890 0.348460 -0.533638
O14   O     O_R   0.648210 0.859110 0.651540 -0.533638
O15   O     O_R   0.148210 0.640890 0.151540 -0.533638
O16   O     O_R   0.851790 0.359110 0.848460 -0.533637
C5    C     C_R   0.363756 0.476766 0.132538 0.724367
C6    C     C_R   0.636243 0.523234 0.867461 0.724369
C7    C     C_R   0.136243 0.976766 0.367461 0.724369
C8    C     C_R   0.863756 0.023234 0.632538 0.724365
O17   O     O_3   0.255200 0.472570 0.313680 -0.372538
O18   O     O_3   0.744800 0.527430 0.686320 -0.372539
O19   O     O_3   0.244800 0.972570 0.186320 -0.372538
O20   O     O_3   0.755200 0.027430 0.813680 -0.372537
V1    V     V_3+5 0.249040 0.196590 0.238190 1.450193
V2    V     V_3+5 0.750960 0.803410 0.761810 1.450195
V3    V     V_3+5 0.250960 0.696590 0.261810 1.450195
V4    V     V_3+5 0.749040 0.303410 0.738190 1.450190
C9    C     C_R   0.041224 0.826690 0.486354 0.483794
C10   C     C_R   0.958775 0.173310 0.513645 0.483787
C11   C     C_R   0.458775 0.326690 0.013644 0.483788
C12   C     C_R   0.541225 0.673310 0.986355 0.483792
C13   C     C_R   0.974070 0.841866 0.547914 -0.316548
C14   C     C_R   0.025929 0.158134 0.452084 -0.316547
C15   C     C_R   0.525929 0.341866 0.952084 -0.316549
C16   C     C_R   0.474071 0.658134 0.047915 -0.316550
C17   C     C_R   0.932881 0.013880 0.563825 -0.215538
C18   C     C_R   0.067118 0.986120 0.436174 -0.215538
C19   C     C_R   0.567118 0.513880 0.936174 -0.215535
C20   C     C_R   0.432881 0.486120 0.063825 -0.215535
C21   C     C_1   0.533918 0.008212 0.533127 -0.185734
C22   C     C_1   0.466081 0.991788 0.466873 -0.185734
C23   C     C_1   0.966081 0.508211 0.966873 -0.185733
C24   C     C_1   0.033918 0.491788 0.033127 -0.185733
O21   O     O_3   0.077154 0.652819 0.471128 -0.540525
C25   C     C_3   0.143718 0.605767 0.555234 -0.194043
H1    H     H_    0.198845 0.713930 0.570908 0.103385
H2    H     H_    0.177375 0.473101 0.539499 0.153253
H3    H     H_    0.111076 0.582593 0.622065 0.129886
O22   O     O_3   0.922845 0.347181 0.528870 -0.540528
C26   C     C_3   0.856274 0.394222 0.444769 -0.194032
H4    H     H_    0.822626 0.526902 0.460498 0.153251
H5    H     H_    0.801142 0.286067 0.429114 0.103391
H6    H     H_    0.888904 0.417363 0.377929 0.129870
O23   O     O_3   0.422844 0.152820 0.028869 -0.540528
C27   C     C_3   0.356277 0.105774 0.944764 -0.194044
H7    H     H_    0.301148 0.213930 0.929101 0.103392
H8    H     H_    0.322625 0.973099 0.960494 0.153253
H9    H     H_    0.388913 0.082620 0.877930 0.129879
O24   O     O_3   0.577156 0.847180 0.971129 -0.540526
C28   C     C_3   0.643717 0.894234 0.055237 -0.194045
H10   H     H_    0.677372 0.026904 0.039504 0.153254
H11   H     H_    0.698846 0.786074 0.070910 0.103388
H12   H     H_    0.611075 0.917402 0.122067 0.129884
H13   H     H_    0.954870 0.716916 0.584038 0.199417
H14   H     H_    0.045128 0.283083 0.415960 0.199420
H15   H     H_    0.545128 0.216917 0.915959 0.199418
H16   H     H_    0.454871 0.783083 0.084040 0.199416

loop_
_geom_bond_atom_site_label_1
_geom_bond_atom_site_label_2
_ccdc_geom_bond_type
O2    C6    A    
C11   C15   A    
C26   H4    S    
C14   H14   S    
O1    C5    A    
O14   V2    S    
C13   H13   S    
O19   V1    S    
C5    C20   S    
O13   V1    S    
O22   C26   S    
O3    C7    A    
C23   C24   T    
C28   H11   S    
C16   C20   A    
O8    C4    A    
C28   H12   S    
O15   V3    S    
O24   C28   S    
O10   C6    A    
O20   V2    S    
C25   H1    S    
O9    C5    A    
O23   C27   S    
O12   C8    A    
C10   C14   A    
C21   C22   T    
C27   H8    S    
O7    C3    A    
C11   C20   A    
C10   C17   A    
O5    C1    A    
C7    C18   S    
C8    C17   S    
O10   V2    S    
C27   H9    S    
O12   V4    S    
C9    C18   A    
C11   O23   S    
O6    V2    S    
C10   O22   S    
O5    V1    S    
C26   H5    S    
O1    V3    S    
C13   C17   A    
O4    C8    A    
C9    C13   A    
C25   H2    S    
C25   H3    S    
O7    V3    S    
O6    C2    A    
O11   C7    A    
C9    O21   S    
O8    V4    S    
C14   C18   A    
C12   C16   A    
O11   V3    S    
C1    C24   S    
O2    V4    S    
O21   C25   S    
O16   V4    S    
C26   H6    S    
C4    O14   A    
C2    C23   S    
O3    V1    S    
C15   H15   S    
O18   V4    S    
C3    O13   A    
C3    C22   S    
C15   C19   A    
C16   H16   S    
C4    C21   S    
C12   O24   S    
O17   V3    S    
C1    O15   A    
O4    V2    S    
C6    C19   S    
O9    V1    S    
C2    O16   A    
C27   H7    S    
C12   C19   A    
C28   H10   S    
