data_mof_unit_29547.cif
_audit_creation_date              2013-03-05T15:49:01-0500
_audit_creation_method            fapswitch 2.2
_symmetry_space_group_name_H-M    P1
_symmetry_Int_Tables_number       1
_space_group_crystal_system       triclinic
_cell_length_a                    18.191729
_cell_length_b                    18.315023
_cell_length_c                    12.046218
_cell_angle_alpha                 90.000604
_cell_angle_beta                  86.70634
_cell_angle_gamma                 89.999846
_cell_volume                      4006.95250832

loop_
_atom_site_label
_atom_site_type_symbol
_atom_site_description
_atom_site_fract_x
_atom_site_fract_y
_atom_site_fract_z
_atom_type_partial_charge
O1    O     O_R   0.418020 0.076820 0.422210 -0.580290
O2    O     O_R   0.581980 0.923180 0.577790 -0.613688
O3    O     O_R   0.581980 0.076820 0.577790 -0.580774
O4    O     O_R   0.418020 0.923180 0.422210 -0.613727
O5    O     O_R   0.918020 0.576820 0.422210 -0.580618
O6    O     O_R   0.081980 0.423180 0.577790 -0.613728
O7    O     O_R   0.081980 0.576820 0.577790 -0.580401
O8    O     O_R   0.918020 0.423180 0.422210 -0.613729
O9    O     O_R   0.430370 0.076830 0.608590 -0.632646
O10   O     O_R   0.569630 0.923170 0.391410 -0.626182
O11   O     O_R   0.569630 0.076830 0.391410 -0.632189
O12   O     O_R   0.430370 0.923170 0.608590 -0.626136
O13   O     O_R   0.930370 0.576830 0.608590 -0.632304
O14   O     O_R   0.069630 0.423170 0.391410 -0.626148
O15   O     O_R   0.069630 0.576830 0.391410 -0.632520
O16   O     O_R   0.930370 0.423170 0.608590 -0.626168
C1    C     C_R   0.401311 0.101107 0.520632 0.889487
C2    C     C_R   0.598218 0.898250 0.479479 0.938607
C3    C     C_R   0.598677 0.101121 0.479373 0.889966
C4    C     C_R   0.401780 0.898251 0.520521 0.938616
C5    C     C_R   0.901321 0.601119 0.520628 0.889852
C6    C     C_R   0.098221 0.398252 0.479478 0.938615
C7    C     C_R   0.098684 0.601112 0.479370 0.889606
C8    C     C_R   0.901782 0.398250 0.520521 0.938659
C9    C     C_R   0.588244 0.004355 0.832818 0.332883
C10   C     C_R   0.411755 0.004346 0.167181 0.332835
C11   C     C_R   0.088245 0.504348 0.832819 0.332847
C12   C     C_R   0.911755 0.504344 0.167181 0.332872
Zn1   Zn    Zn3+2 0.491750 0.000000 0.375560 0.962146
Zn2   Zn    Zn3+2 0.508250 0.000000 0.624440 0.961924
Zn3   Zn    Zn3+2 0.991750 0.500000 0.375560 0.961982
Zn4   Zn    Zn3+2 0.008250 0.500000 0.624440 0.962086
C13   C     C_R   0.596504 0.999526 0.948142 -0.312945
C14   C     C_R   0.403496 0.999514 0.051857 -0.312933
C15   C     C_R   0.096504 0.499520 0.948143 -0.312930
C16   C     C_R   0.903496 0.499514 0.051857 -0.312929
C17   C     C_R   0.458316 0.996020 0.861603 -0.076276
C18   C     C_R   0.541685 0.996027 0.138397 -0.076294
C19   C     C_R   0.958315 0.496024 0.861603 -0.076310
C20   C     C_R   0.041685 0.496027 0.138397 -0.076299
C21   C     C_R   0.655439 0.154778 0.467597 -0.155189
C22   C     C_R   0.345616 0.843587 0.532074 -0.140847
C23   C     C_R   0.344564 0.154780 0.532413 -0.155371
C24   C     C_R   0.654378 0.843582 0.467926 -0.140852
C25   C     C_R   0.155432 0.654784 0.467593 -0.155308
C26   C     C_R   0.845621 0.343585 0.532072 -0.140843
C27   C     C_R   0.844564 0.654781 0.532402 -0.155223
C28   C     C_R   0.154387 0.343588 0.467924 -0.140838
C29   C     C_R   0.236995 0.799776 0.633074 -0.172724
C30   C     C_R   0.767224 0.193971 0.370516 -0.181980
C31   C     C_R   0.762998 0.799770 0.366927 -0.172453
C32   C     C_R   0.232795 0.193998 0.629504 -0.181944
C33   C     C_R   0.736982 0.299795 0.633046 -0.172248
C34   C     C_R   0.267190 0.694010 0.370481 -0.181961
C35   C     C_R   0.263022 0.299788 0.366943 -0.172823
C36   C     C_R   0.732792 0.693989 0.629499 -0.181982
C37   C     C_R   0.297044 0.845617 0.626008 -0.312765
C38   C     C_R   0.706060 0.149590 0.376541 -0.301837
C39   C     C_R   0.702951 0.845613 0.373994 -0.312862
C40   C     C_R   0.293948 0.149604 0.623474 -0.301779
C41   C     C_R   0.797030 0.345636 0.625984 -0.312937
C42   C     C_R   0.206036 0.649619 0.376515 -0.301793
C43   C     C_R   0.202969 0.345626 0.374001 -0.312733
C44   C     C_R   0.793953 0.649606 0.623472 -0.301818
C45   C     C_R   0.336647 0.793725 0.445272 0.476133
C46   C     C_R   0.664033 0.205790 0.552809 0.463550
C47   C     C_R   0.663345 0.793717 0.554725 0.476130
C48   C     C_R   0.335994 0.205805 0.447213 0.463326
C49   C     C_R   0.836668 0.293705 0.445288 0.476154
C50   C     C_R   0.164018 0.705796 0.552810 0.463338
C51   C     C_R   0.163349 0.293721 0.554720 0.476122
C52   C     C_R   0.835966 0.705784 0.447180 0.463448
C53   C     C_R   0.276727 0.746201 0.453317 -0.003742
C54   C     C_R   0.725509 0.250882 0.546550 0.007300
C55   C     C_R   0.723258 0.746185 0.546671 -0.003822
C56   C     C_R   0.274513 0.250897 0.453461 0.007199
C57   C     C_R   0.776752 0.246175 0.453336 -0.003892
C58   C     C_R   0.225496 0.750891 0.546551 0.007232
C59   C     C_R   0.223270 0.246198 0.546679 -0.003710
C60   C     C_R   0.774489 0.750877 0.453441 0.007275
N1    N     N_R   0.480750 1.000000 0.209750 -0.100205
N2    N     N_R   0.519250 0.000000 0.790250 -0.100201
N3    N     N_R   0.980750 0.500000 0.209750 -0.100209
N4    N     N_R   0.019250 0.500000 0.790250 -0.100209
H1    H     H_    0.595544 0.994731 0.172247 0.125649
H2    H     H_    0.404457 0.994717 0.827753 0.125666
H3    H     H_    0.095544 0.494730 0.172247 0.125665
H4    H     H_    0.904456 0.494723 0.827752 0.125660
H5    H     H_    0.700195 0.108589 0.312733 0.175344
H6    H     H_    0.304012 0.884693 0.692173 0.175108
H7    H     H_    0.299805 0.108601 0.687278 0.175361
H8    H     H_    0.695987 0.884692 0.307835 0.175106
H9    H     H_    0.200170 0.608625 0.312699 0.175364
H10   H     H_    0.803983 0.384730 0.692130 0.175099
H11   H     H_    0.799822 0.608612 0.687286 0.175357
H12   H     H_    0.196006 0.384706 0.307842 0.175102
H13   H     H_    0.699233 0.303623 0.705694 0.196438
H14   H     H_    0.307260 0.685805 0.301980 0.185167
H15   H     H_    0.300761 0.303600 0.294283 0.196460
H16   H     H_    0.692716 0.685776 0.697990 0.185182
H17   H     H_    0.199263 0.803583 0.705744 0.196451
H18   H     H_    0.807303 0.185754 0.302031 0.185181
H19   H     H_    0.800734 0.803582 0.294262 0.196440
H20   H     H_    0.192717 0.185786 0.697991 0.185165
H21   H     H_    0.650780 0.002275 0.980734 0.145725
H22   H     H_    0.349221 0.002255 0.019263 0.145727
H23   H     H_    0.150780 0.502264 0.980736 0.145727
H24   H     H_    0.849220 0.502255 0.019264 0.145723
C61   C     C_R   0.465046 0.996104 0.978209 0.049591
C62   C     C_R   0.534955 0.996109 0.021791 0.049589
C63   C     C_R   0.965046 0.496106 0.978209 0.049584
C64   C     C_R   0.034954 0.496108 0.021791 0.049586
C65   C     C_3   0.343226 0.020191 0.239055 -0.828026
H25   H     H_    0.292719 0.009829 0.193846 0.188856
H26   H     H_    0.338415 0.985754 0.313706 0.251675
H27   H     H_    0.342201 0.078709 0.262151 0.285061
C66   C     C_3   0.656768 0.020217 0.760944 -0.828041
H28   H     H_    0.707279 0.009843 0.806140 0.188847
H29   H     H_    0.661573 0.985803 0.686267 0.251710
H30   H     H_    0.657787 0.078743 0.737883 0.285044
C67   C     C_3   0.843225 0.520186 0.239056 -0.827999
H31   H     H_    0.792718 0.509829 0.193843 0.188852
H32   H     H_    0.838413 0.485745 0.313703 0.251679
H33   H     H_    0.842202 0.578704 0.262160 0.285081
C68   C     C_3   0.156774 0.520191 0.760945 -0.828001
H34   H     H_    0.207281 0.509832 0.806155 0.188852
H35   H     H_    0.161585 0.485753 0.686294 0.251670
H36   H     H_    0.157798 0.578709 0.737846 0.285093
O17   O     O_3   0.616844 0.206987 0.647480 -0.607904
C69   C     C_3   0.554760 0.250245 0.627941 -0.338812
H37   H     H_    0.511522 0.216012 0.593031 0.172442
H38   H     H_    0.567562 0.298374 0.573381 0.136314
H39   H     H_    0.531849 0.271554 0.708912 0.198171
O18   O     O_3   0.389632 0.788491 0.357758 -0.602994
C70   C     C_3   0.364097 0.821466 0.260719 -0.259016
H40   H     H_    0.314800 0.857164 0.275393 0.132929
H41   H     H_    0.351740 0.779067 0.198859 0.151708
H42   H     H_    0.409155 0.855256 0.222094 0.207636
O19   O     O_3   0.383173 0.206948 0.352531 -0.607805
C71   C     C_3   0.445110 0.250409 0.372036 -0.337791
H43   H     H_    0.487669 0.216871 0.410039 0.169751
H44   H     H_    0.431621 0.299645 0.423879 0.137487
H45   H     H_    0.469221 0.270007 0.290746 0.198796
O20   O     O_3   0.610371 0.788499 0.642257 -0.602998
C72   C     C_3   0.635926 0.821491 0.739271 -0.258847
H46   H     H_    0.685160 0.857269 0.724532 0.132961
H47   H     H_    0.648396 0.779101 0.801088 0.151623
H48   H     H_    0.590838 0.855211 0.777983 0.207589
O21   O     O_3   0.116861 0.706927 0.647518 -0.607854
C73   C     C_3   0.054889 0.750355 0.628077 -0.337945
H49   H     H_    0.012187 0.716685 0.590677 0.170290
H50   H     H_    0.068235 0.799398 0.575730 0.137262
H51   H     H_    0.031030 0.770261 0.709348 0.198656
O22   O     O_3   0.889659 0.288469 0.357782 -0.603003
C74   C     C_3   0.864127 0.321438 0.260736 -0.258942
H52   H     H_    0.814845 0.357158 0.275410 0.132944
H53   H     H_    0.851745 0.279033 0.198895 0.151682
H54   H     H_    0.909196 0.355207 0.222090 0.207614
O23   O     O_3   0.883130 0.706940 0.352480 -0.607886
C75   C     C_3   0.945163 0.750286 0.371935 -0.338481
H55   H     H_    0.988205 0.716292 0.407836 0.171587
H56   H     H_    0.932138 0.798792 0.425598 0.136703
H57   H     H_    0.968434 0.771023 0.290817 0.198360
O24   O     O_3   0.110357 0.288483 0.642224 -0.603003
C76   C     C_3   0.135883 0.321456 0.739273 -0.258974
H58   H     H_    0.185172 0.357169 0.724606 0.132934
H59   H     H_    0.148252 0.279054 0.801124 0.151693
H60   H     H_    0.090814 0.355233 0.777904 0.207628

loop_
_geom_bond_atom_site_label_1
_geom_bond_atom_site_label_2
_geom_bond_distance
_ccdc_geom_bond_type
C70   H42   1.107948 S    
C6    C28   1.431537 S    
C76   H58   1.115719 S    
C7    C25   1.426647 S    
C16   H24   1.084489 S    
C66   H28   1.111007 S    
O13   Zn4   2.013659 S    
C49   C57   1.393952 A    
C33   C54   1.398833 A    
C56   C59   1.420239 A    
O14   Zn3   2.013660 S    
C51   C59   1.393945 A    
C72   H46   1.115724 S    
C29   C37   1.376512 A    
C70   H40   1.115689 S    
C20   C64   1.416976 A    
O11   C3    1.290061 A    
C52   O23   1.387624 S    
C20   H3    1.082930 S    
C11   N4    1.385147 A    
C71   H44   1.116142 S    
C19   N4    1.365068 A    
O17   C69   1.410414 S    
C66   H29   1.097782 S    
C29   H17   1.083183 S    
O7    C7    1.286279 A    
C40   H7    1.084198 S    
C74   H53   1.108207 S    
C24   C39   1.395584 A    
C31   H19   1.083180 S    
C46   C54   1.388793 A    
C25   C42   1.394310 A    
Zn3   N3    2.018791 S    
C29   C58   1.398839 A    
C31   C60   1.398832 A    
C26   C49   1.404834 A    
C32   C40   1.376463 A    
C33   C41   1.376497 A    
C10   C14   1.408652 A    
C63   C64   1.403459 A    
C23   C48   1.403364 A    
C67   H33   1.107187 S    
C73   H51   1.109478 S    
C35   C43   1.376523 A    
C68   H36   1.107185 S    
C53   C58   1.420235 A    
C36   C44   1.376481 A    
O3    C3    1.286283 A    
C18   C62   1.416978 A    
C32   C59   1.399786 A    
C55   C60   1.420216 A    
C17   C61   1.416974 A    
C45   O18   1.390276 S    
C46   O17   1.387624 S    
O15   C7    1.290050 A    
C76   H59   1.108216 S    
C36   C55   1.399788 A    
C74   H54   1.107971 S    
C20   N3    1.365067 A    
O24   C76   1.417536 S    
C50   O21   1.387616 S    
C19   H4    1.082928 S    
C47   O20   1.390273 S    
C22   C37   1.395596 A    
C72   H47   1.108227 S    
Zn4   N4    2.018791 S    
C51   O24   1.390281 S    
C26   C41   1.395584 A    
C30   C38   1.376500 A    
C75   H57   1.109411 S    
C17   H2    1.082931 S    
C13   H21   1.084490 S    
C71   H43   1.107710 S    
C37   H6    1.084030 S    
C45   C53   1.393944 A    
C27   C44   1.394319 A    
C41   H10   1.084029 S    
O20   C72   1.417533 S    
C28   C43   1.395600 A    
C34   C42   1.376463 A    
C11   C15   1.408654 A    
C43   H12   1.084030 S    
C54   C57   1.420214 A    
C65   H26   1.097761 S    
O5    C5    1.286271 A    
C75   H56   1.116088 S    
Zn2   N2    2.018791 S    
O3    Zn2   2.001941 S    
C69   H38   1.116082 S    
C1    C23   1.426642 S    
Zn1   N1    2.018791 S    
C2    C24   1.431517 S    
C22   C45   1.404826 A    
C34   C53   1.399786 A    
O23   C75   1.410329 S    
C18   H1    1.082929 S    
O12   C4    1.291393 A    
C16   C63   1.389455 A    
O1    Zn1   2.001928 S    
C67   H31   1.111004 S    
O13   C5    1.290064 A    
C71   H45   1.109408 S    
O11   Zn1   2.013662 S    
O22   C74   1.417534 S    
O18   C70   1.417529 S    
O9    Zn2   2.013659 S    
C35   C56   1.398841 A    
C23   C40   1.394297 A    
O9    C1    1.290041 A    
C76   H60   1.107971 S    
C30   H18   1.079688 S    
C10   N1    1.385146 A    
C18   N1    1.365072 A    
C68   H34   1.111002 S    
C73   H50   1.116163 S    
C17   N2    1.365067 A    
C66   H30   1.107202 S    
C69   H39   1.109372 S    
C47   C55   1.393939 A    
C36   H16   1.079688 S    
C28   C51   1.404822 A    
C30   C57   1.399794 A    
C72   H48   1.107995 S    
C65   H25   1.110984 S    
C50   C58   1.388858 A    
C70   H41   1.108185 S    
C32   H20   1.079683 S    
O7    Zn4   2.001941 S    
O12   Zn2   2.013663 S    
C25   C50   1.403377 A    
C12   C67   1.504649 S    
O8    Zn3   2.001943 S    
O4    Zn1   2.001943 S    
C44   H11   1.084199 S    
O2    C2    1.287653 A    
C24   C47   1.404840 A    
C9    C66   1.504643 S    
C21   C38   1.394326 A    
C4    C22   1.431528 S    
O19   C71   1.410242 S    
O15   Zn3   2.013662 S    
C21   C46   1.403361 A    
C48   C56   1.388874 A    
O1    C1    1.286280 A    
C49   O22   1.390273 S    
O2    Zn2   2.001929 S    
C33   H13   1.083182 S    
C75   H55   1.107566 S    
C65   H27   1.107177 S    
C69   H37   1.107545 S    
C10   C65   1.504650 S    
C8    C26   1.431508 S    
C52   C60   1.388815 A    
O21   C73   1.410241 S    
C11   C68   1.504649 S    
O10   Zn1   2.013660 S    
O14   C6    1.291393 A    
C9    N2    1.385137 A    
O10   C2    1.291396 A    
O16   Zn4   2.013663 S    
C19   C63   1.416976 A    
O8    C8    1.287651 A    
C14   H22   1.084489 S    
C39   H8    1.084028 S    
C38   H5    1.084198 S    
C5    C27   1.426645 S    
C27   C52   1.403371 A    
C67   H32   1.097775 S    
C15   H23   1.084490 S    
O4    C4    1.287661 A    
C31   C39   1.376499 A    
C12   C16   1.408653 A    
O16   C8    1.291392 A    
O6    Zn4   2.001929 S    
C42   H9    1.084200 S    
C35   H15   1.083184 S    
C74   H52   1.115710 S    
C68   H35   1.097776 S    
C14   C61   1.389455 A    
C73   H49   1.107665 S    
C34   H14   1.079684 S    
C48   O19   1.387603 S    
C13   C62   1.389460 A    
O5    Zn3   2.001928 S    
C61   C62   1.403459 A    
C15   C64   1.389451 A    
C3    C21   1.426655 S    
C9    C13   1.408655 A    
C12   N3    1.385146 A    
O6    C6    1.287663 A    
