data_mof_unit_10459.cif
_audit_creation_date              2013-03-05T15:50:58-0500
_audit_creation_method            fapswitch 2.2
_symmetry_space_group_name_H-M    P1
_symmetry_Int_Tables_number       1
_space_group_crystal_system       triclinic
_cell_length_a                    11.711908
_cell_length_b                    10.868397
_cell_length_c                    9.585912
_cell_angle_alpha                 90.386228
_cell_angle_beta                  90.030557
_cell_angle_gamma                 92.51668
_cell_volume                      1218.98252412

loop_
_atom_site_label
_atom_site_type_symbol
_atom_site_description
_atom_site_fract_x
_atom_site_fract_y
_atom_site_fract_z
_atom_type_partial_charge
O1    O     O_R   0.499990 0.319640 0.618810 -0.594286
O2    O     O_R   0.500000 0.319660 0.381240 -0.580399
C1    C     C_R   0.509107 0.263093 0.500333 0.797528
O3    O     O_R   0.337190 0.500000 0.618790 -0.570777
O4    O     O_R   0.337200 0.500030 0.381210 -0.569070
C2    C     C_R   0.284071 0.499712 0.499972 0.829017
Cu1   Cu    Cu3+1 0.499990 0.499990 0.640660 0.939122
Cu2   Cu    Cu3+1 0.500010 0.500010 0.359340 0.946375
O5    O     O_R   0.500000 0.680340 0.618760 -0.611634
O6    O     O_R   0.500010 0.680360 0.381190 -0.600622
O7    O     O_R   0.662800 0.499970 0.618790 -0.590523
O8    O     O_R   0.662810 0.500000 0.381210 -0.589267
C3    C     C_R   0.494006 0.737636 0.501522 0.797384
C4    C     C_R   0.715927 0.500470 0.500047 0.815182
C5    C     C_1   0.162358 0.500107 0.499956 -0.167834
C6    C     C_1   0.059899 0.500453 0.500031 0.023779
C7    C     C_1   0.940087 0.500707 0.500124 0.031718
C8    C     C_1   0.837626 0.500705 0.500136 -0.144922
H1    H     H_    0.496660 0.109370 0.279299 0.161525
C9    C     C_R   0.573937 0.122552 0.754925 -0.113648
H2    H     H_    0.620361 0.210707 0.754307 0.163425
C10   C     C_R   0.559984 0.064819 0.883439 -0.106182
H3    H     H_    0.590090 0.110732 0.977974 0.139170
C11   C     C_R   0.503400 0.950169 0.890389 -0.145202
H4    H     H_    0.486443 0.907911 0.990681 0.134765
C12   C     C_R   0.471602 0.887928 0.767844 -0.151627
H5    H     H_    0.423613 0.801778 0.780392 0.170010
C13   C     C_R   0.496990 0.939686 0.635164 0.120972
C14   C     C_R   0.531262 0.065460 0.630792 0.100251
C15   C     C_R   0.519717 0.129318 0.503055 -0.118341
C16   C     C_R   0.502713 0.063016 0.378585 -0.193070
H6    H     H_    0.486200 0.887302 0.281100 0.164675
C17   C     C_R   0.493148 0.935837 0.380059 -0.201510
C18   C     C_R   0.489893 0.872364 0.506860 -0.099918
H7    H     H_    0.373583 0.357657 0.128036 0.140269
C19   C     C_R   0.649815 0.665849 0.145183 -0.222620
H8    H     H_    0.658943 0.671849 0.255065 0.224200
C20   C     C_R   0.721037 0.749170 0.074036 -0.290626
H9    H     H_    0.776446 0.812561 0.133239 0.202937
C21   C     C_R   0.721608 0.750740 0.929413 0.340716
C22   C     C_R   0.649741 0.666138 0.857330 -0.237073
H10   H     H_    0.656532 0.670409 0.747625 0.237256
C23   C     C_R   0.573532 0.581804 0.925968 0.140631
C24   C     C_R   0.573483 0.581737 0.075398 0.218912
N1    N     N_R   0.501070 0.501210 0.147910 -0.190602
C25   C     C_R   0.430502 0.421774 0.073273 -0.058548
H11   H     H_    0.373731 0.357602 0.869413 0.146292
C26   C     C_R   0.430556 0.421779 0.925292 -0.052467
N2    N     N_R   0.501110 0.501290 0.852040 -0.192667
N3    N     N_R   0.794629 0.838396 0.855426 0.137887
O9    O     O_R   0.862232 0.915990 0.923256 -0.353973
O10   O     O_R   0.792382 0.843571 0.719815 -0.376589

loop_
_geom_bond_atom_site_label_1
_geom_bond_atom_site_label_2
_geom_bond_distance
_ccdc_geom_bond_type
O4    Cu2   1.918427 S    
N3    O10   1.301860 A    
C23   C24   1.432423 A    
C16   C17   1.382020 A    
C21   C22   1.397939 A    
C14   C15   1.420848 A    
C1    C15   1.465057 S    
C22   H10   1.055848 S    
C4    C8    1.425216 S    
C12   C13   1.420496 A    
H11   C26   1.081746 S    
Cu2   O8    1.918082 S    
H1    C16   1.083595 S    
H6    C17   1.083576 S    
C9    H2    1.080716 S    
C19   C20   1.386929 A    
C7    C8    1.200018 T    
O8    C4    1.297540 A    
C13   C18   1.427365 A    
C3    C18   1.467740 S    
O1    Cu1   1.969870 S    
N1    C25   1.367007 A    
C11   H4    1.082960 S    
Cu1   O7    1.918426 S    
C22   C23   1.416541 A    
C12   H5    1.078160 S    
C20   H9    1.083031 S    
O3    Cu1   1.918084 S    
C21   N3    1.442293 S    
O4    C2    1.297642 A    
C10   C11   1.387427 A    
O3    C2    1.297434 A    
C13   C14   1.408570 A    
C20   C21   1.386576 A    
C9    C10   1.392723 A    
C17   C18   1.401369 A    
O2    C1    1.306797 A    
C9    C14   1.418773 A    
C15   C16   1.399323 A    
O7    C4    1.297447 A    
C25   C26   1.418539 A    
C19   C24   1.414835 A    
C5    C6    1.200162 T    
Cu1   Cu2   2.696710 S    
C24   N1    1.382766 A    
Cu1   N2    2.026256 S    
C19   H8    1.059955 S    
O2    Cu2   1.972727 S    
Cu1   O5    1.972727 S    
O5    C3    1.291852 A    
C10   H3    1.082888 S    
C26   N2    1.367013 A    
N3    O9    1.301636 A    
C2    C5    1.425690 S    
Cu2   N1    2.026920 S    
H7    C25   1.081696 S    
Cu2   O6    1.969870 S    
C23   N2    1.383184 A    
C11   C12   1.393888 A    
C6    C7    1.403342 S    
O1    C1    1.294382 A    
O6    C3    1.310438 A    
