data_mof_unit_23181.cif
_audit_creation_date              2012-12-10T16:57:10-0500
_audit_creation_method            fapswitch 2.2
_symmetry_space_group_name_H-M    P1
_symmetry_Int_Tables_number       1
_space_group_crystal_system       triclinic
_cell_length_a                    7.77365
_cell_length_b                    8.578782
_cell_length_c                    16.556264
_cell_angle_alpha                 91.918954
_cell_angle_beta                  80.172907
_cell_angle_gamma                 93.772874
_cell_volume                      1085.27533591

loop_
_atom_site_label
_atom_site_type_symbol
_atom_type_description
_atom_site_fract_x
_atom_site_fract_y
_atom_site_fract_z
_atom_type_partial_charge
C1    C     C_R   0.546228 0.794828 0.497966 0.961227
C2    C     C_R   0.395248 0.520212 0.220082 -0.361849
C3    C     C_R   0.610974 0.734523 0.833626 0.448360
C4    C     C_R   0.404905 0.565434 0.139099 0.477765
C5    C     C_R   0.457940 0.717295 0.892288 -0.080129
C6    C     C_R   0.566197 0.625221 0.095641 -0.140586
C7    C     C_R   0.305843 0.635509 0.872344 0.309897
C8    C     C_R   0.718122 0.633067 0.131903 0.397229
C9    C     C_R   0.314483 0.557217 0.795708 0.418409
C10   C     C_R   0.709173 0.576949 0.210470 0.414347
C11   C     C_2   0.473086 0.742255 0.978724 -0.017542
C12   C     C_R   0.453764 0.205176 0.502117 0.966137
C13   C     C_2   0.581991 0.653887 0.008321 -0.100865
C14   C     C_2   0.570581 0.958286 0.496843 -0.362429
C15   C     C_2   0.429401 0.041708 0.503368 -0.365675
C16   C     C_R   0.477801 0.509897 0.654749 0.967847
C17   C     C_R   0.524555 0.500681 0.344832 0.937016
C18   C     C_R   0.471825 0.567652 0.739078 -0.198161
C19   C     C_R   0.545204 0.526659 0.256551 -0.291033
C20   C     C_R   0.616911 0.658484 0.757578 -0.404719
H1    H     H_    0.734855 0.672236 0.712236 0.183194
H2    H     H_    0.070007 0.474722 0.818633 0.386090
H3    H     H_    0.148992 0.709371 0.967976 0.373000
H4    H     H_    0.862178 0.757574 0.046297 0.348837
H5    H     H_    0.160138 0.499738 0.138620 0.372688
H6    H     H_    0.852675 0.818063 0.806662 0.344127
H7    H     H_    0.270092 0.479403 0.254629 0.190132
H8    H     H_    0.676516 0.587935 0.967045 0.188906
H9    H     H_    0.377333 0.806372 0.020044 0.168536
H10   H     H_    0.703851 0.009447 0.490627 0.182844
H11   H     H_    0.296130 0.990540 0.509599 0.182811
H12   H     H_    0.022977 0.380012 0.439084 0.187565
H13   H     H_    0.977032 0.620051 0.560883 0.189572
H14   H     H_    0.876268 0.472015 0.257314 0.326508
N1    N     N_2   0.953500 0.457650 0.478520 -0.162978
N2    N     N_2   0.046500 0.542350 0.521480 -0.158817
O1    O     O_R   0.388470 0.738640 0.505270 -0.617896
O2    O     O_3   0.172806 0.468599 0.774490 -0.740875
O3    O     O_3   0.151635 0.621369 0.927835 -0.725748
O4    O     O_3   0.878845 0.692551 0.092286 -0.694460
O5    O     O_3   0.260210 0.548124 0.100550 -0.701062
O6    O     O_3   0.755147 0.820353 0.853825 -0.745168
O7    O     O_R   0.611530 0.261360 0.494730 -0.615362
O8    O     O_R   0.679650 0.711510 0.491500 -0.623569
O9    O     O_R   0.320350 0.288490 0.508500 -0.624629
O10   O     O_R   0.337210 0.515200 0.623500 -0.563306
O11   O     O_R   0.662790 0.484800 0.376500 -0.601603
O12   O     O_R   0.628380 0.488060 0.609730 -0.633515
O13   O     O_R   0.371620 0.511940 0.390270 -0.620399
O14   O     O_3   0.862172 0.580580 0.241948 -0.708542
Zn1   Zn    Zn3+2 0.305580 0.518120 0.509190 0.976012
Zn2   Zn    Zn3+2 0.694420 0.481880 0.490810 0.961862

loop_
_geom_bond_atom_site_label_1
_geom_bond_atom_site_label_2
_ccdc_geom_bond_type
C2    C4    A    
C13   H8    S    
C15   H11   S    
C2    H7    S    
C1    O8    A    
N1    N2    D    
C12   C15   S    
C1    O1    A    
C10   C19   A    
C3    C5    A    
C16   O12   A    
C3    C20   A    
C3    O6    S    
C6    C13   S    
C11   C13   D    
O8    Zn2   S    
O11   Zn2   S    
N2    Zn1   S    
C14   H10   S    
H3    O3    S    
C8    C10   A    
C9    O2    S    
H4    O4    S    
C5    C11   S    
C12   O7    A    
C18   C20   A    
C11   H9    S    
C16   O10   A    
O1    Zn1   S    
O7    Zn2   S    
H14   O14   S    
C4    C6    A    
C4    O5    S    
O9    Zn1   S    
C17   O13   A    
C10   O14   S    
H12   N1    S    
C7    C9    A    
C9    C18   A    
O12   Zn2   S    
H13   N2    S    
C20   H1    S    
H6    O6    S    
C16   C18   S    
H5    O5    S    
N1    Zn2   S    
C5    C7    A    
C7    O3    S    
C14   C15   D    
C6    C8    A    
C1    C14   S    
C8    O4    S    
C17   C19   S    
C2    C19   A    
O10   Zn1   S    
C17   O11   A    
C12   O9    A    
O13   Zn1   S    
H2    O2    S    
