data_mof_unit_39981.cif
_audit_creation_date              2012-12-11T14:22:58-0500
_audit_creation_method            fapswitch 2.2
_symmetry_space_group_name_H-M    P1
_symmetry_Int_Tables_number       1
_space_group_crystal_system       triclinic
_cell_length_a                    10.989659
_cell_length_b                    10.936493
_cell_length_c                    18.834041
_cell_angle_alpha                 90.148644
_cell_angle_beta                  89.680709
_cell_angle_gamma                 60.302365
_cell_volume                      1966.24040887

loop_
_atom_site_label
_atom_site_type_symbol
_atom_type_description
_atom_site_fract_x
_atom_site_fract_y
_atom_site_fract_z
_atom_type_partial_charge
C1    C     C_R   0.239300 0.644296 0.610866 0.541282
C2    C     C_3   0.676828 0.548680 0.800320 -0.297362
C3    C     C_3   0.698673 0.676023 0.811812 0.092378
C4    C     C_3   0.668480 0.647353 0.676527 0.028212
C5    C     C_3   0.813368 0.632348 0.689488 -0.252996
C6    C     C_3   0.654275 0.534672 0.720978 -0.234268
C7    C     C_R   0.689473 0.168899 0.826477 0.004220
C8    C     C_R   0.806208 0.144594 0.783357 0.023458
C9    C     C_R   0.793429 0.145152 0.708071 0.017473
C10   C     C_R   0.545252 0.226664 0.722808 -0.137143
C11   C     C_R   0.558915 0.221128 0.795177 -0.133984
C12   C     C_R   0.652751 0.621326 0.601331 0.542459
C13   C     C_R   0.933871 0.122359 0.812202 -0.092180
C14   C     C_R   0.047390 0.093192 0.768173 -0.135428
C15   C     C_R   0.037428 0.083772 0.695130 -0.131843
C16   C     C_R   0.913243 0.105490 0.665305 -0.089701
C17   C     C_R   0.660535 0.187601 0.677989 -0.001424
C18   C     C_R   0.193068 0.656925 0.837195 -0.007970
C19   C     C_R   0.195070 0.543597 0.799350 0.018887
C20   C     C_R   0.188241 0.548015 0.723956 0.013549
C21   C     C_R   0.225761 0.748948 0.727601 -0.149454
C22   C     C_R   0.220046 0.751310 0.800758 -0.157168
C23   C     C_R   0.627103 0.230151 0.603577 0.526925
C24   C     C_R   0.202896 0.426452 0.834847 -0.104151
C25   C     C_R   0.191446 0.322729 0.797825 -0.149343
C26   C     C_R   0.168864 0.334956 0.725062 -0.158351
C27   C     C_R   0.165690 0.446966 0.688379 -0.123441
C28   C     C_R   0.205124 0.652628 0.687514 -0.001871
C29   C     C_R   0.662157 0.676545 0.171103 0.006193
C30   C     C_R   0.722121 0.540397 0.199630 0.025043
C31   C     C_R   0.754241 0.523614 0.272195 0.040923
C32   C     C_R   0.617374 0.777014 0.290209 -0.165136
C33   C     C_R   0.620316 0.792844 0.216960 -0.136827
C34   C     C_R   0.283900 0.623711 0.392287 0.565748
C35   C     C_R   0.772503 0.420227 0.155307 -0.082324
C36   C     C_R   0.883299 0.292810 0.177071 -0.115798
C37   C     C_R   0.932843 0.279103 0.245781 -0.149924
C38   C     C_R   0.868245 0.391666 0.293442 -0.085142
C39   C     C_R   0.676941 0.642579 0.318570 0.004088
C40   C     C_R   0.655961 0.152372 0.177451 -0.001143
C41   C     C_R   0.523135 0.207905 0.209248 0.018487
C42   C     C_R   0.517099 0.191486 0.282640 0.034658
C43   C     C_R   0.766017 0.115926 0.292502 -0.155195
C44   C     C_R   0.776870 0.098571 0.219974 -0.139308
C45   C     C_R   0.646119 0.621068 0.392293 0.538335
C46   C     C_R   0.398320 0.265967 0.169170 -0.085806
C47   C     C_R   0.275623 0.280938 0.198670 -0.125409
C48   C     C_R   0.272576 0.249358 0.269606 -0.155075
C49   C     C_R   0.392344 0.200932 0.310657 -0.095610
C50   C     C_R   0.636233 0.167113 0.324465 0.004238
C51   C     C_R   0.173979 0.655546 0.175734 -0.002354
C52   C     C_R   0.257418 0.712299 0.198231 0.025929
C53   C     C_R   0.271447 0.725750 0.271402 0.019061
C54   C     C_R   0.167164 0.577442 0.293915 -0.134420
C55   C     C_R   0.126399 0.591850 0.223986 -0.149897
C56   C     C_R   0.615592 0.226807 0.395602 0.542174
C57   C     C_R   0.306219 0.777095 0.149660 -0.084123
C58   C     C_R   0.323632 0.887917 0.172052 -0.109801
C59   C     C_R   0.316296 0.917599 0.243934 -0.149335
C60   C     C_R   0.303249 0.830673 0.293374 -0.106421
C61   C     C_R   0.240943 0.642551 0.318492 0.008516
C62   C     C_R   0.702796 0.104360 0.896743 0.556156
C63   C     C_R   0.724464 0.688788 0.887836 0.559423
C64   C     C_R   0.121940 0.703164 0.906714 0.533552
C65   C     C_R   0.676096 0.105916 0.104211 0.524851
C66   C     C_R   0.696650 0.691217 0.097982 0.526418
C67   C     C_3   0.567282 0.810682 0.782408 0.119811
C68   C     C_R   0.097795 0.706175 0.110505 0.533878
C69   C     C_3   0.555289 0.795565 0.701747 -0.197574
C70   C     C_3   0.829828 0.652860 0.768833 -0.199502
Cr1   Cr    Cr6+3 0.392940 0.397950 0.502230 0.995605
Cr2   Cr    Cr6+3 0.398400 0.708500 0.501260 0.986163
Cr3   Cr    Cr6+3 0.708640 0.393530 0.496460 0.994256
Cr4   Cr    Cr6+3 0.937880 0.938320 0.007620 0.989595
Cr5   Cr    Cr6+3 0.625560 0.937220 0.994510 1.012518
Cr6   Cr    Cr6+3 0.938080 0.625010 0.001190 0.995869
H1    H     H_    0.732919 0.426947 0.702985 0.161534
H2    H     H_    0.923923 0.558027 0.788501 0.155997
H3    H     H_    0.895836 0.525714 0.672536 0.145196
H4    H     H_    0.441786 0.264105 0.701946 0.164811
H5    H     H_    0.946471 0.133732 0.868131 0.138346
H6    H     H_    0.467903 0.245722 0.827068 0.140754
H7    H     H_    0.145462 0.072975 0.790922 0.085579
H8    H     H_    0.127205 0.057410 0.661340 0.101269
H9    H     H_    0.913264 0.089631 0.608678 0.135103
H10   H     H_    0.247306 0.824041 0.702236 0.135125
H11   H     H_    0.471838 0.821058 0.809444 0.092631
H12   H     H_    0.225166 0.409955 0.890963 0.126129
H13   H     H_    0.228765 0.833003 0.828860 0.127876
H14   H     H_    0.200043 0.233405 0.826310 0.101699
H15   H     H_    0.155974 0.256627 0.696434 0.118395
H16   H     H_    0.141757 0.453895 0.632600 0.139444
H17   H     H_    0.569334 0.868955 0.324481 0.112834
H18   H     H_    0.736668 0.428062 0.101165 0.115735
H19   H     H_    0.585283 0.897120 0.195988 0.149850
H20   H     H_    0.932044 0.205211 0.140196 0.123428
H21   H     H_    0.020356 0.179973 0.262497 0.108219
H22   H     H_    0.449136 0.814145 0.689979 0.096254
H23   H     H_    0.918573 0.375202 0.344238 0.140033
H24   H     H_    0.858580 0.088855 0.323595 0.129951
H25   H     H_    0.395593 0.296523 0.114350 0.126253
H26   H     H_    0.881406 0.043220 0.197353 0.158083
H27   H     H_    0.182743 0.317527 0.166529 0.122602
H28   H     H_    0.178377 0.259111 0.293012 0.099582
H29   H     H_    0.386430 0.163948 0.362972 0.136458
H30   H     H_    0.132599 0.523220 0.329711 0.143195
H31   H     H_    0.314872 0.753579 0.093333 0.117672
H32   H     H_    0.053331 0.557517 0.208235 0.143478
H33   H     H_    0.567895 0.876797 0.672217 0.148576
H34   H     H_    0.346239 0.948361 0.134130 0.126489
H35   H     H_    0.336137 0.998561 0.262119 0.121399
H36   H     H_    0.312051 0.855484 0.347466 0.164965
H37   H     H_    0.847629 0.743830 0.776237 0.168744
H38   H     H_    0.826653 0.710672 0.657702 0.118072
H39   H     H_    0.769832 0.450456 0.818952 0.140669
H40   H     H_    0.584411 0.562266 0.831389 0.102981
H41   H     H_    0.548765 0.546043 0.713193 0.129694
O1    O     O_R   0.507340 0.255690 0.581430 -0.526073
O2    O     O_R   0.524510 0.695820 0.424050 -0.525871
O3    O     O_R   0.736370 0.504260 0.414810 -0.533256
O4    O     O_R   0.691220 0.277270 0.422180 -0.497936
O5    O     O_3   0.499990 0.499990 0.499980 -0.258485
O6    O     O_R   0.089570 0.825450 0.930590 -0.525882
O7    O     O_R   0.818700 0.054260 0.929860 -0.518123
O8    O     O_R   0.606310 0.077010 0.915520 -0.492567
O9    O     O_R   0.646730 0.806540 0.917560 -0.460699
O10   O     O_R   0.837290 0.593240 0.915240 -0.541342
O11   O     O_R   0.065320 0.635310 0.931580 -0.512811
O12   O     O_R   0.280360 0.527380 0.578910 -0.508793
O13   O     O_R   0.068470 0.828620 0.091850 -0.529746
O14   O     O_R   0.799150 0.057200 0.079350 -0.517294
O15   O     O_R   0.585220 0.080180 0.076770 -0.536372
O16   O     O_R   0.627170 0.809480 0.067050 -0.516356
O17   O     O_R   0.816200 0.596410 0.076500 -0.522439
O18   O     O_R   0.045770 0.638240 0.081070 -0.511394
O19   O     O_3   0.833840 0.833520 0.001110 -0.238765
O20   O     O_R   0.260600 0.739610 0.584580 -0.525408
O21   O     O_R   0.532370 0.695050 0.573830 -0.511231
O22   O     O_R   0.744850 0.503430 0.576380 -0.526175
O23   O     O_R   0.699080 0.276500 0.571950 -0.513477
O24   O     O_R   0.498860 0.256520 0.419860 -0.542816
O25   O     O_R   0.272490 0.528150 0.429140 -0.502927
O26   O     O_R   0.252110 0.740440 0.423010 -0.539008
O27   O     O_3   0.576655 0.932137 0.795398 -0.678857
H42   H     H_    0.480250 0.013058 0.790709 0.312874

loop_
_geom_bond_atom_site_label_1
_geom_bond_atom_site_label_2
_ccdc_geom_bond_type
Cr2   O26   S    
Cr4   O7    S    
C8    C13   A    
C29   C33   A    
C5    H38   S    
C70   H2    S    
C41   C42   A    
C54   C55   A    
Cr1   O5    S    
C35   C36   A    
C23   O1    A    
C37   H21   S    
Cr6   O19   S    
C7    C8    A    
Cr5   O15   S    
C7    C11   A    
C26   C27   A    
C17   C23   S    
C30   C35   A    
C36   C37   A    
C9    C16   A    
C1    O12   A    
C30   C31   A    
C10   C17   A    
C15   C16   A    
C48   H28   S    
C13   H5    S    
C18   C19   A    
C32   C39   A    
C66   O17   A    
C2    H40   S    
Cr6   O18   S    
C34   O25   A    
C19   C20   A    
C8    C9    A    
C64   O11   A    
Cr4   O19   S    
C1    C28   S    
C59   H35   S    
C41   C46   A    
C5    H3    S    
C6    H41   S    
C39   C45   S    
C69   H22   S    
C45   O2    A    
Cr2   O21   S    
C32   H17   S    
C59   C60   A    
C70   H37   S    
Cr3   O3    S    
C18   C22   A    
C13   C14   A    
C2    C6    S    
C69   H33   S    
C14   H7    S    
C67   O27   S    
C33   H19   S    
C62   O7    A    
C4    C69   S    
C65   O14   A    
C53   C60   A    
C54   C61   A    
C11   H6    S    
C46   H25   S    
Cr4   O14   S    
C34   O26   A    
C47   H27   S    
C54   H30   S    
C51   C52   A    
C23   O23   A    
C3    C70   S    
C43   H24   S    
C4    C6    S    
C10   C11   A    
Cr6   O17   S    
Cr5   O19   S    
O27   H42   S    
C6    H1    S    
C49   H29   S    
C20   C28   A    
C26   H15   S    
C34   C61   S    
C50   C56   S    
C67   C69   S    
C37   C38   A    
C43   C44   A    
C7    C62   S    
C29   C30   A    
C60   H36   S    
Cr1   O12   S    
C66   O16   A    
C2    H39   S    
C36   H20   S    
C47   C48   A    
C40   C44   A    
C25   H14   S    
C12   O22   A    
C27   H16   S    
C24   C25   A    
C68   O13   A    
C24   H12   S    
C42   C50   A    
Cr1   O25   S    
C56   O24   A    
C45   O3    A    
C9    C17   A    
Cr2   O20   S    
Cr3   O23   S    
C21   C28   A    
Cr3   O4    S    
C40   C65   S    
Cr4   O13   S    
C16   H9    S    
Cr6   O11   S    
C12   O21   A    
C58   C59   A    
C4    C12   S    
C53   C61   A    
C65   O15   A    
C1    O20   A    
C52   C53   A    
C35   H18   S    
C46   C47   A    
C40   C41   A    
C10   H4    S    
Cr1   O1    S    
Cr2   O5    S    
C58   H34   S    
C68   O18   A    
C3    C67   S    
C38   H23   S    
C5    C70   S    
C21   H10   S    
C62   O8    A    
Cr5   O16   S    
C43   C50   A    
C15   H8    S    
C20   C27   A    
C3    C63   S    
C64   O6    A    
Cr3   O22   S    
C67   H11   S    
C31   C38   A    
Cr1   O24   S    
C55   H32   S    
Cr5   O9    S    
C32   C33   A    
C19   C24   A    
C25   C26   A    
C56   O4    A    
C18   C64   S    
C57   C58   A    
C48   C49   A    
Cr2   O2    S    
C22   H13   S    
C31   C39   A    
Cr4   O6    S    
C51   C55   A    
C51   C68   S    
C63   O9    A    
C52   C57   A    
C42   C49   A    
C29   C66   S    
C4    C5    S    
Cr3   O5    S    
C57   H31   S    
Cr6   O10   S    
C14   C15   A    
C2    C3    S    
Cr5   O8    S    
C21   C22   A    
C63   O10   A    
C44   H26   S    
