data_mof_unit_36177.cif
_audit_creation_date              2012-12-10T16:44:44-0500
_audit_creation_method            fapswitch 2.2
_symmetry_space_group_name_H-M    P1
_symmetry_Int_Tables_number       1
_space_group_crystal_system       triclinic
_cell_length_a                    15.024829
_cell_length_b                    8.734585
_cell_length_c                    7.530914
_cell_angle_alpha                 102.952645
_cell_angle_beta                  94.950213
_cell_angle_gamma                 93.855252
_cell_volume                      955.761863539

loop_
_atom_site_label
_atom_site_type_symbol
_atom_type_description
_atom_site_fract_x
_atom_site_fract_y
_atom_site_fract_z
_atom_type_partial_charge
C1    C     C_R   0.495386 0.200581 0.454247 0.813469
C2    C     C_R   0.504614 0.799418 0.545753 0.813472
C3    C     C_R   0.027776 0.219810 0.350440 -0.152218
C4    C     C_R   0.972224 0.780190 0.649558 -0.152221
C5    C     C_2   0.482202 0.033697 0.433830 -0.232640
C6    C     C_2   0.517798 0.966302 0.566170 -0.232638
C7    C     C_R   0.329596 0.498532 0.500969 0.776894
C8    C     C_R   0.670404 0.501468 0.499031 0.776898
C9    C     C_R   0.820932 0.645368 0.563600 -0.046722
C10   C     C_R   0.179069 0.354632 0.436400 -0.046720
C11   C     C_R   0.766773 0.502567 0.496650 -0.135095
C12   C     C_R   0.233227 0.497433 0.503350 -0.135101
C13   C     C_R   0.803589 0.361091 0.424196 -0.069994
C14   C     C_R   0.196411 0.638909 0.575803 -0.069998
C15   C     C_R   0.896916 0.360220 0.422810 0.065772
C16   C     C_R   0.103084 0.639780 0.577189 0.065773
C17   C     C_R   0.952867 0.501038 0.497945 0.039184
C18   C     C_R   0.047133 0.498962 0.502054 0.039183
C19   C     C_R   0.914953 0.643767 0.569335 0.093908
C20   C     C_R   0.085046 0.356233 0.430664 0.093909
C21   C     C_R   0.935660 0.221358 0.348247 -0.178962
C22   C     C_R   0.064340 0.778643 0.651751 -0.178960
Cu1   Cu    Cu3+1 0.510010 0.517380 0.684380 0.998632
Cu2   Cu    Cu3+1 0.489990 0.482620 0.315620 0.998648
H1    H     H_    0.895095 0.112169 0.286212 0.178336
H2    H     H_    0.104904 0.887831 0.713786 0.178337
H3    H     H_    0.052922 0.110345 0.285471 0.194011
H4    H     H_    0.947078 0.889655 0.714526 0.194010
N1    N     N_2   0.474890 0.456420 0.038520 -0.212258
N2    N     N_2   0.525110 0.543580 0.961480 -0.212270
O1    O     O_R   0.506510 0.286130 0.619770 -0.610563
O2    O     O_R   0.493490 0.713870 0.380230 -0.610560
O3    O     O_R   0.489600 0.256770 0.308360 -0.591815
O4    O     O_R   0.510400 0.743230 0.691640 -0.591823
O5    O     O_R   0.378710 0.514640 0.655720 -0.591051
O6    O     O_R   0.621290 0.485360 0.344280 -0.591026
O7    O     O_R   0.361800 0.485290 0.344300 -0.550711
O8    O     O_R   0.638200 0.514710 0.655700 -0.550731
C23   C     C_2   0.777283 0.794578 0.620871 0.333806
H5    H     H_    0.720977 0.797805 0.702175 0.095483
O9    O     O_2   0.800776 0.912561 0.569396 -0.547103
C24   C     C_2   0.222717 0.205421 0.379131 0.333807
H6    H     H_    0.279025 0.202195 0.297832 0.095491
O10   O     O_2   0.199222 0.087438 0.430604 -0.547106
C25   C     C_1   0.744807 0.216958 0.353413 0.317482
N3    N     N_1   0.698060 0.102316 0.296984 -0.262290
C26   C     C_1   0.255193 0.783042 0.646586 0.317479
N4    N     N_1   0.301940 0.897684 0.703014 -0.262287
C27   C     C_1   0.420986 0.948818 0.276815 0.305721
N5    N     N_1   0.372267 0.881741 0.151931 -0.226329
C28   C     C_1   0.579014 0.051182 0.723185 0.305722
N6    N     N_1   0.627733 0.118258 0.848069 -0.226324
C29   C     C_2   0.396390 0.371953 0.935679 0.718912
H7    H     H_    0.400255 0.271578 0.824009 0.030887
O11   O     O_2   0.322653 0.407560 0.977741 -0.554756
C30   C     C_2   0.603608 0.628052 0.064322 0.718933
H8    H     H_    0.599739 0.728450 0.175964 0.030860
O12   O     O_2   0.677347 0.592420 0.022294 -0.554748

loop_
_geom_bond_atom_site_label_1
_geom_bond_atom_site_label_2
_ccdc_geom_bond_type
Cu1   Cu2   S    
Cu2   O2    S    
C14   C26   S    
C6    C28   S    
C10   C24   S    
Cu1   O8    S    
C4    C22   A    
C29   O11   D    
C18   C20   A    
Cu2   O3    S    
C1    O1    A    
Cu1   O4    S    
C2    O4    A    
C3    H3    S    
Cu2   O7    S    
C7    O7    A    
C1    O3    A    
C3    C20   A    
C23   O9    D    
C2    C6    S    
C25   N3    T    
C13   C25   S    
C9    C11   A    
C5    C27   S    
Cu2   O6    S    
C24   O10   D    
C8    O8    A    
C8    C11   S    
C1    C5    S    
C10   C12   A    
C7    O5    A    
C16   C18   A    
C17   C19   A    
C12   C14   A    
C17   C18   A    
Cu1   O5    S    
C13   C15   A    
C22   H2    S    
C5    C6    D    
C14   C16   A    
C7    C12   S    
C3    C21   A    
C11   C13   A    
C24   H6    S    
N1    N2    D    
C28   N6    T    
Cu1   N2    S    
C15   C21   A    
C30   H8    S    
C2    O2    A    
C27   N5    T    
C8    O6    A    
C10   C20   A    
C23   H5    S    
C15   C17   A    
C21   H1    S    
Cu2   N1    S    
C16   C22   A    
C4    H4    S    
C29   H7    S    
C4    C19   A    
N2    C30   S    
C9    C19   A    
C9    C23   S    
C26   N4    T    
C30   O12   D    
N1    C29   S    
Cu1   O1    S    
