data_mof_unit_56038.cif
_audit_creation_date              2012-10-26T21:33:05-0400
_audit_creation_method            fapswitch 2.2
_symmetry_space_group_name_H-M    P1
_symmetry_Int_Tables_number       1
_space_group_crystal_system       triclinic
_cell_length_a                    28.259453
_cell_length_b                    18.437126
_cell_length_c                    17.012666
_cell_angle_alpha                 89.928473
_cell_angle_beta                  60.378545
_cell_angle_gamma                 90.020643
_cell_volume                      7705.54510315

loop_
_atom_site_label
_atom_site_type_symbol
_atom_type_description
_atom_site_fract_x
_atom_site_fract_y
_atom_site_fract_z
_atom_type_partial_charge
C1    C     C_R   0.700529 0.266420 0.676733 0.888331
C2    C     C_R   0.922461 0.612801 0.571840 -0.213221
C3    C     C_R   0.072361 0.898191 0.935439 0.926424
C4    C     C_R   0.571989 0.602378 0.935783 0.974781
C5    C     C_R   0.427869 0.397737 0.064335 0.974777
C6    C     C_R   0.427768 0.602136 0.064392 0.973966
C7    C     C_R   0.572053 0.397706 0.935752 0.973618
C8    C     C_R   0.547096 0.998579 0.508809 0.017024
C9    C     C_R   0.452752 0.001420 0.491647 0.017088
C10   C     C_R   0.047237 0.501393 0.508387 0.016906
C11   C     C_R   0.952929 0.498617 0.491113 0.016711
C12   C     C_R   0.537441 0.058466 0.465819 0.051829
C13   C     C_R   0.975930 0.379248 0.421684 -0.205798
C14   C     C_R   0.462397 0.941535 0.534656 0.053638
C15   C     C_R   0.489319 0.060753 0.459098 0.045142
C16   C     C_R   0.510523 0.939250 0.541381 0.045931
C17   C     C_R   0.010695 0.560643 0.540912 0.045420
C18   C     C_R   0.989477 0.439371 0.458561 0.045592
C19   C     C_R   0.962593 0.558386 0.534127 0.051574
C20   C     C_R   0.037584 0.441625 0.465351 0.053181
C21   C     C_R   0.608016 0.936170 0.552052 0.077692
C22   C     C_R   0.391899 0.063806 0.448241 0.076492
C23   C     C_R   0.371243 0.941381 0.507140 0.063794
C24   C     C_R   0.024219 0.620761 0.577827 -0.208404
C25   C     C_R   0.628647 0.058601 0.493169 0.062259
C26   C     C_R   0.128719 0.441400 0.492939 0.063669
C27   C     C_R   0.871397 0.558583 0.506730 0.062211
C28   C     C_R   0.892005 0.436311 0.447836 0.077320
C29   C     C_R   0.108086 0.563668 0.551847 0.074653
C30   C     C_R   0.658492 0.935535 0.551843 -0.135658
C31   C     C_R   0.341461 0.064441 0.448335 -0.136783
C32   C     C_R   0.330534 0.938503 0.481399 -0.118290
C33   C     C_R   0.669400 0.061484 0.518805 -0.120837
C34   C     C_R   0.169445 0.438487 0.518655 -0.121129
C35   C     C_R   0.524067 0.879019 0.578213 -0.205492
C36   C     C_R   0.830623 0.561500 0.481133 -0.120851
C37   C     C_R   0.841526 0.435638 0.448075 -0.135995
C38   C     C_R   0.158525 0.564338 0.551732 -0.135535
C39   C     C_R   0.684176 0.999831 0.546879 -0.292138
C40   C     C_R   0.315777 0.000154 0.453294 -0.287212
C41   C     C_R   0.184205 0.500080 0.546769 -0.292469
C42   C     C_R   0.815842 0.499904 0.453052 -0.293816
C43   C     C_R   0.594144 0.997957 0.518806 0.077085
C44   C     C_R   0.405734 0.002033 0.481567 0.076299
C45   C     C_R   0.094243 0.501977 0.518507 0.077194
C46   C     C_R   0.475797 0.120980 0.422233 -0.205273
C47   C     C_R   0.905889 0.498017 0.481088 0.076689
C48   C     C_R   0.122257 0.387241 0.441038 -0.181447
C49   C     C_R   0.877880 0.612726 0.558615 -0.179603
C50   C     C_R   0.928214 0.377765 0.416823 -0.174560
C51   C     C_R   0.071880 0.622212 0.582833 -0.179347
C52   C     C_R   0.571793 0.877528 0.583046 -0.173799
C53   C     C_R   0.428120 0.122445 0.417272 -0.173226
C54   C     C_R   0.377683 0.887097 0.559052 -0.179572
C55   C     C_R   0.622189 0.112868 0.441270 -0.179507
C56   C     C_2   0.580403 0.285942 0.800052 0.408116
C57   C     C_R   0.422240 0.887012 0.572358 -0.214659
C58   C     C_2   0.419583 0.714036 0.199743 0.410999
C59   C     C_2   0.419595 0.285640 0.199957 0.407893
C60   C     C_2   0.580456 0.714475 0.799983 0.405898
C61   C     C_2   0.084830 0.800621 0.790160 0.425851
C62   C     C_2   0.919498 0.214264 0.199870 0.404233
C63   C     C_2   0.919615 0.785723 0.200082 0.394649
C64   C     C_2   0.080263 0.214088 0.799904 0.413113
C65   C     C_R   0.577601 0.112973 0.428067 -0.212453
C66   C     C_R   0.721003 0.266776 0.953381 0.121757
C67   C     C_R   0.278959 0.733057 0.046457 0.115732
C68   C     C_R   0.279024 0.266686 0.046527 0.117369
C69   C     C_R   0.299487 0.733624 0.323292 0.882323
C70   C     C_R   0.721298 0.732748 0.953049 0.121313
C71   C     C_R   0.220393 0.765283 0.953832 0.116489
C72   C     C_R   0.778590 0.232546 0.047063 0.121134
C73   C     C_R   0.778997 0.766723 0.046627 0.119431
C74   C     C_R   0.220399 0.234410 0.954026 0.115587
C75   C     C_R   0.745194 0.198290 0.944040 -0.169864
C76   C     C_R   0.221644 0.734331 0.092867 -0.178330
C77   C     C_R   0.221705 0.265619 0.092897 -0.181950
C78   C     C_R   0.745731 0.801143 0.943387 -0.173705
C79   C     C_R   0.277699 0.763956 0.907414 -0.179650
C80   C     C_R   0.299493 0.266383 0.323324 0.845291
C81   C     C_R   0.754379 0.301017 0.056434 -0.173599
C82   C     C_R   0.754582 0.698314 0.056260 -0.175167
C83   C     C_R   0.277709 0.235507 0.907677 -0.180006
C84   C     C_R   0.773439 0.181367 0.990241 -0.175474
C85   C     C_R   0.192858 0.750236 0.047272 -0.171073
C86   C     C_R   0.192896 0.249692 0.047363 -0.168635
C87   C     C_R   0.774014 0.817944 0.989543 -0.176915
C88   C     C_R   0.306477 0.748074 0.952998 -0.169253
C89   C     C_R   0.726145 0.317943 0.010225 -0.176975
C90   C     C_R   0.726287 0.681518 0.010115 -0.175591
C91   C     C_R   0.700552 0.733521 0.676697 0.846387
C92   C     C_R   0.306513 0.251417 0.953199 -0.167272
C93   C     C_R   0.642575 0.326542 0.946746 -0.215416
C94   C     C_R   0.357053 0.673306 0.053561 -0.220698
C95   C     C_R   0.357276 0.326344 0.053361 -0.220655
C96   C     C_R   0.642585 0.673389 0.946759 -0.213069
C97   C     C_R   0.142839 0.826368 0.946253 -0.197382
C98   C     C_R   0.857188 0.173064 0.053470 -0.213344
C99   C     C_R   0.857548 0.826366 0.053134 -0.239156
C100  C     C_R   0.142367 0.174278 0.946976 -0.218300
C101  C     C_R   0.611856 0.339722 0.903057 -0.052084
C102  C     C_R   0.200703 0.766514 0.676455 0.866685
C103  C     C_R   0.387979 0.660195 0.096976 -0.051749
C104  C     C_R   0.388157 0.339509 0.096855 -0.054813
C105  C     C_R   0.611802 0.660407 0.903118 -0.056267
C106  C     C_R   0.112875 0.841498 0.901620 -0.117287
C107  C     C_R   0.888029 0.160135 0.097015 -0.057230
C108  C     C_R   0.888252 0.839524 0.096866 -0.064934
C109  C     C_R   0.111663 0.160723 0.903266 -0.052960
C110  C     C_R   0.623372 0.302434 0.824554 -0.079505
C111  C     C_R   0.376550 0.697506 0.175407 -0.081698
C112  C     C_R   0.376654 0.302197 0.175403 -0.075117
C113  C     C_R   0.799418 0.233470 0.323290 0.846054
C114  C     C_R   0.623364 0.697799 0.824585 -0.073270
C115  C     C_R   0.125477 0.807353 0.821152 -0.072127
C116  C     C_R   0.876519 0.197506 0.175463 -0.072068
C117  C     C_R   0.876709 0.802170 0.175414 -0.071819
C118  C     C_R   0.123180 0.197899 0.824617 -0.081427
C119  C     C_R   0.675771 0.274856 0.774374 -0.159561
C120  C     C_R   0.324132 0.724977 0.225757 -0.157574
C121  C     C_R   0.324171 0.274881 0.225814 -0.146509
C122  C     C_R   0.675847 0.725123 0.774284 -0.145752
C123  C     C_R   0.176306 0.775668 0.773471 -0.118940
C124  C     C_R   0.799496 0.766371 0.323286 0.887811
C125  C     C_R   0.824072 0.224887 0.225730 -0.145933
C126  C     C_R   0.824278 0.774651 0.225636 -0.158108
C127  C     C_R   0.175596 0.225483 0.774324 -0.158725
C128  C     C_R   0.707364 0.261175 0.816940 -0.191982
C129  C     C_R   0.292421 0.738686 0.183451 -0.184105
C130  C     C_R   0.292423 0.261201 0.183574 -0.193299
C131  C     C_R   0.707577 0.738556 0.816673 -0.203856
C132  C     C_R   0.207047 0.759845 0.816885 -0.214817
C133  C     C_R   0.792335 0.238258 0.183355 -0.204272
C134  C     C_R   0.792663 0.760952 0.183095 -0.191483
C135  C     C_R   0.200434 0.233762 0.676705 0.888334
C136  C     C_R   0.207132 0.239621 0.816828 -0.184502
C137  C     C_R   0.689425 0.283686 0.905928 0.067924
C138  C     C_R   0.310304 0.716379 0.094409 0.068225
C139  C     C_R   0.310405 0.283369 0.094398 0.068279
C140  C     C_R   0.689604 0.716045 0.905738 0.068028
C141  C     C_R   0.189225 0.782533 0.905763 0.068963
C142  C     C_R   0.810244 0.215729 0.094401 0.068443
C143  C     C_R   0.810632 0.783503 0.094031 0.073261
C144  C     C_R   0.189094 0.217536 0.906074 0.068032
C145  C     C_R   0.696589 0.127709 0.518130 0.906105
C146  C     C_R   0.077712 0.387191 0.427696 -0.214541
C147  C     C_R   0.303381 0.872285 0.481957 0.900936
C148  C     C_R   0.308999 0.129694 0.463645 0.894316
C149  C     C_R   0.690987 0.870293 0.536411 0.894119
C150  C     C_R   0.190998 0.629653 0.536369 0.887290
C151  C     C_R   0.809019 0.370332 0.463565 0.893737
C152  C     C_R   0.803411 0.627701 0.481866 0.904798
C153  C     C_R   0.196618 0.372293 0.518045 0.904782
C154  C     C_R   0.072097 0.102300 0.935692 0.977671
C155  C     C_R   0.928004 0.897631 0.064228 0.937068
C156  C     C_R   0.927925 0.102274 0.064263 0.974741
H1    H     H_    0.718767 0.000644 0.558106 0.196602
H2    H     H_    0.420995 0.169090 0.385876 0.159540
H3    H     H_    0.347495 0.845254 0.593003 0.172030
H4    H     H_    0.652389 0.154677 0.407227 0.173716
H5    H     H_    0.076478 0.343962 0.386254 0.137071
H6    H     H_    0.923701 0.656026 0.613277 0.140220
H7    H     H_    0.000752 0.331310 0.397488 0.140965
H8    H     H_    0.999416 0.668717 0.601970 0.143655
H9    H     H_    0.499230 0.831010 0.602396 0.140636
H10   H     H_    0.500617 0.169005 0.398096 0.142058
H11   H     H_    0.423463 0.843683 0.613803 0.136991
H12   H     H_    0.281214 0.999342 0.441992 0.198571
H13   H     H_    0.576372 0.156298 0.386626 0.141002
H14   H     H_    0.709082 0.371741 0.018072 0.127389
H15   H     H_    0.350537 0.748738 0.915117 0.143562
H16   H     H_    0.350571 0.250601 0.915377 0.147006
H17   H     H_    0.709032 0.627782 0.018217 0.127115
H18   H     H_    0.148798 0.749686 0.085134 0.144821
H19   H     H_    0.790530 0.127585 0.982375 0.128062
H20   H     H_    0.791241 0.871696 0.981460 0.129564
H21   H     H_    0.148838 0.250459 0.085178 0.143249
H22   H     H_    0.741405 0.157100 0.902160 0.132993
H23   H     H_    0.218774 0.499268 0.558054 0.197448
H24   H     H_    0.198815 0.721760 0.164307 0.134829
H25   H     H_    0.198895 0.278398 0.164235 0.126436
H26   H     H_    0.742078 0.842381 0.901324 0.133554
H27   H     H_    0.300523 0.776591 0.835975 0.127749
H28   H     H_    0.758173 0.342213 0.098302 0.132585
H29   H     H_    0.758233 0.657078 0.098326 0.131618
H30   H     H_    0.300525 0.222714 0.836352 0.135179
H31   H     H_    0.630161 0.350284 0.012258 0.159623
H32   H     H_    0.368050 0.647650 0.989531 0.161012
H33   H     H_    0.368364 0.351949 0.989180 0.162070
H34   H     H_    0.781241 0.500717 0.441851 0.196471
H35   H     H_    0.630128 0.649580 0.012335 0.161261
H36   H     H_    0.131337 0.850961 0.011049 0.163265
H37   H     H_    0.869576 0.149278 0.987989 0.161460
H38   H     H_    0.870002 0.850182 0.987564 0.156953
H39   H     H_    0.131267 0.148757 0.011208 0.161518
H40   H     H_    0.746864 0.235477 0.780003 0.161378
H41   H     H_    0.253693 0.766245 0.220025 0.158052
H42   H     H_    0.253589 0.233788 0.220301 0.156262
H43   H     H_    0.747202 0.764032 0.779549 0.157392
H44   H     H_    0.245095 0.730593 0.781175 0.158019
H45   H     H_    0.152423 0.345482 0.407106 0.171345
H46   H     H_    0.752765 0.263762 0.220399 0.157510
H47   H     H_    0.753111 0.735274 0.220122 0.161041
H48   H     H_    0.245866 0.267290 0.780231 0.157873
H49   H     H_    0.590559 0.261664 0.735753 0.092202
H50   H     H_    0.409474 0.738138 0.264109 0.093026
H51   H     H_    0.409390 0.261206 0.264290 0.074139
H52   H     H_    0.590692 0.739144 0.735758 0.073592
H53   H     H_    0.058775 0.753144 0.809235 0.030394
H54   H     H_    0.909339 0.238836 0.264026 0.074268
H55   H     H_    0.909387 0.761295 0.264422 0.096790
H56   H     H_    0.847700 0.654446 0.592651 0.173587
H57   H     H_    0.090473 0.238161 0.735395 0.092709
H58   H     H_    0.921033 0.331183 0.385493 0.158762
H59   H     H_    0.079011 0.668769 0.614271 0.168334
H60   H     H_    0.578962 0.830861 0.614358 0.158756
O1    O     O_R   0.746490 0.236330 0.638080 -0.618061
O2    O     O_R   0.325830 0.813840 0.483730 -0.643430
O3    O     O_R   0.325830 0.186160 0.483730 -0.634359
O4    O     O_R   0.674170 0.813840 0.516270 -0.632388
O5    O     O_R   0.174170 0.686160 0.516270 -0.629558
O6    O     O_R   0.825830 0.313840 0.483730 -0.632145
O7    O     O_R   0.825830 0.686160 0.483730 -0.641532
O8    O     O_R   0.174170 0.313840 0.516270 -0.641293
O9    O     O_R   0.739960 0.127620 0.525000 -0.628007
O10   O     O_R   0.260040 0.872380 0.475000 -0.624595
O11   O     O_R   0.260040 0.127620 0.475000 -0.615819
O12   O     O_R   0.253510 0.763670 0.361920 -0.620895
O13   O     O_R   0.739960 0.872380 0.525000 -0.619124
O14   O     O_R   0.239960 0.627620 0.525000 -0.621618
O15   O     O_R   0.760040 0.372380 0.475000 -0.619572
O16   O     O_R   0.760040 0.627620 0.475000 -0.628585
O17   O     O_R   0.239960 0.372380 0.525000 -0.628031
O18   O     O_R   0.680700 0.294870 0.629350 -0.634370
O19   O     O_R   0.319300 0.705130 0.370650 -0.635435
O20   O     O_R   0.319300 0.294870 0.370650 -0.647053
O21   O     O_R   0.680700 0.705130 0.629350 -0.646747
O22   O     O_R   0.180700 0.794870 0.629350 -0.579768
O23   O     O_R   0.253510 0.236330 0.361920 -0.637663
O24   O     O_R   0.819300 0.205130 0.370650 -0.646443
O25   O     O_R   0.819300 0.794870 0.370650 -0.633043
O26   O     O_R   0.180700 0.205130 0.629350 -0.631249
O27   O     O_R   0.062020 0.072840 0.007170 -0.632194
O28   O     O_R   0.937980 0.927160 0.992830 -0.649662
O29   O     O_R   0.937980 0.072840 0.992830 -0.630792
O30   O     O_R   0.062020 0.927160 0.007170 -0.621392
O31   O     O_R   0.562020 0.572840 0.007170 -0.633740
O32   O     O_R   0.437980 0.427160 0.992830 -0.631617
O33   O     O_R   0.437980 0.572840 0.992830 -0.631926
O34   O     O_R   0.746490 0.763670 0.638080 -0.637478
O35   O     O_R   0.562020 0.427160 0.007170 -0.634064
O36   O     O_R   0.947860 0.073950 0.109290 -0.593704
O37   O     O_R   0.052140 0.926050 0.890710 -0.580712
O38   O     O_R   0.052140 0.073950 0.890710 -0.583630
O39   O     O_R   0.947860 0.926050 0.109290 -0.584658
O40   O     O_R   0.447860 0.573950 0.109290 -0.594239
O41   O     O_R   0.552140 0.426050 0.890710 -0.594069
O42   O     O_R   0.552140 0.573950 0.890710 -0.594242
O43   O     O_R   0.447860 0.426050 0.109290 -0.594460
O44   O     O_2   0.532143 0.293548 0.854741 -0.565802
O45   O     O_R   0.246490 0.736330 0.638080 -0.654542
O46   O     O_2   0.467831 0.706645 0.144857 -0.562240
O47   O     O_2   0.467864 0.293395 0.145304 -0.566045
O48   O     O_2   0.532181 0.706557 0.854492 -0.568837
O49   O     O_2   0.080736 0.847281 0.742850 -0.534967
O50   O     O_2   0.967757 0.206543 0.145252 -0.570305
O51   O     O_2   0.967891 0.793557 0.145511 -0.583913
O52   O     O_2   0.031991 0.206440 0.854610 -0.563855
O53   O     O_R   0.753510 0.263670 0.361920 -0.637745
O54   O     O_R   0.753510 0.736330 0.361920 -0.618906
O55   O     O_R   0.246490 0.263670 0.638080 -0.619761
O56   O     O_R   0.674170 0.186160 0.516270 -0.641470
Zn1   Zn    Zn3+2 0.792340 0.208750 0.507670 0.947813
Zn2   Zn    Zn3+2 0.494040 0.500000 0.919480 1.008437
Zn3   Zn    Zn3+2 0.005960 0.000000 0.080520 1.010183
Zn4   Zn    Zn3+2 0.994040 0.000000 0.919480 1.022934
Zn5   Zn    Zn3+2 0.207660 0.791250 0.492330 0.994702
Zn6   Zn    Zn3+2 0.207660 0.208750 0.492330 0.950953
Zn7   Zn    Zn3+2 0.792340 0.791250 0.507670 0.942970
Zn8   Zn    Zn3+2 0.292340 0.708750 0.507670 0.939704
Zn9   Zn    Zn3+2 0.707660 0.291250 0.492330 0.940813
Zn10  Zn    Zn3+2 0.707660 0.708750 0.492330 0.946187
Zn11  Zn    Zn3+2 0.292340 0.291250 0.507670 0.946058
Zn12  Zn    Zn3+2 0.505960 0.500000 0.080520 1.006128

loop_
_geom_bond_atom_site_label_1
_geom_bond_atom_site_label_2
_ccdc_geom_bond_type
C78   C87   A    
C96   C105  A    
C79   H27   S    
C11   C18   A    
C70   C140  S    
O27   Zn3   S    
C123  C132  A    
O42   Zn2   S    
C4    C105  S    
O36   Zn3   S    
C60   O48   D    
C155  O28   A    
C11   C47   A    
C8    C43   A    
C5    O43   A    
C74   C83   A    
C128  C137  A    
O22   Zn5   S    
C2    H6    S    
C71   C79   A    
C134  H47   S    
C28   C47   A    
C32   C147  S    
C56   O44   D    
O24   Zn1   S    
O1    Zn1   S    
C83   C92   A    
C148  O11   A    
C99   H38   S    
C11   C19   A    
C53   H2    S    
C33   C39   A    
C13   C18   A    
O29   Zn4   S    
O19   Zn8   S    
C96   H35   S    
C59   O47   D    
O30   Zn3   S    
C127  C135  S    
C89   H14   S    
C156  O29   A    
C16   C35   A    
C154  O38   A    
C63   C117  S    
C75   C84   A    
C34   C153  S    
O7    Zn7   S    
C50   H58   S    
C10   C17   A    
C59   H51   S    
O23   Zn6   S    
C132  H44   S    
C64   C118  S    
C31   C40   A    
C49   H56   S    
C103  C111  A    
C1    C119  S    
C37   C42   A    
C67   C138  S    
C75   H22   S    
C80   O20   A    
C73   C87   A    
C131  C140  A    
C26   C45   A    
C17   C19   A    
C54   H3    S    
C99   C143  A    
C60   C114  S    
O28   Zn4   S    
C26   C34   A    
C97   H36   S    
C151  O15   A    
C56   H49   S    
C10   C20   A    
C91   C122  S    
C48   C146  A    
C29   C38   A    
C61   C115  S    
C77   H25   S    
O3    Zn11  S    
C83   H30   S    
C129  H41   S    
C29   C45   A    
C15   C46   A    
C3    O30   A    
C66   C89   A    
C84   H19   S    
C117  C126  A    
C121  C130  A    
C72   C81   A    
C6    O33   A    
C26   C48   A    
C71   C141  S    
C81   C89   A    
C119  C128  A    
C24   C51   A    
C134  C143  A    
C5    C104  S    
O8    Zn6   S    
C100  C109  A    
C8    C16   A    
C88   H15   S    
C21   C43   A    
C39   H1    S    
C67   C76   A    
O53   Zn9   S    
C70   C90   A    
O20   Zn11  S    
C28   C50   A    
C80   O23   A    
C37   C151  S    
C130  C139  A    
C56   C110  S    
C79   C88   A    
O11   Zn6   S    
C147  O10   A    
O15   Zn9   S    
C109  C118  A    
C13   H7    S    
C22   C53   A    
C152  O16   A    
C80   C121  S    
C113  O24   A    
C3    C106  S    
C62   H54   S    
C35   H9    S    
C146  H5    S    
C22   C44   A    
C102  O22   A    
C17   C24   A    
C115  C123  A    
C22   C31   A    
O40   Zn12  S    
C82   H29   S    
C6    O40   A    
C120  C129  A    
C128  H40   S    
C105  C114  A    
C91   O34   A    
C127  C136  A    
C38   C41   A    
C66   C137  S    
C64   O52   D    
C93   C101  A    
C104  C112  A    
O38   Zn4   S    
C60   H52   S    
C30   C149  S    
C36   C152  S    
C87   H20   S    
C101  C110  A    
C145  O9    A    
C48   H45   S    
O13   Zn7   S    
C86   H21   S    
O54   Zn10  S    
C98   C107  A    
C58   C111  S    
C98   H37   S    
O14   Zn8   S    
C70   C78   A    
C78   H26   S    
O10   Zn5   S    
C131  H43   S    
C9    C14   A    
C3    O37   A    
C4    O31   A    
O32   Zn2   S    
C98   C142  A    
C24   H8    S    
C2    C49   A    
C36   C42   A    
O45   Zn8   S    
C42   H34   S    
C12   C65   A    
O55   Zn11  S    
C90   H17   S    
C12   C15   A    
C1    O18   A    
C8    C12   A    
O18   Zn9   S    
C125  C133  A    
C91   O21   A    
C10   C45   A    
C135  O55   A    
C59   C112  S    
O41   Zn2   S    
C102  O45   A    
C153  O17   A    
C61   H53   S    
C6    C103  S    
C74   C86   A    
O21   Zn10  S    
C97   C141  A    
C72   C84   A    
C33   C145  S    
C94   C103  A    
C153  O8    A    
C31   C148  S    
C94   H32   S    
C27   C47   A    
C55   H4    S    
O17   Zn11  S    
C99   C108  A    
C77   C86   A    
C61   O49   D    
C116  C125  A    
C145  O56   A    
C100  C144  A    
C94   C138  A    
C150  O5    A    
C20   C146  A    
C7    O41   A    
C118  C127  A    
C129  C138  A    
C5    O32   A    
C65   H13   S    
C102  C123  S    
O2    Zn8   S    
C69   O12   A    
C93   H31   S    
C73   C82   A    
C136  H48   S    
C95   C104  A    
C135  O26   A    
C23   C54   A    
C124  C126  S    
C73   C143  S    
C100  H39   S    
C51   H59   S    
C68   C77   A    
C14   C57   A    
C74   C144  S    
C154  O27   A    
O43   Zn12  S    
C9    C44   A    
C4    O42   A    
C64   H57   S    
C46   H10   S    
C133  H46   S    
C2    C19   A    
C55   C65   A    
O9    Zn1   S    
C108  C117  A    
C41   H23   S    
C109  C154  S    
C107  C156  S    
C23   C32   A    
C113  O53   A    
C76   H24   S    
O37   Zn4   S    
C155  O39   A    
C110  C119  A    
C96   C140  A    
O4    Zn10  S    
O25   Zn7   S    
C156  O36   A    
C67   C88   A    
C57   H11   S    
C25   C43   A    
O12   Zn5   S    
C21   C30   A    
C69   C120  S    
C95   C139  A    
C150  O14   A    
C151  O6    A    
C106  C115  A    
C27   C36   A    
C149  O13   A    
O34   Zn7   S    
O6    Zn1   S    
C69   O19   A    
C112  C121  A    
C34   C41   A    
C85   H18   S    
C72   C142  S    
C25   C55   A    
O56   Zn9   S    
O39   Zn3   S    
C122  C131  A    
C108  C155  S    
C82   C90   A    
C28   C37   A    
C92   H16   S    
C71   C85   A    
C66   C75   A    
C46   C53   A    
C14   C16   A    
C68   C92   A    
O31   Zn12  S    
C38   C150  S    
C30   C39   A    
C18   C20   A    
O35   Zn12  S    
C32   C40   A    
C9    C15   A    
C133  C142  A    
C148  O3    A    
C63   H55   S    
C107  C116  A    
C40   H12   S    
C93   C137  A    
C62   C116  S    
C95   H33   S    
C29   C51   A    
C13   C50   A    
C114  C122  A    
C132  C141  A    
C124  O54   A    
C113  C125  S    
C126  C134  A    
C52   H60   S    
C136  C144  A    
C7    C101  S    
C152  O7    A    
C7    O35   A    
C35   C52   A    
C147  O2    A    
C58   H50   S    
O33   Zn2   S    
C111  C120  A    
C68   C139  S    
C1    O1    A    
C62   O50   D    
C81   H28   S    
O16   Zn10  S    
C124  O25   A    
O26   Zn6   S    
C63   O51   D    
C76   C85   A    
C149  O4    A    
C21   C52   A    
C58   O46   D    
C27   C49   A    
C130  H42   S    
C25   C33   A    
O5    Zn5   S    
C23   C44   A    
C54   C57   A    
C97   C106  A    
