data_mof_unit_17196.cif
_audit_creation_date              2012-12-10T16:58:22-0500
_audit_creation_method            fapswitch 2.2
_symmetry_space_group_name_H-M    P1
_symmetry_Int_Tables_number       1
_space_group_crystal_system       triclinic
_cell_length_a                    7.773422
_cell_length_b                    8.62556
_cell_length_c                    23.422262
_cell_angle_alpha                 91.534002
_cell_angle_beta                  85.329837
_cell_angle_gamma                 92.525075
_cell_volume                      1563.30765324

loop_
_atom_site_label
_atom_site_type_symbol
_atom_type_description
_atom_site_fract_x
_atom_site_fract_y
_atom_site_fract_z
_atom_type_partial_charge
C1    C     C_R   0.543827 0.793841 0.498496 0.964301
C2    C     C_R   0.625175 0.436290 0.290897 -0.016483
C3    C     C_R   0.386748 0.559629 0.768648 0.240163
C4    C     C_R   0.626287 0.448257 0.231481 0.130341
C5    C     C_R   0.499559 0.460210 0.791521 0.110483
C6    C     C_R   0.497316 0.529330 0.208275 0.231264
C7    C     C_2   0.563032 0.952960 0.489018 -0.131993
C8    C     C_2   0.436341 0.047095 0.510315 -0.137473
C9    C     C_R   0.501112 0.497648 0.610639 0.876911
C10   C     C_R   0.498883 0.501733 0.389300 0.932349
C11   C     C_R   0.401994 0.403600 0.123944 0.605183
C12   C     C_R   0.456095 0.206214 0.501256 0.959058
C13   C     C_R   0.601029 0.580789 0.875986 0.575486
C14   C     C_R   0.570878 0.641047 0.116350 0.593817
C15   C     C_R   0.419919 0.350616 0.883619 0.552840
C16   C     C_R   0.571124 0.636189 0.056221 -0.087668
C17   C     C_R   0.422160 0.353968 0.943664 -0.079834
C18   C     C_R   0.493749 0.502452 0.030047 -0.080801
C19   C     C_R   0.502100 0.486216 0.969870 -0.076380
C20   C     C_R   0.407365 0.385005 0.064135 -0.026657
C21   C     C_R   0.590989 0.602130 0.935765 -0.020605
C22   C     C_R   0.648101 0.757318 0.021589 0.153366
C23   C     C_R   0.610501 0.369486 0.755693 0.137399
C24   C     C_R   0.344682 0.233040 0.978154 0.150657
C25   C     C_R   0.661515 0.737898 0.961672 0.081921
C26   C     C_R   0.334261 0.250582 0.038078 0.082944
C27   C     C_R   0.370660 0.603927 0.243282 0.081597
C28   C     C_R   0.609844 0.379208 0.696395 0.069264
C29   C     C_R   0.371379 0.596911 0.303045 -0.015340
C30   C     C_R   0.502247 0.485710 0.672858 -0.203680
C31   C     C_R   0.497527 0.510720 0.326908 -0.094757
C32   C     C_R   0.391327 0.576864 0.709682 0.012028
H1    H     H_    0.869587 0.879150 0.937580 0.244274
H2    H     H_    0.816163 0.342052 0.639254 0.214252
H3    H     H_    0.122915 0.638716 0.330888 0.187606
H4    H     H_    0.260861 0.797334 0.330675 0.189483
H5    H     H_    0.364059 0.763005 0.660228 0.183090
H6    H     H_    0.187412 0.637424 0.667440 0.209383
H7    H     H_    0.737981 0.231135 0.298880 0.218184
H8    H     H_    0.873748 0.390702 0.302140 0.205498
H9    H     H_    0.802242 0.059669 0.473964 0.215214
H10   H     H_    0.670526 0.068258 0.417994 0.200104
H11   H     H_    0.196913 0.940149 0.524512 0.218356
H12   H     H_    0.674226 0.960090 0.933546 0.222802
H13   H     H_    0.326663 0.932390 0.581075 0.188897
H14   H     H_    0.993042 0.262731 0.441915 0.161587
H15   H     H_    0.990630 0.420554 0.401708 0.190891
H16   H     H_    0.015557 0.735239 0.560244 0.164181
H17   H     H_    0.998965 0.572246 0.598196 0.168946
H18   H     H_    0.123871 0.112065 0.062230 0.244167
H19   H     H_    0.317633 0.027610 0.065502 0.229509
H20   H     H_    0.806185 0.334238 0.805258 0.214360
H21   H     H_    0.654106 0.187396 0.804666 0.231280
H22   H     H_    0.247282 0.801234 0.230689 0.212523
H23   H     H_    0.119759 0.635958 0.230524 0.210104
H24   H     H_    0.641691 0.217302 0.631983 0.191402
I1    I     I_    0.736023 0.980224 0.054828 -0.287624
I2    I     I_    0.255114 0.011768 0.944486 -0.293372
I3    I     I_    0.205314 0.683744 0.823377 -0.186459
I4    I     I_    0.821242 0.341665 0.176029 -0.269980
N1    N     N_R   0.487593 0.526347 0.147851 -0.343159
N2    N     N_3   0.247026 0.679152 0.339572 -0.425220
N3    N     N_3   0.287198 0.692332 0.688494 -0.402272
N4    N     N_3   0.750186 0.345048 0.314892 -0.445079
N5    N     N_3   0.709403 0.000902 0.450745 -0.455467
N6    N     N_3   0.288809 0.999163 0.548057 -0.451981
N7    N     N_3   0.034822 0.379022 0.439085 -0.310402
N8    N     N_3   0.964791 0.621318 0.560728 -0.314874
N9    N     N_R   0.510424 0.461149 0.851949 -0.359865
N10   N     N_2   0.950330 0.457950 0.484560 -0.006498
N11   N     N_2   0.049670 0.542050 0.515440 -0.004910
N12   N     N_3   0.742798 0.858854 0.926655 -0.344178
N13   N     N_3   0.251270 0.129916 0.072868 -0.340919
N14   N     N_3   0.726627 0.268108 0.779160 -0.391964
N15   N     N_3   0.241284 0.684860 0.217131 -0.415880
N16   N     N_3   0.716735 0.276917 0.661225 -0.406083
O1    O     O_R   0.389250 0.738570 0.503790 -0.648133
O2    O     O_2   0.696792 0.679753 0.841375 -0.499401
O3    O     O_2   0.657079 0.755032 0.143910 -0.499117
O4    O     O_2   0.324062 0.242682 0.856440 -0.499985
O5    O     O_R   0.610750 0.261430 0.496210 -0.653485
O6    O     O_R   0.678390 0.711620 0.493890 -0.593817
O7    O     O_R   0.321610 0.288380 0.506110 -0.595418
O8    O     O_R   0.355400 0.513520 0.588790 -0.637062
O9    O     O_R   0.644600 0.486480 0.411210 -0.616731
O10   O     O_R   0.644550 0.486570 0.578900 -0.618401
O11   O     O_R   0.355450 0.513430 0.421100 -0.589177
O12   O     O_2   0.315475 0.299246 0.158725 -0.502264
Zn1   Zn    Zn3+2 0.306930 0.518000 0.506610 0.963598
Zn2   Zn    Zn3+2 0.693070 0.482000 0.493390 0.959785

loop_
_geom_bond_atom_site_label_1
_geom_bond_atom_site_label_2
_ccdc_geom_bond_type
C10   O9    A    
C8    N6    S    
H24   N16   S    
H17   N8    S    
C27   C29   A    
C1    O1    A    
H21   N14   S    
C22   I1    S    
C7    C8    D    
H7    N4    S    
O1    Zn1   S    
C13   N9    A    
C6    N1    S    
C19   C21   A    
C24   C26   A    
H20   N14   S    
N8    N11   S    
C15   N9    A    
H4    N2    S    
C26   N13   S    
C18   C19   A    
C5    N9    S    
H1    N12   S    
C13   O2    S    
C10   C31   S    
C15   O4    S    
C22   C25   A    
C5    C23   A    
H10   N5    S    
N10   N11   D    
H23   N15   S    
N10   Zn2   S    
C27   N15   S    
H15   N7    S    
H5    N3    S    
C2    N4    S    
O7    Zn1   S    
C11   C20   A    
C17   C24   A    
C4    C6    A    
O10   Zn2   S    
H18   N13   S    
H9    N5    S    
C3    C5    A    
C1    O6    A    
C23   C28   A    
C14   N1    A    
C12   O7    A    
C2    C31   A    
C2    C4    A    
C9    O10   A    
C7    N5    S    
C6    C27   A    
N11   Zn1   S    
C11   O12   S    
C8    C12   S    
C4    I4    S    
C13   C21   A    
C10   O11   A    
C25   N12   S    
C14   O3    S    
H16   N8    S    
C9    C30   S    
O5    Zn2   S    
C16   C18   A    
O11   Zn1   S    
C14   C16   A    
O8    Zn1   S    
C23   N14   S    
C28   N16   S    
H6    N3    S    
C15   C17   A    
C21   C25   A    
C29   N2    S    
C16   C22   A    
C1    C7    S    
H19   N13   S    
C32   N3    S    
C11   N1    A    
H8    N4    S    
O9    Zn2   S    
O6    Zn2   S    
N7    N10   S    
C28   C30   A    
H14   N7    S    
C29   C31   A    
C30   C32   A    
C20   C26   A    
H11   N6    S    
C17   C19   A    
C12   O5    A    
H12   N12   S    
H3    N2    S    
C18   C20   A    
C3    C32   A    
C9    O8    A    
H22   N15   S    
C24   I2    S    
H13   N6    S    
H2    N16   S    
C3    I3    S    
