data_mof_unit_39002.cif
_audit_creation_date              2012-12-11T15:21:45-0500
_audit_creation_method            fapswitch 2.2
_symmetry_space_group_name_H-M    P1
_symmetry_Int_Tables_number       1
_space_group_crystal_system       triclinic
_cell_length_a                    8.252594
_cell_length_b                    12.713851
_cell_length_c                    19.108483
_cell_angle_alpha                 94.943286
_cell_angle_beta                  94.237861
_cell_angle_gamma                 98.173467
_cell_volume                      1969.59949913

loop_
_atom_site_label
_atom_site_type_symbol
_atom_type_description
_atom_site_fract_x
_atom_site_fract_y
_atom_site_fract_z
_atom_type_partial_charge
Ba1   Ba    Ba6+2 0.160910 0.552960 0.466220 1.728730
Ba2   Ba    Ba6+2 0.649260 0.447030 0.533730 1.748115
C1    C     C_3   0.386466 0.818348 0.197716 0.273020
C2    C     C_R   0.717554 0.820295 0.482184 0.112270
C3    C     C_R   0.703888 0.996600 0.444708 -0.161569
C4    C     C_3   0.944597 0.842284 0.305869 0.369525
C5    C     C_R   0.632880 0.890508 0.447083 0.028505
C6    C     C_R   0.882233 0.849950 0.509724 0.006932
C7    C     C_R   0.950836 0.961696 0.512407 -0.090440
C8    C     C_R   0.858258 0.036379 0.481129 -0.050727
C9    C     C_R   0.922438 0.148681 0.488504 0.066684
C10   C     C_R   0.169744 0.111136 0.552460 -0.007488
C11   C     C_R   0.107616 0.002119 0.546446 -0.094020
C12   C     C_3   0.436202 0.796948 0.273122 0.400143
C13   C     C_R   0.609143 0.547581 0.295954 0.137981
C14   C     C_R   0.460660 0.482862 0.274405 0.070086
C15   C     C_R   0.410323 0.462610 0.202038 -0.191955
C16   C     C_3   0.910262 0.940097 0.270209 -0.362350
C17   C     C_R   0.512166 0.504673 0.151554 -0.013968
C18   C     C_R   0.670774 0.559543 0.174973 -0.186913
C19   C     C_R   0.720542 0.578533 0.247138 -0.037072
C20   C     C_R   0.494342 0.575707 0.032964 -0.070402
C21   C     C_R   0.441440 0.565062 0.961144 -0.062850
C22   C     C_R   0.347253 0.469941 0.928890 0.039894
C23   C     C_3   0.576736 0.769373 0.644410 0.281330
C24   C     C_R   0.305701 0.386098 0.970867 -0.065049
C25   C     C_R   0.359034 0.396731 0.042950 -0.056028
C26   C     C_R   0.454740 0.491645 0.074882 0.067571
C27   C     C_R   0.132898 0.409113 0.826288 -0.116437
C28   C     C_3   0.761577 0.317399 0.322240 0.300060
C29   C     C_R   0.080916 0.404747 0.754319 0.058333
C30   C     C_R   0.343735 0.502016 0.732517 0.032542
C31   C     C_R   0.397909 0.505242 0.803956 -0.059427
C32   C     C_R   0.292956 0.459208 0.851938 -0.019817
C33   C     C_R   0.188125 0.448968 0.707847 -0.205622
C34   C     C_3   0.666955 0.878364 0.673404 -0.316024
C35   C     C_3   0.726601 0.287126 0.243246 -0.393811
C36   C     C_3   0.132918 0.760648 0.686449 0.745549
C37   C     C_3   0.246378 0.867581 0.706429 -0.289923
C38   C     C_3   0.250713 0.229649 0.381777 0.271733
C39   C     C_3   0.258734 0.110974 0.369182 -0.316159
C40   C     C_3   0.850415 0.150825 0.707783 0.359649
C41   C     C_3   0.946061 0.095219 0.761471 0.373999
C42   C     C_3   0.379569 0.212362 0.723944 0.379966
C43   C     C_3   0.398353 0.182410 0.799207 -0.300287
C44   C     C_R   0.074405 0.183283 0.526328 -0.267214
H1    H     H_    0.384243 0.712967 0.279165 -0.020706
H2    H     H_    0.327609 0.260884 0.431403 0.053849
H3    H     H_    0.251672 0.795631 0.186416 0.121080
H4    H     H_    0.204610 0.080195 0.315382 0.140897
H5    H     H_    0.190515 0.066436 0.407776 0.059123
H6    H     H_    0.388512 0.097352 0.373917 0.133051
H7    H     H_    0.572022 0.806897 0.281103 -0.129940
H8    H     H_    0.446361 0.767890 0.159892 -0.048691
H9    H     H_    0.671633 0.724685 0.623395 0.123799
H10   H     H_    0.481316 0.779188 0.602195 0.070481
H11   H     H_    0.749222 0.870581 0.720686 0.224013
H12   H     H_    0.611207 0.229352 0.232344 0.147027
H13   H     H_    0.742360 0.913176 0.633008 0.023997
H14   H     H_    0.579084 0.933081 0.687262 0.150106
H15   H     H_    0.798680 0.919133 0.232957 0.110270
H16   H     H_    0.748140 0.093406 0.679863 0.068420
H17   H     H_    0.932821 0.176001 0.666530 -0.182687
H18   H     H_    0.971514 0.019385 0.734777 -0.055452
H19   H     H_    0.063549 0.146720 0.779647 -0.043045
H20   H     H_    0.250362 0.224607 0.710959 -0.126778
H21   H     H_    0.462643 0.288655 0.721342 0.072599
H22   H     H_    0.341578 0.237528 0.834613 0.051850
H23   H     H_    0.713577 0.358721 0.215610 0.060588
H24   H     H_    0.530180 0.189263 0.817666 0.203457
H25   H     H_    0.049261 0.865761 0.346676 0.084969
H26   H     H_    0.337682 0.099385 0.802431 0.137360
H27   H     H_    0.634393 0.047877 0.416806 0.106852
H28   H     H_    0.185181 0.949896 0.567068 0.101095
H29   H     H_    0.123810 0.267394 0.531848 0.049904
H30   H     H_    0.519539 0.546615 0.822208 0.108996
H31   H     H_    0.472349 0.632399 0.931095 0.111601
H32   H     H_    0.564453 0.650804 0.055979 0.081157
H33   H     H_    0.291414 0.415890 0.185555 0.096324
H34   H     H_    0.829723 0.250223 0.222342 0.138598
H35   H     H_    0.234138 0.311541 0.947764 0.103787
H36   H     H_    0.833692 0.813236 0.332271 -0.109190
H37   H     H_    0.327529 0.329919 0.073377 0.083451
H38   H     H_    0.047177 0.377455 0.862200 0.107778
H39   H     H_    0.756009 0.586108 0.137430 0.101211
H40   H     H_    0.146116 0.449105 0.652832 0.046673
H41   H     H_    0.890695 0.004638 0.310303 0.077789
H42   H     H_    0.014586 0.968734 0.239861 0.149561
H43   H     H_    0.653187 0.346554 0.343380 0.026595
H44   H     H_    0.869278 0.381423 0.331460 0.074266
H45   H     H_    0.196976 0.700016 0.658902 -0.076059
H46   H     H_    0.184837 0.679871 0.866169 0.360555
H47   H     H_    0.543682 0.937791 0.177510 0.303644
H48   H     H_    0.595390 0.005298 0.861844 0.368777
H49   H     H_    0.670001 0.667995 0.478631 0.356191
H50   H     H_    0.674944 0.659708 0.366809 0.258035
H51   H     H_    0.298158 0.901595 0.659297 0.024513
H52   H     H_    0.349810 0.855857 0.744279 0.174994
H53   H     H_    0.179416 0.927153 0.734514 0.120975
H54   H     H_    0.122013 0.241431 0.386636 -0.002729
O1    O     O_2   0.160820 0.763040 0.533820 -0.494769
O2    O     O_2   0.750866 0.431162 0.748880 -0.432963
O3    O     O_3   0.781088 0.233177 0.742599 -0.582522
O4    O     O_3   0.890970 0.628600 0.535400 -0.458263
O5    O     O_3   0.427530 0.446070 0.416950 -0.434795
O6    O     O_2   0.637430 0.550200 0.669460 -0.406809
O7    O     O_3   0.500747 0.718399 0.698087 -0.626542
O8    O     O_2   0.510086 0.113991 0.549257 -0.482489
O9    O     O_3   0.422046 0.130837 0.677421 -0.594117
O10   O     O_3   0.385950 0.698560 0.408070 -0.411617
O11   O     O_2   0.294059 0.883577 0.449889 -0.495270
O12   O     O_3   0.306119 0.278150 0.323258 -0.639035
O13   O     O_3   0.989996 0.776045 0.646772 -0.664042
O14   O     O_3   0.374823 0.868640 0.320848 -0.596411
O15   O     O_2   0.172860 0.449730 0.330520 -0.475243
O16   O     O_3   0.962080 0.644700 0.373110 -0.463725
O17   O     O_2   0.060332 0.573604 0.249507 -0.489378
O18   O     O_2   0.969821 0.791722 0.803301 -0.246566
O19   O     O_2   0.959839 0.607782 0.749984 -0.315422
O20   O     O_3   0.231889 0.701954 0.822375 -0.563443
O21   O     O_3   0.427455 0.926907 0.188670 -0.688741
O22   O     O_2   0.933339 0.995791 0.879621 -0.223123
O23   O     O_3   0.985845 0.766285 0.254821 -0.602101
O24   O     O_2   0.842339 0.171952 0.884051 -0.306644
O25   O     O_3   0.646590 0.009311 0.816480 -0.543594
O26   O     O_3   0.626143 0.729358 0.499772 -0.751653
O27   O     O_3   0.643638 0.581432 0.365564 -0.716073
O28   O     O_2   0.649470 0.236890 0.466160 -0.466751
O29   O     O_3   0.919320 0.371390 0.464540 -0.492800
O30   O     O_3   0.424350 0.301430 0.591880 -0.499575
O31   O     O_3   0.793925 0.226364 0.353530 -0.643632
O32   O     O_3   0.382770 0.553920 0.582990 -0.476612
O33   O     O_3   0.848220 0.355290 0.626830 -0.472170
P1    P     P_3+3 0.986780 0.745970 0.554690 0.988043
P2    P     P_3+3 0.341450 0.417130 0.341310 1.034523
P3    P     P_3+3 0.932589 0.638146 0.280653 0.971253
P4    P     P_3+3 0.823520 0.254020 0.445250 0.978971
P5    P     P_3+3 0.867015 0.356827 0.718980 1.051338
P6    P     P_3+3 0.423072 0.837679 0.406740 1.003532
P7    P     P_3+3 0.460997 0.581461 0.672107 1.020306
P8    P     P_3+3 0.380887 0.162620 0.591206 0.949275
S1    S     S_3+6 0.068082 0.714335 0.767469 -0.082361
S2    S     S_3+6 0.841966 0.068532 0.838631 -0.050033

loop_
_geom_bond_atom_site_label_1
_geom_bond_atom_site_label_2
_ccdc_geom_bond_type
C4    H36   S    
C35   H23   S    
C40   H17   S    
C42   H20   S    
C17   C18   A    
C23   H10   S    
C28   H44   S    
C34   H13   S    
C40   O3    S    
C1    H3    S    
O11   P6    D    
C38   O12   S    
O1    P1    D    
C10   C11   A    
C24   C25   A    
O4    P1    S    
C4    O23   S    
O10   P6    S    
H47   O21   S    
C30   P7    S    
Ba1   O29   S    
C2    C5    A    
C36   C37   S    
C1    H8    S    
C37   H51   S    
C13   C14   A    
C15   H33   S    
Ba2   O29   S    
C10   P8    S    
Ba1   Ba2   S    
O2    P5    D    
O7    P7    S    
O30   P8    S    
C7    C11   A    
C44   H29   S    
C15   C17   A    
C37   H53   S    
C14   C15   A    
Ba2   O32   S    
C21   C22   A    
O24   S2    D    
Ba1   O16   S    
C7    C8    A    
C40   H16   S    
C39   H6    S    
C9    C44   A    
C35   H12   S    
C2    C6    A    
O5    P2    S    
C42   O9    S    
Ba1   O32   S    
O33   P5    S    
C20   C26   A    
C43   H26   S    
C3    H27   S    
C36   S1    S    
O22   S2    D    
C28   H43   S    
O8    P8    D    
C41   H18   S    
C4    H25   S    
C4    C16   S    
C35   H34   S    
Ba2   O33   S    
C6    P1    S    
C30   C33   A    
O20   S1    S    
C20   H32   S    
C27   H38   S    
C10   C44   A    
C34   H11   S    
O3    P5    S    
C3    C5    A    
C36   O13   S    
C6    C7    A    
C37   H52   S    
C34   H14   S    
C12   O14   S    
C36   H45   S    
Ba2   O6    S    
C22   C32   S    
H50   O27   S    
O28   P4    D    
O31   P4    S    
Ba1   O10   S    
C31   H30   S    
O6    P7    D    
Ba2   O4    S    
C41   H19   S    
C18   H39   S    
C43   H22   S    
C31   C32   A    
O14   P6    S    
C21   H31   S    
C29   P5    S    
C17   C26   S    
Ba1   O4    S    
C1    C12   S    
C38   C39   S    
C24   H35   S    
O13   P1    S    
C29   C33   A    
C40   C41   S    
O12   P2    S    
Ba1   P1    S    
Ba1   O1    S    
C39   H4    S    
C42   C43   S    
C23   O7    S    
C41   S2    S    
H48   O25   S    
C38   H2    S    
C19   P3    S    
C43   H24   S    
Ba2   P4    S    
C23   H9    S    
C22   C24   A    
C13   O27   S    
O18   S1    D    
C38   H54   S    
C16   H15   S    
C12   H1    S    
O16   P3    S    
O32   P7    S    
Ba2   O5    S    
C16   H41   S    
C2    O26   S    
O23   P3    S    
C30   C31   A    
C25   H37   S    
C9    P4    S    
C3    C8    A    
C27   C29   A    
C5    P6    S    
O17   P3    D    
H49   O26   S    
O15   P2    D    
O25   S2    S    
C27   C32   A    
C28   O31   S    
Ba2   O30   S    
H46   O20   S    
C16   H42   S    
C8    C9    A    
C23   C34   S    
C13   C19   A    
C12   H7    S    
O29   P4    S    
C18   C19   A    
C28   C35   S    
C25   C26   A    
O19   S1    D    
C20   C21   A    
C42   H21   S    
O9    P8    S    
Ba1   O15   S    
Ba1   P2    S    
C14   P2    S    
C33   H40   S    
C39   H5    S    
C1    O21   S    
Ba1   O5    S    
C11   H28   S    
Ba2   O28   S    
