data_mof_unit_41338.cif
_audit_creation_date              2012-12-11T15:26:02-0500
_audit_creation_method            fapswitch 2.2
_symmetry_space_group_name_H-M    P1
_symmetry_Int_Tables_number       1
_space_group_crystal_system       triclinic
_cell_length_a                    25.020199
_cell_length_b                    17.170473
_cell_length_c                    15.57687
_cell_angle_alpha                 90.055177
_cell_angle_beta                  49.195574
_cell_angle_gamma                 89.907808
_cell_volume                      5065.41691247

loop_
_atom_site_label
_atom_site_type_symbol
_atom_type_description
_atom_site_fract_x
_atom_site_fract_y
_atom_site_fract_z
_atom_type_partial_charge
C1    C     C_R   0.330213 0.102785 0.807825 -0.136088
C2    C     C_2   0.340429 0.752324 0.884632 0.168282
C3    C     C_3   0.300760 0.017401 0.034558 -0.864487
C4    C     C_3   0.898341 0.204295 0.875475 -0.847550
C5    C     C_3   0.198243 0.519488 0.966294 -0.880818
C6    C     C_3   0.105874 0.196012 0.135071 -0.882247
C7    C     C_3   0.873365 0.775101 0.923674 -0.885265
C8    C     C_2   0.293324 0.097325 0.001389 0.184759
C9    C     C_2   0.699527 0.872996 0.006544 0.198932
C10   C     C_2   0.205878 0.599285 0.999634 0.190906
C11   C     C_2   0.844534 0.260360 0.895384 0.183453
C12   C     C_2   0.824101 0.719317 0.930404 0.213533
C13   C     C_2   0.159712 0.251811 0.115099 0.183482
C14   C     C_2   0.758237 0.162307 0.939719 0.178229
C15   C     C_2   0.272621 0.728006 0.940056 0.193610
C16   C     C_2   0.239018 0.145672 0.082444 0.186752
C17   C     C_R   0.667337 0.888887 0.196825 -0.101406
C18   C     C_2   0.752359 0.820554 0.936325 0.209282
C19   C     C_2   0.260366 0.647097 0.918454 0.167381
C20   C     C_2   0.776057 0.239748 0.959817 0.189715
C21   C     C_2   0.758639 0.744621 0.976311 0.168305
C22   C     C_2   0.227297 0.226761 0.060488 0.199149
C23   C     C_R   0.593786 0.138984 0.592572 0.513627
C24   C     C_R   0.386676 0.896209 0.408175 0.501822
C25   C     C_R   0.404773 0.138384 0.408613 0.513630
C26   C     C_R   0.611824 0.890851 0.591344 0.503476
C27   C     C_R   0.100312 0.631765 0.592077 0.484456
C28   C     C_R   0.666801 0.108829 0.192688 -0.121410
C29   C     C_R   0.886951 0.395962 0.407703 0.469578
C30   C     C_R   0.905657 0.638228 0.407387 0.528397
C31   C     C_R   0.112259 0.392194 0.591515 0.500110
C32   C     C_R   0.669094 0.138272 0.403358 -0.096647
C33   C     C_R   0.311657 0.896337 0.595492 -0.096344
C34   C     C_R   0.335466 0.141964 0.597090 -0.102088
C35   C     C_R   0.685280 0.886070 0.402776 -0.103528
C36   C     C_R   0.172863 0.634204 0.402747 -0.080178
C37   C     C_R   0.812011 0.394942 0.595339 -0.090442
C38   C     C_R   0.833594 0.640604 0.595936 -0.126807
C39   C     C_R   0.343315 0.865658 0.774390 -0.116582
C40   C     C_R   0.186007 0.387897 0.403504 -0.138959
C41   C     C_R   0.576239 0.106879 0.197659 -0.055142
C42   C     C_R   0.432118 0.864933 0.776005 -0.090050
C43   C     C_R   0.417048 0.099136 0.810907 -0.008949
C44   C     C_R   0.578213 0.888776 0.197614 -0.054895
C45   C     C_R   0.082225 0.601042 0.190307 -0.009929
C46   C     C_R   0.933667 0.368248 0.777216 -0.052119
C47   C     C_R   0.924480 0.621341 0.794548 -0.064587
C48   C     C_R   0.067938 0.364755 0.223965 -0.095817
C49   C     C_R   0.345159 0.115245 0.877865 0.021463
C50   C     C_R   0.836127 0.621054 0.793895 -0.158191
C51   C     C_R   0.649086 0.868216 0.132494 0.027413
C52   C     C_R   0.645785 0.128261 0.130709 0.048058
C53   C     C_R   0.368320 0.827879 0.821055 0.076243
C54   C     C_R   0.857741 0.652421 0.848886 0.067030
C55   C     C_R   0.131889 0.327701 0.178427 0.078011
C56   C     C_R   0.154141 0.617241 0.123405 0.019737
C57   C     C_R   0.870813 0.331300 0.824182 0.067776
C58   C     C_R   0.648802 0.178030 0.496840 0.115020
C59   C     C_R   0.318934 0.880520 0.502707 0.157406
C60   C     C_R   0.353131 0.180362 0.504984 0.107823
C61   C     C_R   0.156979 0.365734 0.224722 -0.139060
C62   C     C_R   0.676591 0.866115 0.495718 0.141788
C63   C     C_R   0.156070 0.669712 0.496073 0.120127
C64   C     C_R   0.819392 0.378906 0.502239 0.161868
C65   C     C_R   0.852439 0.679064 0.503187 0.105014
C66   C     C_R   0.177389 0.368082 0.496368 0.151997
C67   C     C_R   0.239526 0.203598 0.558602 0.428205
C68   C     C_R   0.789136 0.847919 0.448711 0.430969
C69   C     C_R   0.693325 0.308642 0.471894 0.370673
C70   C     C_R   0.283110 0.749124 0.515300 0.357639
C71   C     C_R   0.739936 0.700511 0.552672 0.425097
C72   C     C_R   0.169411 0.603891 0.193011 -0.103211
C73   C     C_R   0.291108 0.348076 0.445988 0.433628
C74   C     C_R   0.193595 0.802332 0.477029 0.360822
C75   C     C_R   0.775742 0.250227 0.521896 0.358872
C76   C     C_R   0.697974 0.745991 0.545389 0.412164
C77   C     C_R   0.332695 0.303297 0.455927 0.418208
C78   C     C_R   0.232773 0.855760 0.481827 0.462064
C79   C     C_R   0.735287 0.199755 0.516852 0.454925
C80   C     C_R   0.197756 0.248880 0.550473 0.404241
C81   C     C_R   0.831177 0.802598 0.456959 0.413210
C82   C     C_R   0.734765 0.359378 0.475464 0.460304
C83   C     C_R   0.843624 0.366262 0.778200 -0.114515
C84   C     C_R   0.244980 0.696015 0.508737 0.469203
C85   C     C_R   0.722687 0.819433 0.495201 -0.337186
C86   C     C_R   0.306479 0.231713 0.511834 -0.330993
C87   C     C_R   0.275767 0.828379 0.503122 -0.347551
C88   C     C_R   0.693564 0.229846 0.494051 -0.330643
C89   C     C_R   0.223469 0.321209 0.496433 -0.334056
C90   C     C_R   0.806153 0.729538 0.508336 -0.337743
C91   C     C_R   0.774313 0.329601 0.502531 -0.347622
C92   C     C_R   0.199782 0.723492 0.491952 -0.336948
C93   C     C_3   0.212292 0.785672 0.997562 -0.909508
C94   C     C_2   0.689700 0.142376 0.006438 0.149283
C95   C     C_3   0.809024 0.130185 0.819140 -0.854500
C96   C     C_3   0.804416 0.834712 0.808823 -0.863989
C97   C     C_3   0.189804 0.120476 0.206096 -0.798776
C98   C     C_3   0.719015 0.301892 0.025507 -0.878840
C99   C     C_3   0.309175 0.621549 0.794759 -0.753508
C100  C     C_3   0.287892 0.283703 0.002996 -0.944461
C101  C     C_3   0.697906 0.688280 0.032517 -0.900320
C102  C     C_3   0.394342 0.695980 0.863925 -0.840328
C103  C     C_3   0.653245 0.147035 0.957706 -0.817658
C104  C     C_3   0.692941 0.944299 0.957135 -0.917404
Cl1   Cl    Cl    0.562861 0.153873 0.730147 -0.586742
Cl2   Cl    Cl    0.819997 0.938987 0.379452 -0.461982
Cl3   Cl    Cl    0.640782 0.343354 0.441193 -0.488807
Cl4   Cl    Cl    0.341372 0.715791 0.535675 -0.557125
Cl5   Cl    Cl    0.709779 0.606212 0.612712 -0.490393
Cl6   Cl    Cl    0.324630 0.435743 0.368010 -0.457064
Cl7   Cl    Cl    0.136210 0.833807 0.454456 -0.523630
Cl8   Cl    Cl    0.829901 0.213147 0.548773 -0.571728
Cl9   Cl    Cl    0.615965 0.708962 0.593972 -0.520196
Cl10  Cl    Cl    0.417889 0.335720 0.396655 -0.472322
Cl11  Cl    Cl    0.228564 0.955886 0.460405 -0.406717
Cl12  Cl    Cl    0.416411 0.906455 0.270980 -0.584519
Cl13  Cl    Cl    0.737369 0.098943 0.538853 -0.434164
Cl14  Cl    Cl    0.115129 0.212181 0.601341 -0.543346
Cl15  Cl    Cl    0.914865 0.836726 0.402917 -0.488218
Cl16  Cl    Cl    0.737366 0.459150 0.445490 -0.377046
Cl17  Cl    Cl    0.253786 0.595485 0.522143 -0.418129
Cl18  Cl    Cl    0.420911 0.142440 0.280627 -0.577801
Cl19  Cl    Cl    0.587487 0.907123 0.724257 -0.583388
Cl20  Cl    Cl    0.080874 0.632169 0.722896 -0.570838
Cl21  Cl    Cl    0.916003 0.410489 0.271368 -0.568414
Cl22  Cl    Cl    0.929392 0.645748 0.273826 -0.552717
Cl23  Cl    Cl    0.088865 0.411108 0.723248 -0.554540
Cl24  Cl    Cl    0.208740 0.109882 0.620793 -0.495289
H1    H     H_    0.277648 0.091970 0.838596 0.120820
H2    H     H_    0.263881 0.894142 0.683562 0.141352
H3    H     H_    0.292903 0.155182 0.685701 0.154388
H4    H     H_    0.732154 0.880948 0.314265 0.151904
H5    H     H_    0.217465 0.644907 0.314296 0.143635
H6    H     H_    0.764333 0.392276 0.683475 0.142747
H7    H     H_    0.788130 0.652447 0.683075 0.151454
H8    H     H_    0.233808 0.384675 0.315603 0.156793
H9    H     H_    0.549258 0.096184 0.166466 0.181192
H10   H     H_    0.465689 0.849487 0.793845 0.186012
H11   H     H_    0.440369 0.082992 0.847115 0.186241
H12   H     H_    0.720866 0.895969 0.163516 0.102285
H13   H     H_    0.552608 0.895367 0.163203 0.183418
H14   H     H_    0.058459 0.586660 0.154318 0.187355
H15   H     H_    0.967351 0.356041 0.795735 0.181366
H16   H     H_    0.951399 0.626259 0.826349 0.191959
H17   H     H_    0.034264 0.348956 0.206577 0.179484
H18   H     H_    0.168804 0.768087 0.086491 0.271738
H19   H     H_    0.228352 0.845013 0.001104 0.244089
H20   H     H_    0.191889 0.787937 0.952209 0.258833
H21   H     H_    0.832593 0.178152 0.756241 0.277920
H22   H     H_    0.851628 0.096676 0.806401 0.247511
H23   H     H_    0.720938 0.104602 0.157490 0.106901
H24   H     H_    0.783352 0.089712 0.800251 0.273858
H25   H     H_    0.775960 0.841280 0.776811 0.263122
H26   H     H_    0.835873 0.887843 0.788977 0.262787
H27   H     H_    0.842021 0.785793 0.760647 0.244243
H28   H     H_    0.152559 0.167473 0.264158 0.244435
H29   H     H_    0.158225 0.069375 0.218745 0.260295
H30   H     H_    0.220537 0.105676 0.232289 0.276871
H31   H     H_    0.678285 0.283937 0.115346 0.273494
H32   H     H_    0.740302 0.358608 0.025576 0.256546
H33   H     H_    0.693634 0.310344 0.988580 0.249115
H34   H     H_    0.296612 0.851668 0.787016 0.132382
H35   H     H_    0.278140 0.607398 0.768949 0.284585
H36   H     H_    0.346588 0.668116 0.736593 0.260594
H37   H     H_    0.340585 0.569982 0.781734 0.246504
H38   H     H_    0.331378 0.265682 0.914124 0.267693
H39   H     H_    0.272163 0.343237 0.999175 0.247024
H40   H     H_    0.308212 0.285691 0.048483 0.262448
H41   H     H_    0.653485 0.708356 0.119991 0.268845
H42   H     H_    0.679343 0.685100 0.984476 0.251256
H43   H     H_    0.713019 0.628973 0.038597 0.259875
H44   H     H_    0.420681 0.722575 0.892744 0.265377
H45   H     H_    0.784265 0.626006 0.820764 0.129787
H46   H     H_    0.369795 0.640763 0.911529 0.239875
H47   H     H_    0.434794 0.682468 0.772001 0.283253
H48   H     H_    0.634274 0.089118 0.956771 0.259616
H49   H     H_    0.607449 0.187372 0.010113 0.265621
H50   H     H_    0.688061 0.170825 0.870194 0.277810
H51   H     H_    0.742526 0.978110 0.907666 0.256431
H52   H     H_    0.681014 0.927273 0.902461 0.284056
H53   H     H_    0.650027 0.983063 0.024544 0.236055
H54   H     H_    0.251266 0.983692 0.078514 0.253636
H55   H     H_    0.343457 0.982485 0.959529 0.235361
H56   H     H_    0.204154 0.351989 0.210701 0.127839
H57   H     H_    0.313443 0.023300 0.090503 0.285127
H58   H     H_    0.927235 0.232836 0.898505 0.269465
H59   H     H_    0.873027 0.151200 0.928560 0.236996
H60   H     H_    0.936813 0.187134 0.784666 0.281295
H61   H     H_    0.155535 0.484821 0.041189 0.240339
H62   H     H_    0.185524 0.525627 0.910436 0.285868
H63   H     H_    0.247674 0.485319 0.922213 0.248054
H64   H     H_    0.080077 0.222841 0.105409 0.262327
H65   H     H_    0.130375 0.140512 0.087696 0.249151
H66   H     H_    0.065015 0.182968 0.226964 0.272456
H67   H     H_    0.222108 0.593459 0.162012 0.110587
H68   H     H_    0.899845 0.744848 0.950011 0.273220
H69   H     H_    0.914054 0.796439 0.835418 0.265153
H70   H     H_    0.844375 0.825979 0.980933 0.238305
H71   H     H_    0.795366 0.351555 0.795726 0.127747
H72   H     H_    0.713941 0.149210 0.315114 0.145268
N1    N     N_R   0.388930 0.078160 0.705470 -0.052355
N2    N     N_R   0.419500 0.922160 0.443350 -0.098304
N3    N     N_R   0.419500 0.077840 0.443350 -0.103476
N4    N     N_R   0.580500 0.922160 0.556650 -0.100973
N5    N     N_R   0.080500 0.577840 0.556650 -0.099503
N6    N     N_R   0.919500 0.422160 0.443350 -0.101027
N7    N     N_R   0.919500 0.577840 0.443350 -0.102766
N8    N     N_R   0.080500 0.422160 0.556650 -0.103217
N9    N     N_R   0.626210 0.077590 0.443410 -0.082581
N10   N     N_R   0.373790 0.922410 0.556590 -0.077883
N11   N     N_R   0.373790 0.077590 0.556590 -0.078578
N12   N     N_R   0.611070 0.921840 0.294530 -0.046704
N13   N     N_R   0.626210 0.922410 0.443410 -0.082544
N14   N     N_R   0.126210 0.577590 0.443410 -0.084438
N15   N     N_R   0.873790 0.422410 0.556590 -0.080044
N16   N     N_R   0.873790 0.577590 0.556590 -0.075551
N17   N     N_R   0.126210 0.422410 0.443410 -0.082294
N18   N     N_R   0.554800 0.077270 0.294580 -0.061060
N19   N     N_R   0.445200 0.922730 0.705420 -0.055007
N20   N     N_R   0.445200 0.077270 0.705420 -0.062529
N21   N     N_R   0.554800 0.922730 0.294580 -0.053027
N22   N     N_R   0.054800 0.577270 0.294580 -0.063818
N23   N     N_R   0.611070 0.078160 0.294530 -0.048578
N24   N     N_R   0.945200 0.422730 0.705420 -0.053865
N25   N     N_R   0.945200 0.577270 0.705420 -0.055079
N26   N     N_R   0.054800 0.422730 0.294580 -0.052869
N27   N     N_R   0.388930 0.921840 0.705470 -0.049000
N28   N     N_R   0.888930 0.578160 0.705470 -0.048336
N29   N     N_R   0.111070 0.421840 0.294530 -0.048834
N30   N     N_R   0.111070 0.578160 0.294530 -0.050987
N31   N     N_R   0.888930 0.421840 0.705470 -0.049237
N32   N     N_R   0.580500 0.077840 0.556650 -0.098016
Ni1   Ni    Ni4+2 0.382710 0.000000 0.629850 0.234547
Ni2   Ni    Ni4+2 0.617290 0.000000 0.370150 0.232736
Ni3   Ni    Ni4+2 0.882710 0.500000 0.629850 0.240684
Ni4   Ni    Ni4+2 0.117290 0.500000 0.370150 0.229734
Ni5   Ni    Ni4+2 0.513020 0.000000 0.629850 0.300245
Ni6   Ni    Ni4+2 0.486980 0.000000 0.370150 0.291227
Ni7   Ni    Ni4+2 0.013020 0.500000 0.629850 0.311042
Ni8   Ni    Ni4+2 0.986980 0.500000 0.370150 0.298136

loop_
_geom_bond_atom_site_label_1
_geom_bond_atom_site_label_2
_ccdc_geom_bond_type
C78   C87   A    
N6    N15   A    
C23   C58   A    
C30   Cl22  S    
C3    H54   S    
C29   Cl21  S    
C40   N17   A    
C31   C66   A    
C18   C21   S    
C18   C96   S    
C101  H43   S    
C50   N28   A    
C43   N20   A    
C9    C51   S    
C31   Cl23  S    
C17   N12   A    
C1    N1    A    
C36   H5    S    
C37   C64   A    
C72   H67   S    
C41   N18   A    
C69   Cl3   S    
N18   N23   A    
C104  H52   S    
C15   C19   S    
C40   H8    S    
C24   N2    A    
C75   Cl8   S    
C50   C54   A    
C72   N30   A    
C100  H39   S    
C45   N22   A    
C4    H59   S    
C13   C55   S    
C5    H62   S    
C1    H1    S    
C9    C104  S    
C42   C53   A    
C71   C76   A    
N31   Ni3   S    
C16   C97   S    
N10   Ni1   S    
C104  H51   S    
C42   H10   S    
C2    C102  S    
C74   C92   A    
N4    N13   A    
C23   Cl1   S    
C79   Cl13  S    
N25   N28   A    
C46   N24   A    
N8    Ni7   S    
C93   H20   S    
C100  H38   S    
C34   H3    S    
C97   H28   S    
C4    H58   S    
C80   C89   A    
N5    Ni7   S    
C73   C77   A    
N9    Ni2   S    
C103  H48   S    
N28   Ni3   S    
C69   C82   A    
C36   N14   A    
C96   H26   S    
C78   Cl11  S    
C45   C56   A    
C44   H13   S    
N3    Ni6   S    
C1    C49   A    
C63   C92   S    
C61   N29   A    
C57   C83   A    
N30   Ni4   S    
C95   H21   S    
C25   C60   A    
C32   C58   A    
C17   H12   S    
C36   C63   A    
C70   C84   A    
C25   Cl18  S    
C41   C52   A    
C41   H9    S    
C23   N32   A    
C75   C91   A    
C21   C101  S    
C67   C86   A    
C101  H42   S    
C104  H53   S    
C29   C64   A    
C8    C16   D    
C40   C66   A    
C34   C60   A    
C68   C85   A    
N3    N11   A    
C7    C12   S    
C68   Cl2   S    
N2    N10   A    
C70   C87   A    
C3    H57   S    
N17   Ni4   S    
C79   C88   A    
C71   Cl5   S    
C66   C89   S    
N12   N21   A    
C102  H44   S    
C65   C90   S    
N27   Ni1   S    
C62   C85   S    
C80   Cl14  S    
C11   C20   D    
N26   Ni8   S    
C30   C65   A    
C14   C20   S    
C73   Cl6   S    
N15   Ni3   S    
C5    H63   S    
C3    C8    S    
C34   N11   A    
N24   N31   A    
C74   Cl7   S    
C60   C86   S    
C43   C49   A    
C17   C51   A    
C56   C72   A    
C84   Cl17  S    
C47   H16   S    
C29   N6    A    
N11   Ni1   S    
C16   C22   S    
C101  H41   S    
C27   N5    A    
N9    N32   A    
C97   H29   S    
C7    H69   S    
C26   N4    A    
N2    Ni6   S    
N23   Ni2   S    
C48   N26   A    
C33   N10   A    
N1    Ni1   S    
C96   H25   S    
C47   N25   A    
C38   C65   A    
C28   N23   A    
C10   C19   D    
C48   H17   S    
C35   H4    S    
C76   Cl9   S    
C93   H18   S    
C95   H22   S    
C38   H7    S    
C98   H31   S    
C4    C11   S    
C52   C94   S    
C2    C15   D    
C35   N13   A    
C69   C88   A    
C27   C63   A    
N7    Ni8   S    
C47   C54   A    
C99   H35   S    
C82   Cl16  S    
C44   C51   A    
C98   H32   S    
C77   C86   A    
C42   N19   A    
C50   H45   S    
C46   C57   A    
C45   H14   S    
N25   Ni7   S    
C39   H34   S    
N20   Ni5   S    
C75   C79   A    
C26   Cl19  S    
C81   C90   A    
C83   H71   S    
N13   Ni2   S    
C14   C95   S    
C6    H66   S    
C98   H33   S    
C10   C56   S    
N8    N17   A    
C61   H56   S    
C19   C99   S    
C48   C55   A    
C8    C49   S    
C94   C103  S    
C39   N27   A    
N14   Ni4   S    
C67   C80   A    
N1    N20   A    
C38   N16   A    
N4    Ni5   S    
C25   N3    A    
C2    C53   S    
C58   C88   S    
C15   C93   S    
N12   Ni2   S    
C27   Cl20  S    
C24   Cl12  S    
C46   H15   S    
C95   H24   S    
C43   H11   S    
C102  H46   S    
N26   N29   A    
C81   Cl15  S    
C68   C81   A    
N21   Ni6   S    
C100  H40   S    
C103  H50   S    
N19   N27   A    
C97   H30   S    
N19   Ni5   S    
N29   Ni4   S    
C102  H47   S    
C5    H61   S    
C31   N8    A    
C32   H72   S    
C70   Cl4   S    
C67   Cl24  S    
C6    C13   S    
C32   N9    A    
C28   C52   A    
C4    H60   S    
C39   C53   A    
C71   C90   A    
C83   N31   A    
C7    H70   S    
C24   C59   A    
C30   N7    A    
C55   C61   A    
N22   Ni8   S    
N7    N16   A    
C14   C94   D    
C13   C22   D    
C93   H19   S    
C35   C62   A    
C26   C62   A    
N24   Ni7   S    
C59   C87   S    
N5    N14   A    
C22   C100  S    
N32   Ni5   S    
C82   C91   A    
C73   C89   A    
C99   H36   S    
C12   C21   D    
C33   H2    S    
C9    C18   D    
C5    C10   S    
C20   C98   S    
C96   H27   S    
N22   N30   A    
C28   H23   S    
C33   C59   A    
C74   C78   A    
C6    H64   S    
N16   Ni3   S    
N18   Ni6   S    
C37   H6    S    
N6    Ni8   S    
C44   N21   A    
C84   C92   A    
C64   C91   S    
C103  H49   S    
C7    H68   S    
C11   C57   S    
C3    H55   S    
C76   C85   A    
C37   N15   A    
C6    H65   S    
C12   C54   S    
C77   Cl10  S    
C99   H37   S    
