data_mof_unit_37317.cif
_audit_creation_date              2012-10-26T18:27:11-0400
_audit_creation_method            fapswitch 2.2
_symmetry_space_group_name_H-M    P1
_symmetry_Int_Tables_number       1
_space_group_crystal_system       triclinic
_cell_length_a                    14.995967
_cell_length_b                    10.950139
_cell_length_c                    9.783348
_cell_angle_alpha                 89.327529
_cell_angle_beta                  89.777841
_cell_angle_gamma                 91.14706
_cell_volume                      1606.05710907

loop_
_atom_site_label
_atom_site_type_symbol
_atom_type_description
_atom_site_fract_x
_atom_site_fract_y
_atom_site_fract_z
_atom_type_partial_charge
C1    C     C_R   0.495131 0.265533 0.501377 0.526490
C2    C     C_R   0.185019 0.391150 0.526936 -0.080211
C3    C     C_R   0.233044 0.499104 0.500026 0.027785
C4    C     C_R   0.329276 0.499001 0.500256 0.550392
C5    C     C_R   0.189776 0.606343 0.466711 -0.086093
C6    C     C_2   0.470880 0.935792 0.390304 0.246621
C7    C     C_2   0.502160 0.866248 0.494088 -0.082669
C8    C     C_2   0.486888 0.067918 0.394093 -0.142339
C9    C     C_2   0.474520 0.134726 0.506681 -0.010518
C10   C     C_2   0.439783 0.446105 0.927142 0.128882
C11   C     C_2   0.453831 0.423036 0.077412 0.142115
C12   C     C_R   0.909378 0.613641 0.454270 -0.000682
C13   C     C_R   0.497986 0.734195 0.498503 0.577413
C14   C     C_R   0.670805 0.501494 0.499533 0.547205
C15   C     C_R   0.815148 0.615523 0.469801 0.056417
C16   C     C_R   0.767610 0.505459 0.496866 -0.015352
C17   C     C_R   0.811673 0.396774 0.519989 -0.114632
C18   C     C_R   0.904229 0.395091 0.519103 0.004071
C19   C     C_R   0.953560 0.502913 0.487460 0.012570
C20   C     C_2   0.766809 0.731281 0.482461 0.637812
C21   C     C_2   0.430390 0.083424 0.632109 0.587036
C22   C     C_2   0.352603 0.406539 0.872861 0.626063
C23   C     C_R   0.947588 0.285693 0.547146 -0.087240
C24   C     C_2   0.588235 0.515133 0.894600 0.705113
C25   C     C_2   0.415471 0.307785 0.133427 0.642138
C26   C     C_2   0.081639 0.159226 0.566858 0.561020
C27   C     C_R   0.040694 0.280296 0.545469 0.067519
C28   C     C_R   0.091449 0.388774 0.520096 0.018641
C29   C     C_R   0.047286 0.499452 0.489159 0.042298
C30   C     C_R   0.097159 0.607213 0.460572 -0.010517
C31   C     C_R   0.054618 0.713344 0.419672 -0.084175
C32   C     C_R   0.962022 0.716115 0.406904 0.207349
Cu1   Cu    Cu3+1 0.500020 0.500020 0.638630 1.124567
Cu2   Cu    Cu3+1 0.499980 0.499980 0.361370 1.128053
H1    H     H_    0.536911 0.908640 0.578970 0.106040
H2    H     H_    0.328885 0.982313 0.712921 0.365892
H3    H     H_    0.280981 0.276674 0.775918 0.337504
H4    H     H_    0.694557 0.629398 0.912077 0.359896
H5    H     H_    0.324012 0.223671 0.255534 0.364926
H6    H     H_    0.171423 0.036569 0.504552 0.369315
H7    H     H_    0.934137 0.973540 0.463474 0.358906
H8    H     H_    0.454695 0.799073 0.053490 0.371011
H9    H     H_    0.511957 0.110700 0.300677 0.203140
H10   H     H_    0.515766 0.581830 0.109272 0.238679
H11   H     H_    0.773302 0.313518 0.541155 0.138224
H12   H     H_    0.908415 0.203076 0.567746 0.164543
H13   H     H_    0.221746 0.310338 0.552969 0.157909
H14   H     H_    0.228449 0.689056 0.445487 0.164862
H15   H     H_    0.094609 0.792964 0.389987 0.171428
H16   H     H_    0.676255 0.845194 0.403636 0.347371
N1    N     N_2   0.499020 0.498660 0.846910 -0.269980
N2    N     N_2   0.499000 0.498630 0.153040 -0.351202
O1    O     O_R   0.500020 0.321960 0.617040 -0.449454
O2    O     O_R   0.700442 0.760669 0.388571 -0.622219
O3    O     O_2   0.462436 0.103403 0.744599 -0.396483
O4    O     O_R   0.352476 0.011962 0.620866 -0.691162
O5    O     O_2   0.286504 0.466055 0.897730 -0.485995
O6    O     O_R   0.344979 0.297959 0.800286 -0.620154
O7    O     O_2   0.628567 0.429171 0.943957 -0.476843
O8    O     O_R   0.630991 0.628799 0.877136 -0.637220
O9    O     O_2   0.441272 0.211044 0.088321 -0.430805
O10   O     O_R   0.345266 0.308824 0.227490 -0.645047
O11   O     O_2   0.052495 0.090026 0.656116 -0.479587
O12   O     O_R   0.499980 0.321920 0.382900 -0.508378
O13   O     O_R   0.150476 0.121730 0.481116 -0.667794
O14   O     O_2   0.993602 0.891344 0.215702 -0.225023
O15   O     O_2   0.846624 0.792896 0.215080 -0.184441
O16   O     O_3   0.882786 0.950391 0.405256 -0.461954
O17   O     O_2   0.349343 0.778455 0.284347 -0.285765
O18   O     O_2   0.364342 0.980134 0.176070 -0.213719
O19   O     O_3   0.489802 0.825052 0.134033 -0.472658
O20   O     O_R   0.370270 0.499990 0.617090 -0.503214
O21   O     O_R   0.370240 0.499950 0.382940 -0.439094
O22   O     O_R   0.500020 0.678080 0.617100 -0.484991
O23   O     O_R   0.499980 0.678040 0.382960 -0.424413
O24   O     O_R   0.629760 0.500050 0.617060 -0.486003
O25   O     O_R   0.629730 0.500010 0.382910 -0.461193
O26   O     O_2   0.784022 0.799570 0.577167 -0.453434
S1    S     S_3+6 0.920558 0.838516 0.305514 0.076758
S2    S     S_3+6 0.414324 0.878883 0.244392 0.078683

loop_
_geom_bond_atom_site_label_1
_geom_bond_atom_site_label_2
_ccdc_geom_bond_type
C8    H9    S    
C22   O5    D    
C10   C22   S    
O14   S1    D    
C26   C27   S    
H16   O2    S    
C28   C29   A    
C17   H11   S    
Cu2   O25   S    
C30   C31   A    
C11   C25   S    
C15   C16   A    
C18   C19   A    
C14   O25   A    
C1    O1    A    
C11   N2    D    
Cu1   O20   S    
C13   O23   A    
C8    C9    D    
C23   C27   A    
H3    O6    S    
Cu2   O23   S    
H10   N2    S    
O16   S1    S    
C23   H12   S    
C12   C32   A    
C31   H15   S    
C10   N1    D    
O19   S2    S    
C17   C18   A    
H7    O16   S    
Cu1   O1    S    
C15   C20   S    
C5    H14   S    
O18   S2    D    
C18   C23   A    
C1    C9    S    
C20   O2    S    
C21   O3    D    
C16   C17   A    
C6    C8    S    
C14   O24   A    
C26   O11   D    
C29   C30   A    
H2    O4    S    
Cu1   O24   S    
C6    S2    S    
C31   C32   A    
C12   C15   A    
C24   O8    S    
Cu2   O12   S    
Cu1   Cu2   S    
O15   S1    D    
C25   O9    D    
C4    O21   A    
H4    O8    S    
H6    O13   S    
C14   C16   S    
C3    C4    S    
C19   C29   A    
C1    O12   A    
C4    O20   A    
C5    C30   A    
H5    O10   S    
C26   O13   S    
C7    H1    S    
C3    C5    A    
C22   O6    S    
C21   O4    S    
C6    C7    D    
C2    H13   S    
Cu1   N1    S    
Cu2   N2    S    
C20   O26   D    
C2    C3    A    
C32   S1    S    
C9    C21   S    
C24   N1    S    
C24   O7    D    
C12   C19   A    
H8    O19   S    
C25   O10   S    
C10   C11   S    
Cu2   O21   S    
Cu1   O22   S    
C7    C13   S    
C13   O22   A    
C27   C28   A    
O17   S2    D    
C2    C28   A    
