data_mof_unit_19423.cif
_audit_creation_date              2012-12-10T17:10:14-0500
_audit_creation_method            fapswitch 2.2
_symmetry_space_group_name_H-M    P1
_symmetry_Int_Tables_number       1
_space_group_crystal_system       triclinic
_cell_length_a                    15.73602
_cell_length_b                    10.688244
_cell_length_c                    10.04936
_cell_angle_alpha                 89.823256
_cell_angle_beta                  90.273632
_cell_angle_gamma                 90.063434
_cell_volume                      1690.17776733

loop_
_atom_site_label
_atom_site_type_symbol
_atom_type_description
_atom_site_fract_x
_atom_site_fract_y
_atom_site_fract_z
_atom_type_partial_charge
C1    C     C_R   0.505848 0.262709 0.500000 0.961777
C2    C     C_2   0.499069 0.869765 0.496959 -0.368874
C3    C     C_2   0.538523 0.065616 0.390637 0.531527
C4    C     C_R   0.338043 0.499787 0.499682 0.898509
C5    C     C_2   0.522883 0.131387 0.501622 -0.411486
C6    C     C_2   0.545317 0.576886 0.924540 -0.052823
C7    C     C_2   0.554069 0.562227 0.073036 -0.093165
C8    C     C_R   0.499940 0.737395 0.499657 0.953404
C9    C     C_R   0.661955 0.500069 0.500264 0.885798
C10   C     C_3   0.972231 0.428840 0.598967 0.456866
C11   C     C_3   0.027367 0.377054 0.486354 -0.120356
C12   C     C_3   0.083155 0.494611 0.497975 0.115056
C13   C     C_1   0.249192 0.498288 0.499010 -0.139777
C14   C     C_1   0.750791 0.499196 0.500400 -0.133227
C15   C     C_3   0.028572 0.546428 0.612485 -0.276655
C16   C     C_2   0.055828 0.243774 0.474975 0.368150
C17   C     C_2   0.414931 0.485419 0.105005 0.563400
C18   C     C_3   0.998229 0.329743 0.799270 0.089181
C19   C     C_3   0.962486 0.235052 0.897466 -0.772823
C20   C     C_2   0.942245 0.391114 0.254090 0.382192
C21   C     C_3   0.526907 0.058040 0.159181 0.126266
C22   C     C_3   0.520582 0.145121 0.039510 -0.800704
C23   C     C_3   0.972496 0.614461 0.507405 -0.209616
C24   C     C_3   0.916824 0.496411 0.496306 0.111304
C25   C     C_3   0.028843 0.563464 0.393186 -0.209109
C26   C     C_3   0.971877 0.445828 0.383337 -0.069550
C27   C     C_1   0.173964 0.496608 0.498522 0.035431
C28   C     C_1   0.826003 0.498065 0.498993 0.063701
C29   C     C_2   0.544072 0.929641 0.404050 -0.307883
H1    H     H_    0.523393 0.088147 0.599527 0.123521
H2    H     H_    0.008810 0.169755 0.468656 0.086408
H3    H     H_    0.380464 0.402221 0.135169 0.036347
H4    H     H_    0.015546 0.415822 0.855176 0.146278
H5    H     H_    0.056385 0.288856 0.754042 0.155092
H6    H     H_    0.944735 0.147635 0.844664 0.254166
H7    H     H_    0.011021 0.212746 0.974503 0.199870
H8    H     H_    0.905346 0.273978 0.946809 0.279581
H9    H     H_    0.988656 0.360138 0.181964 0.061414
H10   H     H_    0.462898 0.016112 0.175968 0.148569
H11   H     H_    0.573444 0.983347 0.135233 0.139333
H12   H     H_    0.580378 0.651494 0.876122 0.144209
H13   H     H_    0.583199 0.189361 0.019824 0.264667
H14   H     H_    0.500553 0.091440 0.950238 0.207121
H15   H     H_    0.472990 0.219339 0.058772 0.227891
H16   H     H_    0.480498 0.419675 0.895943 0.163889
H17   H     H_    0.609289 0.604418 0.119858 0.147003
H18   H     H_    0.053998 0.618671 0.308263 0.156200
H19   H     H_    0.948056 0.711545 0.515155 0.160996
H20   H     H_    0.053823 0.587892 0.705788 0.148387
H21   H     H_    0.582637 0.877621 0.333906 0.166270
H22   H     H_    0.458335 0.916191 0.568146 0.150827
N1    N     N_2   0.500900 0.501330 0.852150 -0.166206
N2    N     N_2   0.500930 0.501360 0.147810 -0.162968
O1    O     O_R   0.499990 0.319060 0.613040 -0.631795
O2    O     O_2   0.377260 0.567926 0.044313 -0.589175
O3    O     O_3   0.935866 0.357141 0.702284 -0.610201
O4    O     O_2   0.866585 0.381158 0.229239 -0.557517
O5    O     O_3   0.555116 0.127174 0.270661 -0.578233
O6    O     O_R   0.500010 0.319100 0.386900 -0.562103
O7    O     O_R   0.376760 0.499970 0.613050 -0.595307
O8    O     O_R   0.376790 0.500010 0.386910 -0.631886
O9    O     O_R   0.499990 0.680900 0.613100 -0.614159
O10   O     O_R   0.500010 0.680940 0.386960 -0.613932
O11   O     O_R   0.623210 0.499990 0.613090 -0.617573
O12   O     O_R   0.623240 0.500030 0.386950 -0.603156
O13   O     O_2   0.131279 0.217820 0.472897 -0.570477
Zn1   Zn    Zn3+2 0.499980 0.499970 0.650990 0.971325
Zn2   Zn    Zn3+2 0.500020 0.500030 0.349010 0.988806

loop_
_geom_bond_atom_site_label_1
_geom_bond_atom_site_label_2
_ccdc_geom_bond_type
C9    C14   S    
C3    O5    S    
C6    C7    S    
O1    Zn1   S    
O6    Zn2   S    
C9    O11   A    
C10   O3    S    
C11   C16   S    
C25   H18   S    
C22   H14   S    
C21   H10   S    
C12   C15   S    
C18   O3    S    
C12   C25   S    
C23   C24   S    
O12   Zn2   S    
C14   C28   T    
C4    O7    A    
C15   C23   S    
C19   H7    S    
C21   O5    S    
C19   H6    S    
C21   C22   S    
C16   H2    S    
C18   H5    S    
O8    Zn2   S    
C22   H13   S    
N1    Zn1   S    
C20   C26   S    
O9    Zn1   S    
C2    C29   D    
C1    C5    S    
C4    O8    A    
C25   C26   S    
C24   C26   S    
H16   N1    S    
C29   H21   S    
C1    O6    A    
C17   H3    S    
C18   H4    S    
C9    O12   A    
C19   H8    S    
C16   O13   D    
C2    H22   S    
C7    N2    D    
C12   C27   S    
C8    O9    A    
C7    H17   S    
C17   N2    S    
C23   C25   S    
C20   H9    S    
O7    Zn1   S    
C10   C24   S    
C18   C19   S    
C10   C11   S    
C2    C8    S    
C4    C13   S    
C3    C29   S    
N2    Zn2   S    
C17   O2    D    
O10   Zn2   S    
C13   C27   T    
C22   H15   S    
C23   H19   S    
C8    O10   A    
C11   C26   S    
C6    N1    D    
C20   O4    D    
C5    H1    S    
C1    O1    A    
O11   Zn1   S    
C24   C28   S    
C11   C12   S    
C15   H20   S    
C10   C15   S    
C3    C5    D    
C6    H12   S    
C21   H11   S    
