data_mof_unit_35451.cif
_audit_creation_date              2013-03-05T15:59:41-0500
_audit_creation_method            fapswitch 2.2
_symmetry_space_group_name_H-M    P1
_symmetry_Int_Tables_number       1
_space_group_crystal_system       triclinic
_cell_length_a                    15.0188
_cell_length_b                    13.719186
_cell_length_c                    27.789022
_cell_angle_alpha                 89.711694
_cell_angle_beta                  89.612554
_cell_angle_gamma                 90.931112
_cell_volume                      5724.84613201

loop_
_atom_site_label
_atom_site_type_symbol
_atom_site_description
_atom_site_fract_x
_atom_site_fract_y
_atom_site_fract_z
_atom_type_partial_charge
O1    O     O_R   0.370260 0.582280 0.500010 -0.593535
O2    O     O_R   0.629740 0.417720 0.499990 -0.598971
O3    O     O_R   0.629740 0.582280 0.499990 -0.588191
O4    O     O_R   0.370260 0.417720 0.500010 -0.588986
C1    C     C_R   0.328639 0.499280 0.499869 0.810701
C2    C     C_R   0.671152 0.500550 0.499277 0.802221
O5    O     O_R   0.500020 0.582260 0.430260 -0.582791
O6    O     O_R   0.499980 0.417740 0.569740 -0.578105
O7    O     O_R   0.499980 0.582260 0.569740 -0.579626
O8    O     O_R   0.500020 0.417740 0.430260 -0.570026
C3    C     C_R   0.502839 0.500212 0.407491 0.793855
C4    C     C_R   0.498918 0.499647 0.592826 0.800645
Cu1   Cu    Cu3+1 0.500000 0.597420 0.500000 0.931673
Cu2   Cu    Cu3+1 0.500000 0.402580 0.500000 0.925486
C5    C     C_R   0.436572 0.475397 0.178273 0.543647
C6    C     C_R   0.577301 0.531178 0.822127 0.543180
O9    O     O_2   0.367531 0.435935 0.203388 -0.547666
O10   O     O_2   0.653824 0.537485 0.796428 -0.549025
N1    N     N_R   0.507524 0.514305 0.202106 -0.454242
N2    N     N_R   0.497955 0.522968 0.798902 -0.453230
C7    C     C_R   0.578987 0.555086 0.178297 0.523011
C8    C     C_R   0.418727 0.517158 0.823408 0.522028
C9    C     C_R   0.557392 0.439807 0.277334 -0.133340
C10   C     C_R   0.478211 0.426646 0.725701 -0.137489
C11   C     C_R   0.558256 0.434459 0.327755 0.121740
C12   C     C_R   0.477615 0.417346 0.675429 0.125085
C13   C     C_R   0.457851 0.572632 0.330190 -0.256857
C14   C     C_R   0.518349 0.590025 0.669099 -0.257398
C15   C     C_R   0.458094 0.576874 0.280142 -0.114602
C16   C     C_R   0.518191 0.597445 0.719012 -0.113138
C17   C     C_R   0.507676 0.510437 0.253661 0.339273
C18   C     C_R   0.498036 0.515892 0.747398 0.336868
C19   C     C_R   0.508158 0.516187 0.102111 -0.069825
C20   C     C_R   0.499743 0.522676 0.898918 -0.069850
C21   C     C_R   0.435421 0.475450 0.127995 -0.030143
C22   C     C_R   0.579815 0.531277 0.872418 -0.029955
C23   C     C_R   0.364349 0.431746 0.103455 -0.192675
C24   C     C_R   0.661458 0.534917 0.896319 -0.193094
C25   C     C_R   0.581681 0.558034 0.127074 -0.082723
C26   C     C_R   0.416710 0.517291 0.874613 -0.083455
C27   C     C_R   0.506736 0.501450 0.354572 -0.066730
C28   C     C_R   0.498363 0.500752 0.646293 -0.076391
H1    H     H_    0.418335 0.624487 0.349986 0.160423
H2    H     H_    0.534551 0.654966 0.648292 0.172323
H3    H     H_    0.419625 0.631726 0.261857 0.140296
H4    H     H_    0.533639 0.666796 0.735694 0.144527
H5    H     H_    0.311850 0.394103 0.123464 0.188901
H6    H     H_    0.723034 0.535050 0.875720 0.189579
C29   C     C_R   0.424646 0.500090 0.976345 -0.018679
C30   C     C_R   0.582364 0.546788 0.024853 -0.018460
C31   C     C_R   0.585287 0.532892 0.974098 0.003158
C32   C     C_R   0.429899 0.481248 0.026571 0.002479
C33   C     C_R   0.503267 0.518629 0.949786 0.064388
C34   C     C_R   0.506907 0.514559 0.051183 0.065132
C35   C     C_R   0.342642 0.506360 0.952770 -0.178233
C36   C     C_R   0.650259 0.596926 0.049361 -0.179674
C37   C     C_R   0.336138 0.513253 0.902431 0.138807
C38   C     C_R   0.653112 0.602062 0.099891 0.139653
O11   O     O_2   0.343109 0.510519 0.797761 -0.578271
O12   O     O_2   0.646419 0.591919 0.204642 -0.579131
C39   C     C_R   0.361485 0.431529 0.053246 -0.027194
C40   C     C_R   0.665838 0.533499 0.946532 -0.026046
H7    H     H_    0.463130 0.364063 0.748468 0.133317
H8    H     H_    0.596037 0.389285 0.256198 0.134388
H9    H     H_    0.283295 0.508973 0.974538 0.173397
H10   H     H_    0.699657 0.635711 0.028306 0.174742
C41   C     C_R   0.814449 0.562616 0.466841 -0.268538
C42   C     C_R   0.184429 0.430054 0.527292 -0.258452
C43   C     C_R   0.767465 0.500659 0.498255 -0.047016
C44   C     C_R   0.231940 0.497512 0.498930 -0.048560
C45   C     C_R   0.811832 0.434940 0.527420 -0.227941
C46   C     C_R   0.187545 0.562467 0.469146 -0.233349
C47   C     C_R   0.904231 0.432712 0.526890 0.068876
C48   C     C_R   0.094864 0.560219 0.467135 0.071057
C49   C     C_R   0.952893 0.496338 0.496203 0.034418
C50   C     C_R   0.046140 0.494932 0.496981 0.033748
C51   C     C_R   0.907995 0.560693 0.464667 0.059653
C52   C     C_R   0.090822 0.428621 0.527617 0.056781
C53   C     C_R   0.947732 0.367132 0.556788 -0.212373
C54   C     C_R   0.050972 0.621240 0.434868 -0.208355
C55   C     C_R   0.041031 0.363065 0.557587 0.146482
C56   C     C_R   0.957461 0.620427 0.431824 0.140983
H11   H     H_    0.776760 0.610644 0.444006 0.132266
H12   H     H_    0.221716 0.380789 0.549704 0.129150
H13   H     H_    0.774015 0.386464 0.551157 0.138195
H14   H     H_    0.225545 0.613114 0.446640 0.138122
H15   H     H_    0.907392 0.319214 0.579314 0.160596
H16   H     H_    0.091052 0.667944 0.411602 0.156831
C57   C     C_R   0.431810 0.791384 0.521177 0.013572
C58   C     C_R   0.569268 0.208314 0.480052 0.012060
C59   C     C_R   0.570446 0.794405 0.480863 0.025548
C60   C     C_R   0.432453 0.205839 0.522027 0.021843
N3    N     N_R   0.500000 0.743810 0.500000 -0.192731
N4    N     N_R   0.500000 0.256190 0.500000 -0.189104
C61   C     C_R   0.574360 0.898104 0.481095 -0.039361
C62   C     C_R   0.428626 0.102077 0.522107 -0.053282
C63   C     C_R   0.430347 0.894679 0.523400 -0.039268
C64   C     C_R   0.574972 0.105347 0.482635 -0.030401
C65   C     C_R   0.501880 0.948354 0.501951 -0.000135
C66   C     C_R   0.501567 0.051671 0.501981 0.001308
C67   C     C_R   0.649725 0.951978 0.462863 0.122040
C68   C     C_R   0.355714 0.048423 0.543042 0.126262
C69   C     C_R   0.359535 0.944479 0.546653 0.129787
C70   C     C_R   0.652682 0.055978 0.467213 0.118600
H17   H     H_    0.379054 0.746983 0.536428 0.153718
H18   H     H_    0.620441 0.251944 0.462700 0.154172
H19   H     H_    0.623821 0.751930 0.466523 0.140872
H20   H     H_    0.383175 0.248509 0.540213 0.140347
C71   C     C_3   0.088134 0.289767 0.589577 -0.407676
C72   C     C_3   0.028524 0.221571 0.619973 -0.847484
H21   H     H_    0.987710 0.264046 0.645634 0.256560
H22   H     H_    0.984908 0.176427 0.596515 0.249581
H23   H     H_    0.070592 0.171574 0.641187 0.246482
H24   H     H_    0.129259 0.243273 0.566022 0.204839
H25   H     H_    0.132703 0.330091 0.614589 0.204613
C73   C     C_3   0.909771 0.678318 0.392868 -0.401323
C74   C     C_3   0.968903 0.739247 0.358800 -0.846430
H26   H     H_    0.006900 0.795392 0.379171 0.247084
H27   H     H_    0.015160 0.691814 0.338617 0.255829
H28   H     H_    0.926442 0.777273 0.332324 0.248445
H29   H     H_    0.870559 0.626268 0.370588 0.209087
H30   H     H_    0.862340 0.728561 0.409955 0.205376
C75   C     C_3   0.728006 0.899033 0.440180 -0.418009
C76   C     C_3   0.796591 0.872396 0.478330 -0.826127
H31   H     H_    0.808723 0.933928 0.503322 0.261727
H32   H     H_    0.772764 0.808122 0.499506 0.251719
H33   H     H_    0.861077 0.855216 0.460994 0.240050
H34   H     H_    0.706756 0.833267 0.420122 0.179291
H35   H     H_    0.759309 0.942685 0.410822 0.191059
C77   C     C_3   0.274173 0.102245 0.561274 -0.407550
C78   C     C_3   0.283310 0.126769 0.614617 -0.857490
H36   H     H_    0.274156 0.060624 0.637261 0.261993
H37   H     H_    0.350039 0.158618 0.621757 0.252119
H38   H     H_    0.232711 0.180281 0.625441 0.241551
H39   H     H_    0.262795 0.169387 0.540151 0.176423
H40   H     H_    0.211452 0.061245 0.554435 0.192360
C79   C     C_3   0.291334 0.886270 0.577065 -0.413284
C80   C     C_3   0.333016 0.847723 0.623428 -0.818736
H41   H     H_    0.388404 0.797426 0.616011 0.247177
H42   H     H_    0.359109 0.909312 0.645252 0.253772
H43   H     H_    0.281657 0.807539 0.644948 0.244442
H44   H     H_    0.233104 0.928197 0.588510 0.215178
H45   H     H_    0.261562 0.825848 0.555878 0.183712
C81   C     C_3   0.739701 0.114608 0.459132 -0.412430
C82   C     C_3   0.774586 0.158775 0.506071 -0.831889
H46   H     H_    0.727731 0.211743 0.521663 0.250619
H47   H     H_    0.785989 0.100378 0.533028 0.249282
H48   H     H_    0.838834 0.197667 0.499012 0.244780
H49   H     H_    0.795175 0.071435 0.445024 0.221148
H50   H     H_    0.730521 0.172360 0.431646 0.181144
C83   C     C_3   0.452326 0.318387 0.655434 -0.406073
C84   C     C_3   0.534792 0.258087 0.644729 -0.773888
H51   H     H_    0.581606 0.297414 0.620126 0.266463
H52   H     H_    0.570100 0.241610 0.678735 0.240866
H53   H     H_    0.514580 0.188225 0.627670 0.233402
H54   H     H_    0.410574 0.277108 0.682007 0.190692
H55   H     H_    0.409479 0.325385 0.623341 0.207170
C85   C     C_3   0.617691 0.359626 0.350853 -0.411560
C86   C     C_3   0.572001 0.259420 0.352246 -0.792563
H56   H     H_    0.509616 0.261681 0.373842 0.271988
H57   H     H_    0.555950 0.234962 0.315216 0.248561
H58   H     H_    0.617029 0.205577 0.368781 0.220278
H59   H     H_    0.680696 0.354470 0.329837 0.196030
H60   H     H_    0.638122 0.381273 0.387611 0.202869
C87   C     C_3   0.244182 0.515840 0.878968 -0.306829
C88   C     C_3   0.162944 0.517331 0.912634 -0.914910
H61   H     H_    0.159098 0.449815 0.934816 0.271023
H62   H     H_    0.165257 0.582682 0.936059 0.250377
H63   H     H_    0.101341 0.520646 0.890841 0.257200
H64   H     H_    0.240734 0.582416 0.856156 0.236258
H65   H     H_    0.235970 0.450196 0.856077 0.241728
C89   C     C_3   0.731642 0.653973 0.124278 -0.313146
C90   C     C_3   0.802687 0.701086 0.091458 -0.909400
H66   H     H_    0.834611 0.645250 0.068602 0.271997
H67   H     H_    0.773278 0.758957 0.068749 0.254562
H68   H     H_    0.855281 0.735477 0.113910 0.253377
H69   H     H_    0.705358 0.713008 0.147345 0.236880
H70   H     H_    0.766769 0.600181 0.147004 0.241388
C91   C     C_R   0.293473 0.366729 0.030566 0.104210
C92   C     C_R   0.319247 0.296010 0.996974 -0.116879
C93   C     C_R   0.255350 0.235473 0.975491 -0.135050
C94   C     C_R   0.165456 0.244098 0.987728 -0.108466
C95   C     C_R   0.139274 0.313225 0.021514 -0.141062
C96   C     C_R   0.202845 0.374394 0.042889 -0.179967
H71   H     H_    0.388739 0.288009 0.987352 0.128584
H72   H     H_    0.275578 0.181663 0.949433 0.129574
H73   H     H_    0.116096 0.197064 0.971109 0.127836
H74   H     H_    0.069648 0.319467 0.031071 0.126936
H75   H     H_    0.181376 0.428363 0.068606 0.131015
C97   C     C_R   0.755356 0.518612 0.967763 0.098588
C98   C     C_R   0.769960 0.440379 0.999496 -0.115081
C99   C     C_R   0.854379 0.426282 0.019053 -0.140994
C100  C     C_R   0.924995 0.489400 0.006780 -0.120627
C101  C     C_R   0.911405 0.566655 0.974881 -0.132612
C102  C     C_R   0.827069 0.581313 0.955389 -0.173842
H76   H     H_    0.716012 0.390488 0.009073 0.128807
H77   H     H_    0.865106 0.366280 0.043660 0.126808
H78   H     H_    0.990240 0.478606 0.021997 0.123965
H79   H     H_    0.966199 0.615395 0.965370 0.135015
H80   H     H_    0.817421 0.642017 0.931016 0.133893

loop_
_geom_bond_atom_site_label_1
_geom_bond_atom_site_label_2
_geom_bond_distance
_ccdc_geom_bond_type
C89   H69   1.111253 S    
C87   H65   1.110894 S    
C2    C43   1.446578 S    
C79   H44   1.100566 S    
C41   H11   1.081663 S    
C97   C98   1.406553 A    
C62   C68   1.428386 A    
C13   C15   1.391703 A    
C38   C89   1.531619 S    
C77   H39   1.106023 S    
C41   C51   1.406522 A    
C49   C50   1.401228 A    
C78   H38   1.106447 S    
N1    C17   1.433383 S    
C53   H15   1.081135 S    
C82   H46   1.107567 S    
C80   H41   1.108321 S    
C75   C76   1.530223 S    
C40   C97   1.488568 S    
C87   C88   1.532929 S    
C90   H66   1.110324 S    
C92   C93   1.397842 A    
O5    C3    1.295197 A    
C19   C25   1.422628 A    
C48   C50   1.410196 A    
O1    C1    1.290088 A    
C83   H55   1.107977 S    
C76   H32   1.110674 S    
C12   C83   1.513226 S    
C21   C23   1.398954 A    
C10   C12   1.403550 A    
C91   C96   1.407018 A    
C32   C39   1.425602 A    
C74   H27   1.110761 S    
C88   H63   1.110628 S    
C61   C65   1.419862 A    
C37   C87   1.532085 S    
C100  H78   1.081956 S    
C58   C64   1.418085 A    
C60   C62   1.423746 A    
C73   C74   1.529788 S    
C99   H77   1.082277 S    
C43   C45   1.390411 A    
O7    Cu1   1.948088 S    
C98   H76   1.083058 S    
C81   H50   1.108625 S    
C82   H47   1.110183 S    
C45   H13   1.085445 S    
C60   H20   1.076027 S    
C65   C66   1.417511 A    
C36   C38   1.407194 A    
C4    C28   1.485929 S    
C83   C84   1.528936 S    
C86   H57   1.110773 S    
C23   H5    1.084210 S    
C24   H6    1.084307 S    
O3    Cu1   1.962928 S    
C85   H60   1.109083 S    
O3    C2    1.291196 A    
C101  C102  1.398094 A    
C79   H45   1.109137 S    
C48   C54   1.399208 A    
Cu1   Cu2   2.673045 S    
C75   H35   1.107232 S    
C88   H62   1.110825 S    
C47   C49   1.409487 A    
C87   H64   1.111274 S    
O2    C2    1.286538 A    
C31   C40   1.427411 A    
C15   C17   1.395775 A    
C5    C21   1.397405 A    
C63   C65   1.418785 A    
C32   C34   1.418078 A    
C58   N4    1.356117 A    
C90   H67   1.110777 S    
C42   C52   1.405650 A    
C73   H29   1.111649 S    
C50   C52   1.422131 A    
C98   C99   1.398750 A    
C42   H12   1.082175 S    
C59   H19   1.074332 S    
C58   H18   1.076393 S    
C7    O12   1.346877 S    
C46   C48   1.393302 A    
O8    Cu2   1.948094 S    
C74   H28   1.110592 S    
C11   C27   1.421606 A    
C8    O11   1.346945 S    
C45   C47   1.388526 A    
O4    C1    1.290545 A    
C93   C94   1.397056 A    
C25   C38   1.431706 A    
C14   H2    1.083123 S    
C30   C36   1.402894 A    
C72   H21   1.110710 S    
C57   C63   1.419296 A    
C31   C33   1.420183 A    
C9    C17   1.397490 A    
C5    N1    1.361508 A    
C95   C96   1.398320 A    
C10   C18   1.396165 A    
C1    C44   1.452526 S    
C36   H10   1.074274 S    
C59   N3    1.359705 A    
C13   C27   1.405410 A    
C46   H14   1.085161 S    
C86   H56   1.110200 S    
C7    C25   1.424099 A    
C84   H53   1.110209 S    
O6    C4    1.297002 A    
C29   C32   1.421129 A    
C8    C26   1.423071 A    
C60   N4    1.358515 A    
C30   C31   1.424669 A    
C47   C53   1.394816 A    
C86   H58   1.109567 S    
C6    N2    1.362390 A    
C83   H54   1.112304 S    
C94   C95   1.397004 A    
C49   C51   1.421887 A    
C72   H23   1.110058 S    
C63   C69   1.426232 A    
C73   H30   1.105775 S    
C85   H59   1.112028 S    
C67   C75   1.526277 S    
C76   H33   1.108100 S    
C97   C102  1.407167 A    
C54   C56   1.407415 A    
C9    H8    1.083880 S    
C84   H52   1.110778 S    
C39   C91   1.488535 S    
C67   C70   1.432501 A    
C64   C66   1.417153 A    
O8    C3    1.293518 A    
C35   C37   1.405745 A    
C88   H61   1.110538 S    
C20   C26   1.423266 A    
O1    Cu1   1.956217 S    
C57   H17   1.075012 S    
C78   H36   1.107864 S    
C82   H48   1.110813 S    
C89   C90   1.531849 S    
C12   C28   1.427453 A    
C53   C55   1.403585 A    
C102  H80   1.082993 S    
N2    C18   1.435023 S    
C90   H68   1.110558 S    
C89   H70   1.110960 S    
C19   C34   1.415764 A    
C5    O9    1.350400 S    
O6    Cu2   1.950171 S    
C26   C37   1.431684 A    
C81   H49   1.101199 S    
N1    C7    1.367442 A    
C35   H9    1.074996 S    
C16   H4    1.082909 S    
C77   H40   1.107312 S    
C68   C77   1.525281 S    
N2    C8    1.368004 A    
C81   C82   1.532955 S    
C78   H37   1.106355 S    
C80   H43   1.110481 S    
C71   H24   1.108308 S    
C23   C39   1.396229 A    
C93   H72   1.082267 S    
C54   H16   1.081165 S    
C80   H42   1.110386 S    
C10   H7    1.083989 S    
C79   C80   1.531760 S    
C55   C71   1.524650 S    
C74   H26   1.110818 S    
C99   C100  1.397575 A    
C69   C79   1.534951 S    
C77   C78   1.528267 S    
C56   C73   1.528400 S    
C14   C16   1.391269 A    
C30   C34   1.408703 A    
O4    Cu2   1.962930 S    
C29   C35   1.402590 A    
C71   C72   1.531335 S    
C6    C22   1.398310 A    
C22   C24   1.398751 A    
C16   C18   1.393752 A    
C52   C55   1.422634 A    
C75   H34   1.106669 S    
C85   C86   1.526675 S    
C51   C56   1.421268 A    
C29   C33   1.407218 A    
C62   C66   1.418215 A    
C14   C28   1.410738 A    
C19   C21   1.410179 A    
Cu2   N4    2.008352 S    
C3    C27   1.471327 S    
C20   C22   1.408896 A    
C94   H73   1.082272 S    
C9    C11   1.402882 A    
C57   N3    1.355951 A    
C68   C69   1.431157 A    
O2    Cu2   1.956216 S    
O7    C4    1.299367 A    
C72   H22   1.110984 S    
C92   H71   1.083095 S    
C71   H25   1.111444 S    
C59   C61   1.422971 A    
C91   C92   1.406759 A    
C101  H79   1.082408 S    
C13   H1    1.083600 S    
O5    Cu1   1.950176 S    
C84   H51   1.109200 S    
C20   C33   1.415753 A    
C6    O10   1.350336 S    
C100  C101  1.396705 A    
Cu1   N3    2.008352 S    
C11   C85   1.514491 S    
C42   C44   1.396581 A    
C96   H75   1.082981 S    
C44   C46   1.393942 A    
C41   C43   1.395421 A    
C95   H74   1.081997 S    
C70   C81   1.538014 S    
C64   C70   1.423526 A    
C15   H3    1.082833 S    
C61   C67   1.430189 A    
C76   H31   1.109408 S    
C24   C40   1.397411 A    
