data_mof_unit_65374.cif
_audit_creation_date              2012-12-10T19:07:21-0500
_audit_creation_method            fapswitch 2.2
_symmetry_space_group_name_H-M    P1
_symmetry_Int_Tables_number       1
_space_group_crystal_system       triclinic
_cell_length_a                    13.032564
_cell_length_b                    13.637357
_cell_length_c                    19.218212
_cell_angle_alpha                 90.015504
_cell_angle_beta                  92.445592
_cell_angle_gamma                 85.715472
_cell_volume                      3402.9851365

loop_
_atom_site_label
_atom_site_type_symbol
_atom_type_description
_atom_site_fract_x
_atom_site_fract_y
_atom_site_fract_z
_atom_type_partial_charge
C1    C     C_R   0.481180 0.685137 0.499241 0.902732
C2    C     C_R   0.518818 0.314864 0.500762 0.902703
C3    C     C_1   0.533813 0.211839 0.501374 -0.124305
C4    C     C_1   0.466179 0.788167 0.498641 -0.124962
C5    C     C_2   0.544576 0.020839 0.501801 0.485028
C6    C     C_2   0.455406 0.979170 0.498234 0.485764
C7    C     C_1   0.457320 0.875494 0.498295 0.042148
C8    C     C_1   0.542665 0.124513 0.501730 0.041999
C9    C     C_2   0.032905 0.475093 0.478766 0.402376
C10   C     C_2   0.967099 0.524869 0.521227 0.404109
C11   C     C_1   0.854847 0.518842 0.514854 0.193529
C12   C     C_1   0.145155 0.481137 0.485141 0.194454
C13   C     C_R   0.498992 0.499611 0.634701 0.985519
C14   C     C_R   0.501227 0.498680 0.365316 0.983760
C15   C     C_R   0.425139 0.442975 0.743912 -0.001726
C16   C     C_R   0.579744 0.533755 0.252740 -0.000384
C17   C     C_R   0.429715 0.436801 0.816316 0.592817
C18   C     C_R   0.579780 0.523833 0.180590 0.593174
C19   C     C_R   0.503942 0.484846 0.855355 -0.238352
C20   C     C_R   0.507306 0.468482 0.145677 -0.237313
C21   C     C_R   0.575291 0.539910 0.822142 0.038481
C22   C     C_R   0.433443 0.421983 0.182804 0.041586
C23   C     C_R   0.571042 0.545522 0.749689 0.593396
C24   C     C_R   0.433369 0.432164 0.254925 0.590142
C25   C     C_R   0.497363 0.496589 0.710409 -0.343657
C26   C     C_R   0.504721 0.489113 0.289930 -0.343396
C27   C     C_R   0.505780 0.466234 0.070233 0.378779
C28   C     C_R   0.504821 0.476909 0.930584 0.386265
N1    N     N_R   0.593824 0.452759 0.967636 -0.171534
N2    N     N_R   0.416701 0.489454 0.033098 -0.173601
N3    N     N_R   0.594398 0.447911 0.036599 -0.095176
N4    N     N_R   0.416124 0.494341 0.964191 -0.098503
N5    N     N_1   0.234540 0.484780 0.488910 -0.082681
N6    N     N_1   0.765460 0.515220 0.511090 -0.084275
O1    O     O_R   0.402510 0.634760 0.495940 -0.617802
O2    O     O_R   0.597490 0.365240 0.504060 -0.619652
O3    O     O_R   0.572960 0.644530 0.503060 -0.577714
O4    O     O_R   0.427040 0.355470 0.496940 -0.575179
O5    O     O_R   0.414750 0.495120 0.598300 -0.611792
O6    O     O_R   0.585250 0.504880 0.401700 -0.612573
O7    O     O_R   0.585190 0.504900 0.605420 -0.561173
O8    O     O_R   0.414810 0.495100 0.394580 -0.559771
Zn1   Zn    Zn3+2 0.386190 0.493480 0.495250 1.054459
Zn2   Zn    Zn3+2 0.613810 0.506520 0.504750 1.051514
N7    N     N_2   0.351126 0.391272 0.704977 -0.276014
H1    H     H_    0.348132 0.319446 0.721132 0.269280
C29   C     C_3   0.249763 0.442452 0.698797 -0.563053
H2    H     H_    0.214539 0.447604 0.750447 0.255362
H3    H     H_    0.199639 0.401578 0.662750 0.225438
H4    H     H_    0.254172 0.517675 0.677473 0.249878
N8    N     N_2   0.651963 0.592495 0.287265 -0.278546
H5    H     H_    0.655183 0.660610 0.264469 0.267920
C30   C     C_3   0.753447 0.543209 0.299322 -0.560445
H6    H     H_    0.790997 0.528827 0.249114 0.257228
H7    H     H_    0.748654 0.472420 0.327176 0.250596
H8    H     H_    0.801746 0.590525 0.331963 0.225505
F1    F     F_    0.362597 0.382200 0.848653 -0.645881
F2    F     F_    0.648691 0.571066 0.144247 -0.647995
N9    N     N_2   0.647125 0.595159 0.860510 -0.252781
H9    H     H_    0.624295 0.619996 0.908512 0.246838
C31   C     C_3   0.752720 0.553811 0.861330 -0.578393
H10   H     H_    0.759811 0.481078 0.887808 0.225482
H11   H     H_    0.803043 0.603823 0.889911 0.235436
H12   H     H_    0.779774 0.545128 0.807518 0.275149
N10   N     N_2   0.363058 0.360134 0.149149 -0.253804
H13   H     H_    0.387463 0.327352 0.103799 0.243668
C32   C     C_3   0.257030 0.400390 0.144022 -0.579368
H14   H     H_    0.249983 0.468206 0.111651 0.225603
H15   H     H_    0.228001 0.417806 0.196406 0.277994
H16   H     H_    0.208184 0.345583 0.119405 0.234355
F3    F     F_    0.636410 0.602377 0.717681 -0.617356
F4    F     F_    0.366438 0.382381 0.291223 -0.618649
F5    F     F_    0.363339 0.033526 0.494569 -0.636560
F6    F     F_    0.636643 0.966483 0.505466 -0.637029
F7    F     F_    0.005064 0.582876 0.572263 -0.653704
F8    F     F_    0.994942 0.417090 0.427727 -0.655369

loop_
_geom_bond_atom_site_label_1
_geom_bond_atom_site_label_2
_ccdc_geom_bond_type
C17   F1    S    
C31   H12   S    
N8    C30   S    
C22   N10   S    
C15   C17   A    
C6    C7    S    
C9    F8    S    
C5    C8    S    
O1    Zn1   S    
C10   F7    S    
C2    O4    A    
C3    C8    T    
N9    C31   S    
C29   H2    S    
N10   C32   S    
C16   N8    S    
C1    O3    A    
C14   O8    A    
C1    C4    S    
C32   H16   S    
O3    Zn2   S    
N7    C29   S    
C2    C3    S    
N9    H9    S    
C29   H3    S    
N7    H1    S    
C14   C26   S    
C27   N2    A    
N2    N4    A    
C19   C28   S    
C28   N4    A    
C20   C27   S    
C13   C25   S    
C5    C6    D    
C6    F5    S    
C4    C7    T    
C22   C24   A    
C16   C18   A    
C28   N1    A    
C19   C21   A    
C20   C22   A    
C21   N9    S    
C29   H4    S    
C18   C20   A    
C30   H7    S    
C21   C23   A    
C16   C26   A    
C31   H10   S    
O7    Zn2   S    
O4    Zn1   S    
O2    Zn2   S    
C13   O5    A    
C9    C12   S    
C15   N7    S    
C14   O6    A    
N8    H5    S    
N5    Zn1   S    
C9    C10   D    
C23   F3    S    
O6    Zn2   S    
C23   C25   A    
N6    Zn2   S    
C24   F4    S    
C15   C25   A    
N1    N3    A    
N10   H13   S    
C10   C11   S    
C30   H8    S    
C2    O2    A    
C5    F6    S    
C31   H11   S    
C1    O1    A    
C13   O7    A    
O5    Zn1   S    
C17   C19   A    
C12   N5    T    
C30   H6    S    
C27   N3    A    
C18   F2    S    
C11   N6    T    
C32   H14   S    
O8    Zn1   S    
C24   C26   A    
C32   H15   S    
