data_mof_unit_39189.cif
_audit_creation_date              2012-12-10T17:16:39-0500
_audit_creation_method            fapswitch 2.2
_symmetry_space_group_name_H-M    P1
_symmetry_Int_Tables_number       1
_space_group_crystal_system       triclinic
_cell_length_a                    10.354574
_cell_length_b                    10.688263
_cell_length_c                    10.816213
_cell_angle_alpha                 92.266057
_cell_angle_beta                  91.960806
_cell_angle_gamma                 78.028607
_cell_volume                      1169.69172526

loop_
_atom_site_label
_atom_site_type_symbol
_atom_type_description
_atom_site_fract_x
_atom_site_fract_y
_atom_site_fract_z
_atom_type_partial_charge
C1    C     C_R   0.448767 0.505301 0.268754 0.963027
C2    C     C_R   0.551594 0.487344 0.733089 0.966740
C3    C     C_2   0.428785 0.503198 0.138633 -0.308377
C4    C     C_2   0.572865 0.458876 0.864292 -0.432892
C5    C     C_2   0.498849 0.410829 0.064500 -0.165231
C6    C     C_2   0.475968 0.431543 0.933467 -0.131156
C7    C     C_2   0.075107 0.484419 0.496514 -0.091970
C8    C     C_2   0.921989 0.516161 0.505968 -0.090806
C9    C     C_R   0.506409 0.258036 0.504140 0.916084
C10   C     C_R   0.492666 0.740750 0.488621 0.877505
C11   C     C_R   0.723278 0.059104 0.381377 -0.098868
C12   C     C_R   0.260593 0.948373 0.571712 -0.086393
C13   C     C_R   0.795636 0.975455 0.292992 0.037651
C14   C     C_R   0.186569 0.031054 0.659704 0.026855
C15   C     C_R   0.748426 0.867989 0.249988 -0.103787
C16   C     C_R   0.242405 0.125603 0.719625 -0.120531
C17   C     C_R   0.639250 0.837770 0.303438 -0.114779
C18   C     C_R   0.359577 0.150934 0.678120 -0.109793
C19   C     C_R   0.572894 0.916057 0.399550 0.068710
C20   C     C_R   0.424668 0.078497 0.578087 0.065269
C21   C     C_R   0.605459 0.034571 0.430217 0.049655
C22   C     C_R   0.387114 0.965282 0.539430 0.050679
C23   C     C_R   0.475467 0.876531 0.466410 -0.215381
C24   C     C_R   0.521468 0.120253 0.512166 -0.206905
H1    H     H_    0.189033 0.186715 0.790698 0.208505
H2    H     H_    0.799942 0.803356 0.179691 0.192406
H3    H     H_    0.765759 0.137740 0.415442 0.225656
H4    H     H_    0.215705 0.877063 0.523620 0.218434
H5    H     H_    0.607844 0.751499 0.270497 0.143809
H6    H     H_    0.396243 0.230700 0.720344 0.150713
H7    H     H_    0.671978 0.451353 0.903903 0.189087
H8    H     H_    0.363374 0.587259 0.101952 0.175789
N1    N     N_2   0.157300 0.551390 0.551120 -0.222303
N2    N     N_2   0.842700 0.448610 0.448880 -0.214825
O1    O     O_R   0.568940 0.489660 0.307530 -0.625665
O2    O     O_R   0.431060 0.510340 0.692470 -0.616128
O3    O     O_R   0.348880 0.522640 0.340350 -0.558599
O4    O     O_R   0.651120 0.477360 0.659650 -0.569629
O5    O     O_R   0.610030 0.300280 0.483580 -0.617129
O6    O     O_R   0.389970 0.699720 0.516420 -0.607142
O7    O     O_R   0.389970 0.333270 0.516400 -0.625270
O8    O     O_R   0.610030 0.666730 0.483600 -0.622606
Zn1   Zn    Zn3+2 0.646940 0.477980 0.478080 1.025258
Zn2   Zn    Zn3+2 0.353060 0.522020 0.521920 1.029725
C25   C     C_2   0.922659 0.997833 0.248575 1.007682
O9    O     O_2   0.970506 0.942262 0.154569 -0.589902
O10   O     O_R   0.989797 0.080220 0.315619 -0.748262
H9    H     H_    0.075825 0.086393 0.276626 0.355304
C26   C     C_2   0.048073 0.026469 0.683303 0.954540
O11   O     O_2   0.999165 0.066901 0.782220 -0.606962
O12   O     O_R   0.970737 0.982368 0.590159 -0.765715
H10   H     H_    0.874414 0.000027 0.612822 0.332020
C27   C     C_2   0.333923 0.456452 0.898269 1.014203
O13   O     O_2   0.276644 0.566577 0.882288 -0.581296
O14   O     O_R   0.262535 0.360547 0.909516 -0.829979
H11   H     H_    0.163981 0.392891 0.897057 0.370130
C28   C     C_2   0.572823 0.283629 0.108510 1.050298
O15   O     O_2   0.547578 0.246330 0.208261 -0.591441
O16   O     O_R   0.666030 0.201525 0.036172 -0.743856
H12   H     H_    0.681478 0.235745 0.953531 0.317204
C29   C     C_2   0.859130 0.635776 0.570613 1.012780
O17   O     O_2   0.809062 0.634012 0.670984 -0.559455
O18   O     O_R   0.857324 0.751803 0.515694 -0.794455
H13   H     H_    0.799565 0.825314 0.562238 0.339274
C30   C     C_2   0.132492 0.363917 0.429041 1.010950
O19   O     O_2   0.123307 0.262200 0.471932 -0.639743
O20   O     O_R   0.190033 0.365508 0.314472 -0.728844
H14   H     H_    0.224130 0.276394 0.277966 0.341915
C31   C     C_2   0.867162 0.412148 0.322338 1.029674
O21   O     O_2   0.825557 0.321461 0.276825 -0.588312
O22   O     O_R   0.927563 0.486054 0.247401 -0.800651
H15   H     H_    0.935369 0.451652 0.158665 0.357572
C32   C     C_2   0.121398 0.620494 0.663876 1.082301
O23   O     O_2   0.062941 0.575608 0.741985 -0.620544
O24   O     O_R   0.164287 0.734020 0.690282 -0.777149
H16   H     H_    0.135182 0.773511 0.774165 0.365328

loop_
_geom_bond_atom_site_label_1
_geom_bond_atom_site_label_2
_ccdc_geom_bond_type
C19   C23   A    
O14   H11   S    
C15   H2    S    
C9    C24   S    
C7    C8    S    
C18   H6    S    
C5    C28   S    
C10   C23   S    
C10   O8    A    
C17   H5    S    
C32   O23   D    
C2    O4    A    
C2    C4    S    
O10   H9    S    
C1    O3    A    
C8    C29   S    
C29   O18   S    
C3    C5    D    
O3    Zn2   S    
C27   O14   S    
O22   H15   S    
O16   H12   S    
C8    N2    D    
C27   O13   D    
C13   C25   S    
C4    H7    S    
C7    N1    D    
N2    C31   S    
C9    O5    A    
C28   O15   D    
C29   O17   D    
C12   H4    S    
C5    C6    S    
N1    C32   S    
C19   C21   A    
C12   C14   A    
C11   H3    S    
C30   O19   D    
C18   C20   A    
C31   O21   D    
C13   C15   A    
N2    Zn1   S    
C3    H8    S    
O7    Zn2   S    
C14   C16   A    
C21   C24   A    
C28   O16   S    
C11   C13   A    
O2    Zn2   S    
O8    Zn1   S    
C32   O24   S    
C6    C27   S    
C4    C6    D    
O20   H14   S    
C14   C26   S    
C12   C22   A    
O6    Zn2   S    
O1    Zn1   S    
C1    O1    A    
C31   O22   S    
C26   O11   D    
C25   O10   S    
C2    O2    A    
C16   H1    S    
C15   C17   A    
C26   O12   S    
C20   C24   A    
C22   C23   A    
C17   C19   A    
C10   O6    A    
O5    Zn1   S    
O24   H16   S    
C30   O20   S    
C25   O9    D    
N1    Zn2   S    
C9    O7    A    
C7    C30   S    
C11   C21   A    
C16   C18   A    
O4    Zn1   S    
O12   H10   S    
C20   C22   A    
O18   H13   S    
C1    C3    S    
