data_mof_unit_62538.cif
_audit_creation_date              2012-12-10T22:08:25-0500
_audit_creation_method            fapswitch 2.2
_symmetry_space_group_name_H-M    P1
_symmetry_Int_Tables_number       1
_space_group_crystal_system       triclinic
_cell_length_a                    16.013383
_cell_length_b                    16.112869
_cell_length_c                    29.900384
_cell_angle_alpha                 90.68623
_cell_angle_beta                  90.140369
_cell_angle_gamma                 90.571737
_cell_volume                      7713.9803183

loop_
_atom_site_label
_atom_site_type_symbol
_atom_type_description
_atom_site_fract_x
_atom_site_fract_y
_atom_site_fract_z
_atom_type_partial_charge
C1    C     C_R   0.618227 0.999075 0.559459 0.905169
C2    C     C_R   0.381773 0.000925 0.440540 0.905169
C3    C     C_R   0.923822 0.821054 0.175149 -0.178118
C4    C     C_R   0.076178 0.178946 0.824851 -0.178119
C5    C     C_R   0.064220 0.924047 0.184099 -0.190592
C6    C     C_R   0.935780 0.075953 0.815901 -0.190592
C7    C     C_R   0.061961 0.862580 0.151040 -0.174886
C8    C     C_R   0.938039 0.137420 0.848960 -0.174886
C9    C     C_R   0.928313 0.093777 0.189402 -0.201688
C10   C     C_R   0.071687 0.906223 0.810597 -0.201687
C11   C     C_R   0.927611 0.157538 0.158464 -0.176979
C12   C     C_R   0.072389 0.842462 0.841536 -0.176979
C13   C     C_R   0.137701 0.945226 0.279309 -0.262097
C14   C     C_R   0.862299 0.054774 0.720692 -0.262097
C15   C     C_R   0.202282 0.944574 0.310434 -0.185704
C16   C     C_R   0.797718 0.055425 0.689566 -0.185704
C17   C     C_R   0.866699 0.067150 0.284958 -0.249662
C18   C     C_R   0.133301 0.932850 0.715042 -0.249662
C19   C     C_R   0.801739 0.065926 0.315545 -0.199311
C20   C     C_R   0.198261 0.934073 0.684454 -0.199311
C21   C     C_3   0.999512 0.005984 0.248753 -0.056431
C22   C     C_3   0.000488 0.994016 0.751247 -0.056431
C23   C     C_R   0.617109 0.000917 0.440526 0.905408
C24   C     C_R   0.382891 0.999082 0.559474 0.905408
C25   C     C_R   0.077606 0.009221 0.279576 0.076182
C26   C     C_R   0.922394 0.990779 0.720424 0.076183
C27   C     C_R   0.208119 0.006963 0.342793 0.129315
C28   C     C_R   0.791881 0.993037 0.657207 0.129316
C29   C     C_R   0.924277 0.000942 0.281562 0.097064
C30   C     C_R   0.075723 0.999058 0.718437 0.097064
C31   C     C_R   0.792632 0.999392 0.344122 0.124059
C32   C     C_R   0.207367 0.000608 0.655878 0.124058
C33   C     C_R   0.997912 0.082072 0.217811 0.153434
C34   C     C_R   0.002088 0.917928 0.782189 0.153434
C35   C     C_R   0.997472 0.209032 0.154138 0.174439
C36   C     C_R   0.002528 0.790968 0.845861 0.174439
C37   C     C_R   0.997784 0.933002 0.214808 0.106589
C38   C     C_R   0.002216 0.066998 0.785192 0.106589
C39   C     C_R   0.992106 0.810731 0.146950 0.172137
C40   C     C_R   0.007894 0.189269 0.853050 0.172137
C41   C     C_1   0.730039 0.000787 0.377742 -0.062004
C42   C     C_1   0.269961 0.999213 0.622258 -0.062004
C43   C     C_1   0.678465 0.001162 0.406534 -0.178463
C44   C     C_1   0.321535 0.998838 0.593465 -0.178464
C45   C     C_R   0.087294 0.074826 0.311922 0.215292
C46   C     C_R   0.912705 0.925173 0.688078 0.215292
C47   C     C_1   0.269827 0.003174 0.376958 -0.059211
C48   C     C_1   0.730173 0.996826 0.623042 -0.059211
C49   C     C_1   0.320783 0.001478 0.406180 -0.179036
C50   C     C_1   0.679217 0.998521 0.593820 -0.179036
C51   C     C_1   0.997946 0.272692 0.121569 -0.075326
C52   C     C_1   0.002054 0.727308 0.878431 -0.075326
C53   C     C_1   0.998726 0.325723 0.093941 -0.174887
C54   C     C_1   0.001274 0.674277 0.906058 -0.174887
C55   C     C_1   0.990859 0.746094 0.114057 -0.076959
C56   C     C_1   0.009141 0.253906 0.885942 -0.076959
C57   C     C_1   0.991084 0.690782 0.087015 -0.173525
C58   C     C_1   0.008916 0.309219 0.912985 -0.173526
C59   C     C_R   0.993697 0.624111 0.055658 0.902047
C60   C     C_R   0.006303 0.375889 0.944342 0.902045
C61   C     C_R   0.999281 0.388071 0.060902 0.901896
C62   C     C_R   0.000719 0.611928 0.939098 0.901896
C63   C     C_R   0.151680 0.071788 0.343477 -0.226486
C64   C     C_R   0.848320 0.928212 0.656523 -0.226484
C65   C     C_R   0.913943 0.932932 0.311930 0.201561
C66   C     C_R   0.086057 0.067068 0.688070 0.201562
C67   C     C_R   0.847561 0.933434 0.342274 -0.184936
C68   C     C_R   0.152438 0.066566 0.657726 -0.184935
C69   C     C_R   0.069383 0.132704 0.211015 -0.165207
C70   C     C_R   0.930616 0.867296 0.788985 -0.165207
C71   C     C_R   0.068399 0.196440 0.180107 -0.191610
C72   C     C_R   0.931601 0.803560 0.819893 -0.191610
C73   C     C_R   0.925778 0.882464 0.208225 -0.198592
C74   C     C_R   0.074222 0.117536 0.791775 -0.198592
H1    H     H_    0.156586 0.119214 0.369383 0.149322
H2    H     H_    0.843414 0.880786 0.630617 0.149322
H3    H     H_    0.127484 0.122402 0.228406 0.140076
H4    H     H_    0.872515 0.877598 0.771594 0.140076
H5    H     H_    0.870023 0.890195 0.228029 0.153101
H6    H     H_    0.129976 0.109805 0.771971 0.153101
H7    H     H_    0.118294 0.964842 0.185945 0.144503
H8    H     H_    0.881706 0.035157 0.814055 0.144503
H9    H     H_    0.874274 0.053039 0.191268 0.147094
H10   H     H_    0.125726 0.946961 0.808732 0.147094
H11   H     H_    0.133054 0.891932 0.257316 0.168686
H12   H     H_    0.866945 0.108068 0.742684 0.168686
H13   H     H_    0.873465 0.123453 0.266175 0.178747
H14   H     H_    0.126535 0.876547 0.733825 0.178747
H15   H     H_    0.840076 0.883262 0.365866 0.145012
H16   H     H_    0.159924 0.116737 0.634134 0.145012
H17   H     H_    0.123719 0.234784 0.175784 0.138594
H18   H     H_    0.876280 0.765217 0.824216 0.138594
H19   H     H_    0.868728 0.781955 0.171383 0.140456
H20   H     H_    0.131272 0.218045 0.828617 0.140456
H21   H     H_    0.114563 0.855676 0.128617 0.139965
H22   H     H_    0.885437 0.144324 0.871383 0.139965
H23   H     H_    0.873132 0.165843 0.137481 0.141172
H24   H     H_    0.126868 0.834157 0.862519 0.141171
H25   H     H_    0.245887 0.893559 0.310278 0.149729
H26   H     H_    0.754113 0.106441 0.689722 0.149729
H27   H     H_    0.760056 0.118393 0.317834 0.151587
H28   H     H_    0.239944 0.881607 0.682166 0.151587
O1    O     O_R   0.591150 0.068800 0.545430 -0.616898
O2    O     O_R   0.408850 0.931200 0.454570 -0.616898
O3    O     O_R   0.588750 0.931200 0.454570 -0.617872
O4    O     O_R   0.411250 0.068800 0.545430 -0.617872
O5    O     O_R   0.590220 0.070350 0.455860 -0.616740
O6    O     O_R   0.409780 0.929650 0.544140 -0.616740
O7    O     O_R   0.589680 0.929650 0.544140 -0.617792
O8    O     O_R   0.410320 0.070350 0.455860 -0.617792
O9    O     O_R   0.065580 0.596830 0.043410 -0.616366
O10   O     O_R   0.934420 0.403170 0.956590 -0.616366
O11   O     O_R   0.928990 0.412290 0.044840 -0.616123
O12   O     O_R   0.071010 0.587710 0.955160 -0.616124
O13   O     O_R   0.069930 0.417270 0.047240 -0.615611
O14   O     O_R   0.930070 0.582730 0.952760 -0.615613
O15   O     O_R   0.924640 0.591850 0.041010 -0.615688
O16   O     O_R   0.075360 0.408150 0.958990 -0.615687
Zn1   Zn    Zn3+2 0.500990 0.093570 0.500870 0.962117
Zn2   Zn    Zn3+2 0.499010 0.906430 0.499130 0.962118
Zn3   Zn    Zn3+2 0.094790 0.503330 0.001610 0.961870
Zn4   Zn    Zn3+2 0.905210 0.496670 0.998390 0.961870
C75   C     C_3   0.974152 0.861695 0.316211 -0.922497
H29   H     H_    0.027737 0.881399 0.337485 0.258505
H30   H     H_    0.944245 0.807699 0.332766 0.231915
H31   H     H_    0.996482 0.837998 0.283688 0.252761
C76   C     C_3   0.025848 0.138305 0.683789 -0.922503
H32   H     H_    0.972263 0.118601 0.662515 0.258506
H33   H     H_    0.003518 0.162002 0.716312 0.252762
H34   H     H_    0.055755 0.192301 0.667234 0.231916
N1    N     N_2   0.028600 0.140487 0.314858 -0.307136
H35   H     H_    0.988382 0.133535 0.341469 0.237580
C77   C     C_3   0.062577 0.224024 0.312952 -0.800288
H36   H     H_    0.011200 0.267950 0.306270 0.248130
H37   H     H_    0.109286 0.229607 0.285771 0.250239
H38   H     H_    0.092308 0.241802 0.345312 0.228970
N2    N     N_2   0.971400 0.859513 0.685142 -0.307136
H39   H     H_    0.011618 0.866465 0.658531 0.237580
C78   C     C_3   0.937422 0.775976 0.687048 -0.800289
H40   H     H_    0.988799 0.732049 0.693730 0.248130
H41   H     H_    0.907691 0.758198 0.654689 0.228971
H42   H     H_    0.890714 0.770393 0.714229 0.250239

loop_
_geom_bond_atom_site_label_1
_geom_bond_atom_site_label_2
_ccdc_geom_bond_type
C16   C28   A    
C66   C68   A    
O13   Zn3   S    
C5    C37   A    
O4    Zn1   S    
O9    Zn3   S    
C17   C29   A    
O6    Zn2   S    
C69   H3    S    
C8    H22   S    
C19   C31   A    
C71   H17   S    
C75   H29   S    
C47   C49   T    
C31   C67   A    
N2    C78   S    
O14   Zn4   S    
C6    H8    S    
C70   H4    S    
C62   O12   A    
C20   C32   A    
C72   H18   S    
C78   H42   S    
C75   H30   S    
C20   H28   S    
C58   C60   S    
C23   O3    A    
C67   H15   S    
C23   C43   S    
C66   C76   S    
C10   H10   S    
C69   C71   A    
C21   C25   S    
C1    O7    A    
O12   Zn3   S    
C53   C61   S    
C39   C55   S    
O11   Zn4   S    
C4    C40   A    
C65   C67   A    
C61   O13   A    
C77   H38   S    
C59   O9    A    
C6    C38   A    
O3    Zn2   S    
C60   O16   A    
C24   O6    A    
C12   C36   A    
C31   C41   S    
C1    C50   S    
C34   C70   A    
C12   H24   S    
C36   C52   S    
C33   C69   A    
C32   C68   A    
C48   C50   T    
N2    H39   S    
C35   C71   A    
C59   O15   A    
C74   H6    S    
C9    C33   A    
C41   C43   T    
C13   C25   A    
C42   C44   T    
O5    Zn1   S    
C52   C54   T    
C64   H2    S    
C22   C34   S    
C78   H41   S    
C14   H12   S    
C3    H19   S    
C5    C7    A    
C16   H26   S    
C75   H31   S    
C6    C8    A    
C54   C62   S    
C40   C56   S    
C21   C29   S    
C45   C63   A    
C18   H14   S    
C46   C64   A    
C51   C53   T    
O16   Zn3   S    
O15   Zn4   S    
C76   H33   S    
C62   O14   A    
C60   O10   A    
C2    C49   S    
C5    H7    S    
C15   C27   A    
C2    O2    A    
C23   O5    A    
C73   H5    S    
C21   C37   S    
C10   C34   A    
C14   C26   A    
C9    C11   A    
C30   C66   A    
C10   C12   A    
C9    H9    S    
C46   N2    S    
C4    H20   S    
C28   C64   A    
C45   N1    S    
C55   C57   T    
C61   O11   A    
C18   C30   A    
C24   C44   S    
C14   C16   A    
C24   O4    A    
N1    H35   S    
C25   C45   A    
C38   C74   A    
C27   C47   S    
C68   H16   S    
C1    O1    A    
C2    O8    A    
C32   C42   S    
C22   C30   S    
C17   H13   S    
C4    C74   A    
O1    Zn1   S    
C15   H25   S    
N1    C77   S    
O8    Zn1   S    
C78   H40   S    
C29   C65   A    
C76   H32   S    
C7    H21   S    
O10   Zn4   S    
C37   C73   A    
C11   H23   S    
C13   C15   A    
C76   H34   S    
C35   C51   S    
C19   H27   S    
C77   H36   S    
C63   H1    S    
C11   C35   A    
C17   C19   A    
C28   C48   S    
C56   C58   T    
C18   C20   A    
C65   C75   S    
C3    C73   A    
C57   C59   S    
C26   C46   A    
C3    C39   A    
C21   C33   S    
C22   C26   S    
C13   H11   S    
C77   H37   S    
C7    C39   A    
C27   C63   A    
C70   C72   A    
C8    C40   A    
C36   C72   A    
O7    Zn2   S    
O2    Zn2   S    
C22   C38   S    
