data_mof_unit_14692.cif
_audit_creation_date              2012-10-26T20:03:21-0400
_audit_creation_method            fapswitch 2.2
_symmetry_space_group_name_H-M    P1
_symmetry_Int_Tables_number       1
_space_group_crystal_system       triclinic
_cell_length_a                    10.603038
_cell_length_b                    12.329507
_cell_length_c                    13.118784
_cell_angle_alpha                 116.223881
_cell_angle_beta                  77.719264
_cell_angle_gamma                 100.818388
_cell_volume                      1494.6813402

loop_
_atom_site_label
_atom_site_type_symbol
_atom_type_description
_atom_site_fract_x
_atom_site_fract_y
_atom_site_fract_z
_atom_type_partial_charge
C1    C     C_R   0.510936 0.855013 0.286282 0.527260
C2    C     C_R   0.524768 0.563407 0.012381 0.046929
C3    C     C_R   0.475854 0.647053 0.124350 0.011881
C4    C     C_R   0.740279 0.999159 0.499911 0.552331
C5    C     C_R   0.482955 0.437604 0.980790 0.035723
C6    C     C_R   0.417418 0.396746 0.065230 0.021937
C7    C     C_R   0.366299 0.479845 0.172121 -0.132568
C8    C     C_R   0.385341 0.602491 0.196791 -0.111526
C9    C     C_R   0.493224 0.352231 0.866829 -0.119543
C10   C     C_R   0.427754 0.187047 0.926807 0.079248
C11   C     C_R   0.521911 0.772470 0.162754 -0.007501
C12   C     C_3   0.022186 0.033351 0.606124 -0.127679
C13   C     C_R   0.695652 0.340662 0.319086 -0.135599
C14   C     C_R   0.321073 0.759417 0.642342 0.049185
C15   C     C_R   0.271262 0.658932 0.665398 -0.132585
C16   C     C_R   0.482873 0.144780 0.714217 0.564152
C17   C     C_R   0.327991 0.549852 0.604615 0.050900
C18   C     C_R   0.446485 0.545923 0.527440 -0.025705
C19   C     C_R   0.489923 0.650966 0.503595 0.159268
C20   C     C_R   0.522381 0.443297 0.470533 0.004533
C21   C     C_R   0.625100 0.441594 0.380805 0.034898
C22   C     C_R   0.659696 0.541854 0.354996 -0.165334
C23   C     C_3   0.931953 0.920020 0.540857 -0.111449
C24   C     C_R   0.596784 0.645466 0.417722 -0.090191
C25   C     C_R   0.506037 0.344093 0.501182 0.097359
C26   C     C_R   0.667311 0.242435 0.348112 0.055417
C27   C     C_R   0.259788 0.999859 0.498782 0.551107
C28   C     C_3   0.977567 0.963488 0.390777 -0.140689
C29   C     C_3   0.035148 0.886146 0.432015 -0.125710
C30   C     C_3   0.123038 0.999552 0.497346 0.041032
C31   C     C_3   0.067847 0.076692 0.455829 -0.093225
C32   C     C_3   0.964934 0.110836 0.564814 -0.105348
C33   C     C_2   0.246612 0.441043 0.610742 0.540419
C34   C     C_3   0.876946 0.997619 0.499623 0.037997
C35   C     C_R   0.396028 0.272563 0.039042 -0.104234
C36   C     C_R   0.468788 0.226965 0.837651 0.006154
C37   C     C_R   0.597948 0.815517 0.084390 -0.136540
C38   C     C_R   0.645181 0.734828 0.974943 -0.092928
C39   C     C_R   0.617903 0.609572 0.940784 0.080863
Cu1   Cu    Cu3+1 0.529830 0.098270 0.475420 0.971778
Cu2   Cu    Cu3+1 0.470170 0.901730 0.524580 0.941776
H1    H     H_    0.067243 0.794397 0.377515 0.117650
H2    H     H_    0.271352 0.840514 0.685439 0.160290
H3    H     H_    0.955839 0.934759 0.302769 0.118719
H4    H     H_    0.181999 0.663953 0.724980 0.159444
H5    H     H_    0.634586 0.719193 0.394678 0.184107
H6    H     H_    0.125649 0.138133 0.417876 0.189014
H7    H     H_    0.933012 0.202672 0.619203 0.153304
H8    H     H_    0.043806 0.062141 0.694178 0.121099
H9    H     H_    0.873453 0.855820 0.575571 0.139001
H10   H     H_    0.305622 0.449575 0.234365 0.124968
H11   H     H_    0.353568 0.241960 0.105913 0.142886
H12   H     H_    0.512402 0.384060 0.800084 0.169698
H13   H     H_    0.132328 0.363686 0.710017 0.339462
H14   H     H_    0.631489 0.911279 0.110862 0.140730
H15   H     H_    0.713556 0.770290 0.920042 0.154223
H16   H     H_    0.329589 0.661418 0.274452 0.150675
H17   H     H_    0.719824 0.163344 0.299675 0.122401
H18   H     H_    0.739526 0.541903 0.287793 0.117917
H19   H     H_    0.772551 0.337990 0.249037 0.103853
H20   H     H_    0.441652 0.343826 0.576394 0.153824
I1    I     I_    0.752696 0.508987 0.797053 -0.414461
I2    I     I_    0.405580 0.004060 0.906768 -0.401623
N1    N     N_R   0.575030 0.246270 0.438190 -0.236418
N2    N     N_R   0.425760 0.754330 0.561190 -0.237574
O1    O     O_R   0.537510 0.972500 0.318130 -0.505410
O2    O     O_R   0.186231 0.443230 0.717228 -0.688335
O3    O     O_R   0.487140 0.806530 0.359650 -0.534279
O4    O     O_R   0.708330 0.082950 0.479220 -0.494175
O5    O     O_R   0.657960 0.916980 0.520740 -0.519023
O6    O     O_R   0.512860 0.193470 0.640350 -0.510306
O7    O     O_R   0.462490 0.027500 0.681870 -0.466291
O8    O     O_R   0.342040 0.083020 0.479260 -0.484834
O9    O     O_R   0.291670 0.917050 0.520780 -0.519926
O10   O     O_2   0.227889 0.351172 0.522314 -0.554406

loop_
_geom_bond_atom_site_label_1
_geom_bond_atom_site_label_2
_ccdc_geom_bond_type
Cu1   O6    S    
C29   H1    S    
C10   I2    S    
C16   O7    A    
C4    O5    A    
C12   H8    S    
C7    C8    A    
C13   H19   S    
C6    C35   A    
C12   C23   S    
C37   C38   A    
C23   C29   S    
C28   C29   S    
C5    C6    A    
C20   C25   A    
C1    O3    A    
Cu1   O8    S    
C18   C19   A    
C11   C37   A    
C26   N1    A    
Cu2   O9    S    
C2    C39   A    
C33   O10   D    
C1    C11   S    
C9    C36   A    
C10   C35   A    
C27   O9    A    
C28   C34   S    
C31   H6    S    
C21   C22   A    
C12   C32   S    
C27   C30   S    
C32   H7    S    
C16   O6    A    
C17   C33   S    
C4    O4    A    
C17   C18   A    
Cu2   O3    S    
C38   C39   A    
C4    C34   S    
Cu1   O4    S    
C3    C8    A    
C22   H18   S    
C23   H9    S    
Cu2   N2    S    
H13   O2    S    
C28   H3    S    
C25   N1    A    
C32   C34   S    
C5    C9    A    
C29   C30   S    
C8    H16   S    
C31   C32   S    
C23   C34   S    
C1    O1    A    
C13   C21   A    
C25   H20   S    
C26   H17   S    
Cu2   O7    S    
Cu1   Cu2   S    
C22   C24   A    
C13   C26   A    
C2    C5    A    
C9    H12   S    
C15   H4    S    
C33   O2    S    
C15   C17   A    
C39   I1    S    
C12   C30   S    
C19   C24   A    
C28   C31   S    
C10   C36   A    
C6    C7    A    
Cu1   N1    S    
C24   H5    S    
C2    C3    A    
C7    H10   S    
C16   C36   S    
C30   C31   S    
C14   N2    A    
C19   N2    A    
C18   C20   A    
C3    C11   A    
C37   H14   S    
C38   H15   S    
C20   C21   A    
C35   H11   S    
C14   C15   A    
C14   H2    S    
Cu1   O1    S    
C27   O8    A    
Cu2   O5    S    
