data_mof_unit_35468.cif
_audit_creation_date              2012-12-10T17:29:14-0500
_audit_creation_method            fapswitch 2.2
_symmetry_space_group_name_H-M    P1
_symmetry_Int_Tables_number       1
_space_group_crystal_system       triclinic
_cell_length_a                    12.07118
_cell_length_b                    12.938578
_cell_length_c                    13.100815
_cell_angle_alpha                 85.869926
_cell_angle_beta                  114.519748
_cell_angle_gamma                 93.098659
_cell_volume                      1856.11942314

loop_
_atom_site_label
_atom_site_type_symbol
_atom_type_description
_atom_site_fract_x
_atom_site_fract_y
_atom_site_fract_z
_atom_type_partial_charge
C1    C     C_R   0.477344 0.299170 0.498517 0.892911
C2    C     C_R   0.615668 0.492735 0.833364 -0.150007
C3    C     C_R   0.534428 0.809710 0.498513 -0.046573
C4    C     C_R   0.568331 0.496372 0.709798 0.880208
C5    C     C_R   0.459075 0.186910 0.493371 -0.145935
C6    C     C_R   0.332185 0.035291 0.414229 -0.060229
C7    C     C_R   0.347019 0.143765 0.417538 0.163961
C8    C     C_R   0.554803 0.122046 0.561935 -0.120507
C9    C     C_R   0.546885 0.017022 0.541675 0.105185
C10   C     C_R   0.437854 0.974920 0.459900 -0.051616
C11   C     C_R   0.438486 0.873371 0.427986 -0.099204
C12   C     C_R   0.557635 0.487044 0.990628 0.022663
C13   C     C_R   0.637971 0.849412 0.583407 -0.180648
C14   C     C_R   0.646109 0.952667 0.602699 -0.155801
C15   C     C_R   0.030511 0.630430 0.441485 -0.067107
C16   C     C_R   0.520532 0.699735 0.497083 0.958184
C17   C     C_R   0.146535 0.612892 0.444035 0.007426
C18   C     C_R   0.141710 0.439286 0.509355 -0.033990
C19   C     C_R   0.024600 0.451281 0.508449 0.054372
C20   C     C_R   0.966923 0.547823 0.473893 0.027112
C21   C     C_R   0.847187 0.556056 0.470732 -0.031185
C22   C     C_R   0.866445 0.393647 0.570183 0.091045
C23   C     C_R   0.539415 0.451097 0.885694 0.080105
C24   C     C_R   0.966598 0.370217 0.546623 0.025352
C25   C     C_R   0.431472 0.504636 0.290078 0.915536
C26   C     C_R   0.256360 0.408093 0.999111 -0.061807
C27   C     C_R   0.385025 0.496942 0.167862 -0.088450
C28   C     C_R   0.724757 0.548978 0.896708 -0.080568
C29   C     C_R   0.756120 0.562588 0.011170 0.009246
C30   C     C_R   0.671610 0.533589 0.056027 -0.184194
C31   C     C_2   0.171712 0.437206 0.140005 0.476322
C32   C     C_2   0.209174 0.983872 0.383458 0.405417
C33   C     C_3   0.249078 0.212321 0.333001 -0.756559
C34   C     C_R   0.461935 0.474042 0.027292 0.084115
C35   C     C_2   0.667340 0.162766 0.650453 0.467263
C36   C     C_2   0.858956 0.336583 0.669081 0.473698
C37   C     C_2   0.984824 0.737391 0.409426 0.455673
C38   C     C_3   0.014715 0.261198 0.567900 -0.936959
C39   C     C_2   0.137436 0.358771 0.927330 0.341475
C40   C     C_2   0.801947 0.599674 0.842847 0.373889
C41   C     C_2   0.875861 0.609477 0.084455 0.512147
C42   C     C_3   0.441958 0.300269 0.755333 -0.777571
C43   C     C_2   0.352320 0.841175 0.313622 0.360486
C44   C     C_R   0.354618 0.415755 0.965384 0.048719
C45   C     C_R   0.349315 0.365364 0.872411 -0.239791
C46   C     C_R   0.442707 0.377590 0.836053 0.175617
C47   C     C_R   0.469936 0.519756 0.123272 -0.227805
C48   C     C_R   0.271913 0.449051 0.101818 -0.060390
H1    H     H_    0.711758 0.799760 0.636859 0.202454
H2    H     H_    0.200041 0.900150 0.389236 0.035992
H3    H     H_    0.187382 0.169616 0.259113 0.250008
H4    H     H_    0.195005 0.245308 0.373167 0.259879
H5    H     H_    0.291084 0.275728 0.298273 0.179963
H6    H     H_    0.752724 0.153670 0.644154 0.016110
H7    H     H_    0.910013 0.267001 0.705256 0.050928
H8    H     H_    0.014691 0.787050 0.354807 0.098036
H9    H     H_    0.097920 0.255573 0.647693 0.234297
H10   H     H_    0.945573 0.202368 0.570840 0.238313
H11   H     H_    0.035970 0.240424 0.497311 0.274599
H12   H     H_    0.729369 0.979618 0.669100 0.152710
H13   H     H_    0.133351 0.286209 0.889341 0.058896
H14   H     H_    0.837712 0.555286 0.796885 0.180318
H15   H     H_    0.946249 0.625754 0.054067 0.146426
H16   H     H_    0.442142 0.220470 0.792837 0.243793
H17   H     H_    0.359026 0.307957 0.676328 0.228905
H18   H     H_    0.522552 0.309010 0.736642 0.272175
H19   H     H_    0.290271 0.896459 0.253980 0.078171
H20   H     H_    0.793102 0.623033 0.430946 0.197020
H21   H     H_    0.194517 0.675954 0.419567 0.140791
H22   H     H_    0.274572 0.312839 0.828515 0.133914
H23   H     H_    0.187368 0.366658 0.536425 0.135495
H24   H     H_    0.545881 0.569854 0.169900 0.161557
H25   H     H_    0.698518 0.545551 0.143767 0.179255
H26   H     H_    0.120080 0.364553 0.130899 0.071719
N1    N     N_R   0.798200 0.480260 0.519790 -0.127997
N2    N     N_R   0.201820 0.519740 0.480210 -0.096824
O1    O     O_R   0.579910 0.341070 0.505280 -0.607456
O2    O     O_2   0.117600 0.033433 0.359254 -0.550080
O3    O     O_2   0.666894 0.195694 0.735008 -0.551273
O4    O     O_2   0.808085 0.371209 0.721142 -0.500937
O5    O     O_2   0.919523 0.773378 0.447623 -0.566727
O6    O     O_2   0.042018 0.399900 0.909536 -0.552934
O7    O     O_2   0.825955 0.692501 0.849641 -0.591986
O8    O     O_2   0.898009 0.630030 0.180557 -0.608752
O9    O     O_2   0.353229 0.754961 0.281860 -0.551017
O10   O     O_R   0.388440 0.353740 0.492580 -0.636910
O11   O     O_R   0.643280 0.490550 0.663120 -0.565998
O12   O     O_R   0.451810 0.503220 0.650420 -0.607869
O13   O     O_R   0.611560 0.646260 0.507420 -0.630128
O14   O     O_R   0.420090 0.658930 0.494720 -0.610177
O15   O     O_R   0.548190 0.496780 0.349580 -0.631539
O16   O     O_R   0.356720 0.509450 0.336880 -0.543972
O17   O     O_2   0.141274 0.510287 0.175543 -0.534612
Zn1   Zn    Zn3+2 0.627850 0.491540 0.508480 0.998813
Zn2   Zn    Zn3+2 0.372150 0.508460 0.491520 0.995421

loop_
_geom_bond_atom_site_label_1
_geom_bond_atom_site_label_2
_ccdc_geom_bond_type
C27   C48   A    
C6    C32   S    
C16   O14   A    
C1    O1    A    
C19   C20   A    
C26   C44   A    
O14   Zn2   S    
C4    O11   A    
C45   C46   A    
C33   H4    S    
C17   H21   S    
C12   C23   A    
C1    C5    S    
C28   C29   A    
N2    Zn2   S    
C26   C39   S    
C28   C40   S    
O11   Zn1   S    
O1    Zn1   S    
C18   H23   S    
C40   H14   S    
C18   C19   A    
C42   C46   S    
O13   Zn1   S    
C15   C37   S    
C38   H10   S    
C37   H8    S    
C8    C9    A    
C17   N2    A    
C24   C38   S    
C11   C43   S    
C9    C10   A    
C3    C13   A    
C26   C48   A    
C12   C30   A    
O12   Zn2   S    
C16   O13   A    
C23   C46   A    
C13   C14   A    
C35   H6    S    
C7    C33   S    
C40   O7    D    
C37   O5    D    
C22   N1    A    
C33   H5    S    
C15   C20   A    
C39   H13   S    
C25   O15   A    
C43   O9    D    
C34   C44   A    
C36   O4    D    
C5    C7    A    
C30   H25   S    
C31   H26   S    
C31   O17   D    
C41   O8    D    
O16   Zn2   S    
C8    C35   S    
C2    C4    S    
C9    C14   A    
C29   C30   A    
C42   H17   S    
C38   H9    S    
C32   H2    S    
C13   H1    S    
C31   C48   S    
C21   H20   S    
C22   C24   A    
C33   H3    S    
C41   H15   S    
C12   C34   A    
C42   H16   S    
C14   H12   S    
C44   C45   A    
C27   C47   A    
C1    O10   A    
C15   C17   A    
C25   O16   A    
C18   N2    A    
C29   C41   S    
C45   H22   S    
C39   O6    D    
C6    C10   A    
C5    C8    A    
C6    C7    A    
C4    O12   A    
C25   C27   S    
C22   C36   S    
C21   N1    A    
C19   C24   A    
C36   H7    S    
O15   Zn1   S    
O10   Zn2   S    
C35   O3    D    
C47   H24   S    
C3    C11   A    
C10   C11   A    
C32   O2    D    
C38   H11   S    
C20   C21   A    
C43   H19   S    
C2    C23   A    
C42   H18   S    
C2    C28   A    
C34   C47   A    
C3    C16   S    
N1    Zn1   S    
