data_mof_unit_65134.cif
_audit_creation_date              2012-12-10T19:47:51-0500
_audit_creation_method            fapswitch 2.2
_symmetry_space_group_name_H-M    P1
_symmetry_Int_Tables_number       1
_space_group_crystal_system       tetragonal
_cell_length_a                    18.263633
_cell_length_b                    18.263633
_cell_length_c                    21.76546
_cell_angle_alpha                 90.0
_cell_angle_beta                  90.0
_cell_angle_gamma                 90.0
_cell_volume                      7260.09315739

loop_
_atom_site_label
_atom_site_type_symbol
_atom_type_description
_atom_site_fract_x
_atom_site_fract_y
_atom_site_fract_z
_atom_type_partial_charge
C1    C     C_R   1.000000 0.358729 1.000000 1.048526
C2    C     C_1   0.282214 1.000000 0.000000 -0.045101
C3    C     C_1   0.000000 0.717786 0.000000 -0.045101
C4    C     C_1   0.717786 0.000000 0.000000 -0.045102
C5    C     C_1   0.500000 0.782214 0.500000 -0.045102
C6    C     C_1   0.782214 0.500000 0.500000 -0.045101
C7    C     C_1   0.500000 0.217786 0.500000 -0.045101
C8    C     C_1   0.217786 0.500000 0.500000 -0.045102
C9    C     C_R   0.000000 0.500000 0.879822 1.032683
C10   C     C_R   0.500000 1.000000 0.879822 1.032684
C11   C     C_R   1.000000 0.500000 0.120178 1.032684
C12   C     C_R   0.358729 1.000000 1.000000 1.048529
C13   C     C_R   0.500000 0.000000 0.120178 1.032683
C14   C     C_R   0.500000 1.000000 0.379821 1.032683
C15   C     C_R   0.000000 0.500000 0.379821 1.032684
C16   C     C_R   0.500000 0.000000 0.620178 1.032684
C17   C     C_R   0.000000 0.500000 0.620178 1.032683
C18   C     C_R   0.080892 0.610534 0.811471 0.434990
C19   C     C_R   0.610534 0.919107 0.811470 0.434991
C20   C     C_R   0.919106 0.389467 0.811470 0.434991
C21   C     C_R   0.389466 0.080893 0.811470 0.434991
C22   C     C_R   0.080893 0.389466 0.188530 0.434991
C23   C     C_R   0.000000 0.641271 0.000000 1.048529
C24   C     C_R   0.610533 0.080894 0.188530 0.434991
C25   C     C_R   0.919107 0.610534 0.188530 0.434991
C26   C     C_R   0.389466 0.919107 0.188529 0.434990
C27   C     C_R   0.580892 0.110534 0.311470 0.434990
C28   C     C_R   0.110534 0.419107 0.311470 0.434991
C29   C     C_R   0.419106 0.889467 0.311470 0.434991
C30   C     C_R   0.889466 0.580893 0.311470 0.434991
C31   C     C_R   0.580893 0.889466 0.688530 0.434991
C32   C     C_R   0.110533 0.580894 0.688530 0.434991
C33   C     C_R   0.419107 0.110534 0.688530 0.434991
C34   C     C_R   0.641271 0.000000 0.000000 1.048526
C35   C     C_R   0.889466 0.419107 0.688529 0.434990
C36   C     C_R   0.133864 0.650882 0.780227 0.469263
C37   C     C_R   0.650880 0.866134 0.780227 0.469263
C38   C     C_R   0.866132 0.349121 0.780227 0.469264
C39   C     C_R   0.349120 0.133866 0.780227 0.469263
C40   C     C_R   0.133866 0.349120 0.219773 0.469263
C41   C     C_R   0.650879 0.133868 0.219773 0.469264
C42   C     C_R   0.866134 0.650880 0.219773 0.469263
C43   C     C_R   0.349118 0.866136 0.219773 0.469263
C44   C     C_R   0.633864 0.150882 0.280227 0.469263
C45   C     C_R   0.500000 0.858729 0.500000 1.048526
C46   C     C_R   0.150880 0.366134 0.280227 0.469263
C47   C     C_R   0.366132 0.849121 0.280227 0.469264
C48   C     C_R   0.849120 0.633866 0.280227 0.469263
C49   C     C_R   0.633866 0.849120 0.719773 0.469263
C50   C     C_R   0.150879 0.633868 0.719773 0.469264
C51   C     C_R   0.366134 0.150880 0.719773 0.469263
C52   C     C_R   0.849118 0.366136 0.719773 0.469263
C53   C     C_R   0.140878 0.000000 0.000000 0.908483
C54   C     C_R   1.000000 0.859122 0.000000 0.908484
C55   C     C_R   0.859122 0.000000 0.000000 0.908484
C56   C     C_R   0.858729 0.500000 0.500000 1.048529
C57   C     C_R   0.000000 0.140878 0.000000 0.908483
C58   C     C_R   0.640878 0.500000 0.500000 0.908483
C59   C     C_R   0.500000 0.359122 0.500000 0.908484
C60   C     C_R   0.359122 0.500000 0.500000 0.908484
C61   C     C_R   0.500000 0.640878 0.500000 0.908483
C62   C     C_R   0.051740 0.543721 0.718105 -0.216497
C63   C     C_R   0.543721 0.948259 0.718105 -0.216497
C64   C     C_R   0.948259 0.456280 0.718105 -0.216496
C65   C     C_R   0.456280 0.051741 0.718105 -0.216497
C66   C     C_R   0.051741 0.456279 0.281895 -0.216497
C67   C     C_R   0.500000 0.141271 0.500000 1.048529
C68   C     C_R   0.543720 0.051741 0.281895 -0.216496
C69   C     C_R   0.948259 0.543720 0.281895 -0.216497
C70   C     C_R   0.456279 0.948260 0.281894 -0.216497
C71   C     C_R   0.551740 0.043721 0.218105 -0.216497
C72   C     C_R   0.043721 0.448259 0.218105 -0.216497
C73   C     C_R   0.448259 0.956280 0.218105 -0.216496
C74   C     C_R   0.956279 0.551741 0.218105 -0.216497
C75   C     C_R   0.551741 0.956279 0.781895 -0.216497
C76   C     C_R   0.043720 0.551741 0.781895 -0.216496
C77   C     C_R   0.448259 0.043720 0.781895 -0.216497
C78   C     C_R   0.141271 0.500000 0.500000 1.048526
C79   C     C_R   0.956279 0.448260 0.781894 -0.216497
C80   C     C_R   1.000000 0.500000 0.686279 0.032557
C81   C     C_R   0.500000 0.000000 0.686279 0.032557
C82   C     C_R   1.000000 0.500000 0.313721 0.032558
C83   C     C_R   0.500000 1.000000 0.313721 0.032557
C84   C     C_R   0.500000 0.000000 0.186279 0.032557
C85   C     C_R   0.000000 0.500000 0.186279 0.032557
C86   C     C_R   0.500000 1.000000 0.813721 0.032558
C87   C     C_R   1.000000 0.500000 0.813721 0.032557
C88   C     C_1   1.000000 0.217402 0.000000 -0.101482
C89   C     C_1   1.000000 0.282214 0.000000 -0.045102
C90   C     C_1   0.217402 1.000000 0.000000 -0.101481
C91   C     C_1   0.000000 0.782598 0.000000 -0.101481
C92   C     C_1   0.782598 0.000000 0.000000 -0.101482
C93   C     C_1   0.500000 0.717402 0.500000 -0.101482
C94   C     C_1   0.717402 0.500000 0.500000 -0.101481
C95   C     C_1   0.500000 0.282598 0.500000 -0.101481
C96   C     C_1   0.282598 0.500000 0.500000 -0.101482
F1    F     F_    0.829959 0.294273 0.809312 -0.547117
F2    F     F_    0.794269 0.670037 0.309311 -0.547117
F3    F     F_    0.670035 0.205733 0.309311 -0.547117
F4    F     F_    0.205731 0.329963 0.309311 -0.547117
F5    F     F_    0.329963 0.205731 0.690689 -0.547117
F6    F     F_    0.794267 0.329965 0.690689 -0.547117
F7    F     F_    0.670037 0.794269 0.690689 -0.547117
F8    F     F_    0.205727 0.670041 0.690688 -0.547117
F9    F     F_    0.063865 0.632390 0.869234 -0.632842
F10   F     F_    0.632390 0.936134 0.869233 -0.632842
F11   F     F_    0.936132 0.367610 0.869233 -0.632841
F12   F     F_    0.294269 0.170037 0.809311 -0.547117
F13   F     F_    0.367609 0.063866 0.869233 -0.632842
F14   F     F_    0.063866 0.367609 0.130767 -0.632842
F15   F     F_    0.632390 0.063868 0.130767 -0.632841
F16   F     F_    0.936134 0.632390 0.130767 -0.632842
F17   F     F_    0.367609 0.936135 0.130766 -0.632842
F18   F     F_    0.563865 0.132390 0.369234 -0.632842
F19   F     F_    0.132390 0.436134 0.369233 -0.632842
F20   F     F_    0.436132 0.867610 0.369233 -0.632841
F21   F     F_    0.867609 0.563866 0.369233 -0.632842
F22   F     F_    0.563866 0.867609 0.630767 -0.632842
F23   F     F_    0.170035 0.705733 0.809311 -0.547117
F24   F     F_    0.132390 0.563868 0.630767 -0.632841
F25   F     F_    0.436134 0.132390 0.630767 -0.632842
F26   F     F_    0.867609 0.436135 0.630766 -0.632842
F27   F     F_    0.705731 0.829963 0.809311 -0.547117
F28   F     F_    0.829963 0.705731 0.190689 -0.547117
F29   F     F_    0.294267 0.829965 0.190689 -0.547117
F30   F     F_    0.170037 0.294269 0.190689 -0.547117
F31   F     F_    0.705727 0.170041 0.190688 -0.547117
F32   F     F_    0.329959 0.794273 0.309312 -0.547117
O1    O     O_R   0.939380 0.392670 0.000020 -0.590990
O2    O     O_R   0.892670 0.560620 0.500020 -0.590992
O3    O     O_R   0.560620 0.107330 0.500020 -0.590992
O4    O     O_R   0.107330 0.439380 0.500020 -0.590992
O5    O     O_R   0.439380 0.107330 0.499980 -0.590991
O6    O     O_R   0.892670 0.439380 0.499980 -0.590991
O7    O     O_R   0.560620 0.892670 0.499980 -0.590992
O8    O     O_R   0.107330 0.560620 0.499980 -0.590990
O9    O     O_R   0.939380 0.500000 0.908420 -0.598750
O10   O     O_R   0.500000 0.060620 0.908420 -0.598752
O11   O     O_R   0.060620 0.500000 0.908420 -0.598753
O12   O     O_R   0.392670 0.060620 0.000020 -0.590992
O13   O     O_R   0.500000 0.939380 0.908420 -0.598752
O14   O     O_R   0.939380 0.500000 0.091580 -0.598751
O15   O     O_R   0.500000 0.939380 0.091580 -0.598752
O16   O     O_R   0.060620 0.500000 0.091580 -0.598752
O17   O     O_R   0.500000 0.060620 0.091580 -0.598750
O18   O     O_R   0.439380 0.000000 0.408420 -0.598750
O19   O     O_R   0.000000 0.560620 0.408420 -0.598752
O20   O     O_R   0.560620 0.000000 0.408420 -0.598753
O21   O     O_R   0.000000 0.439380 0.408420 -0.598752
O22   O     O_R   0.439380 0.000000 0.591580 -0.598751
O23   O     O_R   0.060620 0.607330 0.000020 -0.590992
O24   O     O_R   0.000000 0.439380 0.591580 -0.598752
O25   O     O_R   0.560620 0.000000 0.591580 -0.598752
O26   O     O_R   0.000000 0.560620 0.591580 -0.598750
O27   O     O_R   0.107300 0.999970 0.948290 -0.599351
O28   O     O_R   0.999970 0.892700 0.948290 -0.599351
O29   O     O_R   0.892700 0.000030 0.948290 -0.599351
O30   O     O_R   0.000030 0.107300 0.948290 -0.599352
O31   O     O_R   0.107300 0.000030 0.051710 -0.599351
O32   O     O_R   0.999970 0.107300 0.051710 -0.599352
O33   O     O_R   0.892700 0.999970 0.051710 -0.599352
O34   O     O_R   0.607330 0.939380 0.000020 -0.590992
O35   O     O_R   0.000030 0.892700 0.051710 -0.599351
O36   O     O_R   0.607300 0.499970 0.448290 -0.599351
O37   O     O_R   0.499970 0.392700 0.448290 -0.599351
O38   O     O_R   0.392700 0.500030 0.448290 -0.599351
O39   O     O_R   0.500030 0.607300 0.448290 -0.599352
O40   O     O_R   0.607300 0.500030 0.551710 -0.599351
O41   O     O_R   0.499970 0.607300 0.551710 -0.599352
O42   O     O_R   0.392700 0.499970 0.551710 -0.599352
O43   O     O_R   0.500030 0.392700 0.551710 -0.599351
O44   O     O_R   0.939380 0.607330 0.999980 -0.590991
O45   O     O_R   0.392670 0.939380 0.999980 -0.590991
O46   O     O_R   0.060620 0.392670 0.999980 -0.590992
O47   O     O_R   0.607330 0.060620 0.999980 -0.590990
O48   O     O_R   0.439380 0.892670 0.500020 -0.590990
Zn1   Zn    Zn3+2 0.919060 0.500000 0.000000 1.134297
Zn2   Zn    Zn3+2 0.000000 0.000000 0.069040 1.105254
Zn3   Zn    Zn3+2 0.500000 0.500000 0.430960 1.105254
Zn4   Zn    Zn3+2 0.500000 0.500000 0.569040 1.105254
Zn5   Zn    Zn3+2 0.500000 0.080940 0.000000 1.134296
Zn6   Zn    Zn3+2 0.080940 0.500000 0.000000 1.134293
Zn7   Zn    Zn3+2 0.500000 0.919060 0.000000 1.134294
Zn8   Zn    Zn3+2 0.419060 0.000000 0.500000 1.134297
Zn9   Zn    Zn3+2 0.000000 0.580940 0.500000 1.134296
Zn10  Zn    Zn3+2 0.580940 0.000000 0.500000 1.134293
Zn11  Zn    Zn3+2 0.000000 0.419060 0.500000 1.134294
Zn12  Zn    Zn3+2 0.000000 0.000000 0.930960 1.105254

loop_
_geom_bond_atom_site_label_1
_geom_bond_atom_site_label_2
_ccdc_geom_bond_type
O44   Zn1   S    
O39   Zn3   S    
C57   O30   A    
C50   F8    S    
C14   O20   A    
O8    Zn9   S    
C41   F31   S    
C61   O41   A    
C39   C51   A    
C8    C96   T    
O29   Zn12  S    
C13   O17   A    
C58   O36   A    
C43   F29   S    
C79   C87   A    
C72   C85   A    
O2    Zn9   S    
C42   F28   S    
C47   F32   S    
O19   Zn9   S    
C40   C46   A    
C13   C84   S    
C52   F6    S    
C63   C81   A    
C35   C52   A    
C30   C48   A    
C67   O5    A    
C32   F24   S    
C71   C84   A    
C1    O1    A    
O27   Zn12  S    
O24   Zn11  S    
C54   O28   A    
C44   F3    S    
C61   C93   S    
O14   Zn1   S    
C38   C52   A    
O25   Zn10  S    
O20   Zn10  S    
O17   Zn5   S    
C26   C73   A    
C20   C38   A    
C3    C91   T    
C25   C74   A    
C2    C90   T    
O10   Zn5   S    
C78   O4    A    
C46   F4    S    
C34   O47   A    
C75   C86   A    
C25   F16   S    
C37   F27   S    
C9    O9    A    
C27   C44   A    
C66   C72   A    
C23   O44   A    
O46   Zn6   S    
C6    C94   T    
C18   C76   A    
C12   O12   A    
C35   C64   A    
C27   C68   A    
C54   O35   A    
C58   O40   A    
C11   O16   A    
C73   C84   A    
O1    Zn1   S    
C59   O37   A    
O47   Zn5   S    
C20   F11   S    
C5    C93   T    
C2    C12   S    
C8    C78   S    
C24   C41   A    
C64   C80   A    
C62   C76   A    
C24   F15   S    
C59   C95   S    
C14   C83   S    
C31   C49   A    
C38   F1    S    
C59   O43   A    
C17   O26   A    
O4    Zn11  S    
C22   C72   A    
C78   O8    A    
C26   C43   A    
C15   C82   S    
O16   Zn6   S    
O28   Zn12  S    
C39   F12   S    
O26   Zn9   S    
C4    C34   S    
C1    O46   A    
C53   O31   A    
C45   O7    A    
C33   C65   A    
C31   C63   A    
C65   C77   A    
C55   O33   A    
C45   O48   A    
O41   Zn4   S    
O22   Zn8   S    
C22   F14   S    
C3    C23   S    
O40   Zn4   S    
C5    C45   S    
C17   C80   S    
C60   O38   A    
O42   Zn4   S    
O13   Zn7   S    
C10   O13   A    
O15   Zn7   S    
C33   F25   S    
C28   C66   A    
C19   F10   S    
C31   F22   S    
C55   C92   S    
C28   F19   S    
C66   C82   A    
C37   C49   A    
O5    Zn8   S    
C65   C81   A    
C21   C39   A    
C55   O29   A    
C22   C40   A    
C70   C73   A    
C69   C74   A    
C42   C48   A    
C70   C83   A    
O36   Zn3   S    
C76   C87   A    
O32   Zn2   S    
O11   Zn6   S    
C60   C96   S    
C57   O32   A    
C29   C47   A    
C77   C86   A    
C53   O27   A    
O37   Zn3   S    
C64   C79   A    
O43   Zn4   S    
C17   O24   A    
C33   C51   A    
O31   Zn2   S    
C15   O21   A    
C30   C69   A    
C36   C50   A    
O23   Zn6   S    
C29   C70   A    
C62   C80   A    
O48   Zn8   S    
C23   O23   A    
C10   C86   S    
C1    C89   S    
O7    Zn10  S    
C20   C79   A    
C68   C83   A    
O6    Zn11  S    
C29   F20   S    
C35   F26   S    
C67   O3    A    
C6    C56   S    
C43   C47   A    
C34   O34   A    
O30   Zn12  S    
C25   C42   A    
C49   F7    S    
C56   O6    A    
O21   Zn11  S    
C30   F21   S    
C36   F23   S    
C7    C95   T    
C19   C37   A    
C14   O18   A    
O35   Zn2   S    
O12   Zn5   S    
C57   C88   S    
O18   Zn8   S    
C28   C46   A    
C60   O42   A    
C19   C75   A    
C53   C90   S    
C18   F9    S    
C32   C62   A    
O34   Zn7   S    
C9    C87   S    
C15   O19   A    
C9    O11   A    
C69   C82   A    
C63   C75   A    
C11   C85   S    
C68   C71   A    
C16   C81   S    
C41   C44   A    
C32   C50   A    
C48   F2    S    
C13   O15   A    
C74   C85   A    
C58   C94   S    
C11   O14   A    
C26   F17   S    
C7    C67   S    
C27   F18   S    
O3    Zn10  S    
C54   C91   S    
O9    Zn1   S    
C88   C89   T    
O45   Zn7   S    
C21   C77   A    
C16   O25   A    
C40   F30   S    
C12   O45   A    
C16   O22   A    
O38   Zn3   S    
C10   O10   A    
C61   O39   A    
O33   Zn2   S    
C18   C36   A    
C56   O2    A    
C51   F5    S    
C24   C71   A    
C21   F13   S    
C4    C92   T    
