data_mof_unit_36464.cif
_audit_creation_date              2012-12-10T17:51:23-0500
_audit_creation_method            fapswitch 2.2
_symmetry_space_group_name_H-M    P1
_symmetry_Int_Tables_number       1
_space_group_crystal_system       triclinic
_cell_length_a                    14.594472
_cell_length_b                    14.64753
_cell_length_c                    17.315144
_cell_angle_alpha                 106.948945
_cell_angle_beta                  74.147849
_cell_angle_gamma                 115.774723
_cell_volume                      3142.08603425

loop_
_atom_site_label
_atom_site_type_symbol
_atom_type_description
_atom_site_fract_x
_atom_site_fract_y
_atom_site_fract_z
_atom_type_partial_charge
C1    C     C_R   0.119856 0.689437 0.512061 0.800906
C2    C     C_R   0.880251 0.311093 0.490577 0.814881
C3    C     C_R   0.188396 0.801115 0.522689 -0.240227
C4    C     C_R   0.811835 0.204470 0.503479 -0.160751
C5    C     C_R   0.215402 0.983525 0.549163 0.280565
C6    C     C_R   0.781563 0.042582 0.539188 0.203230
C7    C     C_R   0.153702 0.878395 0.525228 0.304918
C8    C     C_R   0.850601 0.136951 0.514018 0.338161
C9    C     C_R   0.289229 0.830873 0.534586 -0.189218
C10   C     C_R   0.705347 0.176713 0.516703 -0.297373
C11   C     C_R   0.354006 0.935528 0.556883 0.004886
C12   C     C_R   0.635160 0.087278 0.546603 -0.023100
C13   C     C_R   0.317252 0.013451 0.563462 -0.106823
C14   C     C_R   0.672174 0.015132 0.553121 -0.016409
C15   C     C_R   0.457173 0.964049 0.567415 -0.023302
C16   C     C_R   0.527658 0.066461 0.565671 -0.143309
C17   C     C_R   0.487737 0.145216 0.586643 0.313719
C18   C     C_R   0.491325 0.895942 0.584027 0.305407
C19   C     C_R   0.383061 0.118861 0.584419 0.402081
C20   C     C_R   0.598635 0.919732 0.574600 0.299751
C21   C     C_R   0.293967 0.326626 0.357721 0.124643
C22   C     C_R   0.696897 0.657919 0.652989 0.144970
C23   C     C_R   0.984761 0.493978 0.651428 0.853241
C24   C     C_R   0.009516 0.496200 0.347298 0.843332
C25   C     C_R   0.213451 0.362787 0.377708 0.366592
C26   C     C_R   0.791489 0.648463 0.612074 0.366792
C27   C     C_R   0.283357 0.482561 0.492983 -0.011687
C28   C     C_R   0.704615 0.495835 0.522564 0.037049
C29   C     C_R   0.359825 0.441695 0.482499 -0.087920
C30   C     C_R   0.608608 0.508435 0.553078 -0.070953
C31   C     C_R   0.364381 0.361425 0.413137 -0.034288
C32   C     C_R   0.604220 0.587560 0.622771 -0.028017
C33   C     C_R   0.434781 0.481710 0.536082 -0.039433
C34   C     C_R   0.519118 0.448912 0.514046 -0.047390
C35   C     C_R   0.509624 0.356356 0.455637 0.334215
C36   C     C_R   0.425579 0.548548 0.613251 0.317728
C37   C     C_R   0.438133 0.317442 0.401506 0.188156
C38   C     C_R   0.508145 0.597153 0.658000 0.199728
C39   C     C_R   0.973260 0.476766 0.734507 -0.229716
C40   C     C_R   0.007194 0.482889 0.260229 -0.259155
C41   C     C_R   0.018580 0.413272 0.743937 0.121753
C42   C     C_R   0.911354 0.431887 0.232516 0.112550
C43   C     C_R   0.038993 0.423033 0.821645 0.363982
C44   C     C_R   0.908784 0.403436 0.147704 0.339987
C45   C     C_R   0.004657 0.487582 0.889645 -0.084986
C46   C     C_R   0.001589 0.431538 0.091969 -0.186774
C47   C     C_R   0.940559 0.532856 0.882944 0.299216
C48   C     C_R   0.097924 0.484067 0.119519 0.381806
C49   C     C_R   0.923832 0.526855 0.804598 0.118618
C50   C     C_R   0.100425 0.511453 0.203821 0.190480
C51   C     C_2   0.025811 0.499803 0.971787 0.465290
C52   C     C_2   0.993942 0.416251 0.005258 0.450448
Cu1   Cu    Cu3+1 0.916740 0.524770 0.521640 0.976422
Cu2   Cu    Cu3+1 0.083260 0.475230 0.478360 0.970296
H1    H     H_    0.714598 0.437615 0.470518 0.220583
H2    H     H_    0.281653 0.550537 0.537604 0.222830
H3    H     H_    0.677099 0.226525 0.503366 0.248241
H4    H     H_    0.317722 0.770601 0.523084 0.224718
N1    N     N_R   0.208390 0.438070 0.445820 -0.224010
N2    N     N_R   0.791610 0.561930 0.554180 -0.223445
O1    O     O_R   0.020090 0.662480 0.528530 -0.529398
O2    O     O_R   0.979910 0.337520 0.471470 -0.512438
O3    O     O_R   0.160710 0.620650 0.491980 -0.592954
O4    O     O_R   0.839290 0.379350 0.508020 -0.590212
O5    O     O_R   0.921540 0.523360 0.633990 -0.547173
O6    O     O_R   0.078460 0.476640 0.366010 -0.560628
O7    O     O_R   0.062170 0.481520 0.597440 -0.562095
O8    O     O_R   0.937830 0.518480 0.402560 -0.556593
N3    N     N_2   0.029559 0.330692 0.678450 -0.448149
H5    H     H_    0.979870 0.301687 0.636972 0.283170
C53   C     C_3   0.131247 0.328828 0.645027 -0.518043
H6    H     H_    0.152916 0.338029 0.580501 0.244716
H7    H     H_    0.129591 0.252742 0.646050 0.222221
H8    H     H_    0.190309 0.390394 0.680692 0.277678
N4    N     N_2   0.818151 0.411689 0.290583 -0.411733
H9    H     H_    0.769950 0.334780 0.285727 0.230171
C54   C     C_3   0.767502 0.481753 0.302042 -0.631033
H10   H     H_    0.695802 0.460778 0.347799 0.210002
H11   H     H_    0.746330 0.477670 0.243877 0.235290
H12   H     H_    0.819154 0.562412 0.324625 0.244665
O9    O     O_3   0.545785 0.246983 0.617718 -0.726219
H13   H     H_    0.597164 0.248052 0.645771 0.333993
O10   O     O_3   0.419063 0.813532 0.619207 -0.764316
H14   H     H_    0.450729 0.799933 0.656207 0.325645
N5    N     N_2   0.440376 0.233321 0.335236 -0.403092
H15   H     H_    0.419650 0.163557 0.351142 0.227585
C55   C     C_3   0.527931 0.256767 0.269810 -0.655714
H16   H     H_    0.512200 0.192773 0.215539 0.229487
H17   H     H_    0.597428 0.264250 0.289227 0.215176
H18   H     H_    0.541890 0.329319 0.251947 0.241703
N6    N     N_2   0.492642 0.651255 0.740268 -0.400039
H19   H     H_    0.475769 0.714912 0.747347 0.249207
C56   C     C_3   0.429990 0.586341 0.799723 -0.631442
H20   H     H_    0.434363 0.634402 0.862448 0.228111
H21   H     H_    0.458888 0.525411 0.793832 0.231930
H22   H     H_    0.347944 0.549136 0.791507 0.255650
N7    N     N_2   0.885096 0.737575 0.616154 -0.375602
H23   H     H_    0.885295 0.797827 0.596832 0.256408
C57   C     C_3   0.934884 0.770031 0.686595 -0.608366
H24   H     H_    0.914423 0.832665 0.731460 0.187427
H25   H     H_    0.019766 0.801868 0.667116 0.237387
H26   H     H_    0.914547 0.704326 0.715180 0.250791
N8    N     N_2   0.143615 0.329087 0.322099 -0.377113
H27   H     H_    0.177976 0.346833 0.265090 0.219747
C58   C     C_3   0.062248 0.226798 0.319046 -0.570597
H28   H     H_    0.069185 0.178978 0.256663 0.177197
H29   H     H_    0.986359 0.232899 0.331093 0.227022
H30   H     H_    0.063794 0.186967 0.363866 0.247718
N9    N     N_2   0.309948 0.264655 0.278454 -0.386956
H31   H     H_    0.317016 0.295701 0.229778 0.236663
C59   C     C_3   0.251759 0.153683 0.267763 -0.612846
H32   H     H_    0.305439 0.112934 0.242676 0.243467
H33   H     H_    0.200396 0.127563 0.222247 0.201610
H34   H     H_    0.205470 0.130337 0.326356 0.213561
N10   N     N_2   0.696918 0.744746 0.717493 -0.386209
H35   H     H_    0.750308 0.815192 0.704908 0.258183
C60   C     C_3   0.693321 0.732406 0.798530 -0.637360
H36   H     H_    0.676121 0.795820 0.845118 0.230645
H37   H     H_    0.767606 0.734801 0.804972 0.202854
H38   H     H_    0.632667 0.657602 0.811453 0.246885
O11   O     O_3   0.565715 0.301329 0.456782 -0.756751
H39   H     H_    0.535197 0.228513 0.428830 0.323138
O12   O     O_3   0.331179 0.554966 0.649136 -0.770941
H40   H     H_    0.341135 0.622634 0.686627 0.335054
N11   N     N_2   0.196294 0.576932 0.231729 -0.377763
H41   H     H_    0.193778 0.625703 0.288202 0.234840
C61   C     C_3   0.277138 0.537241 0.210263 -0.555700
H42   H     H_    0.348412 0.592221 0.179641 0.237646
H43   H     H_    0.255609 0.460332 0.168311 0.217476
H44   H     H_    0.293743 0.529998 0.266610 0.187310
N12   N     N_2   0.857190 0.569423 0.795797 -0.432316
H45   H     H_    0.860047 0.638141 0.835434 0.239147
C62   C     C_3   0.753285 0.495063 0.787690 -0.625040
H46   H     H_    0.710688 0.530995 0.770551 0.223414
H47   H     H_    0.711913 0.469364 0.846523 0.213447
H48   H     H_    0.754520 0.426600 0.738769 0.243417
O13   O     O_3   0.941382 0.318586 0.962780 -0.700097
H49   H     H_    0.928918 0.267397 0.995288 0.338220
O14   O     O_3   0.069542 0.597851 0.017768 -0.711032
H50   H     H_    0.092025 0.648885 0.982470 0.340183
O15   O     O_3   0.894952 0.580663 0.954429 -0.705186
H51   H     H_    0.831872 0.582522 0.945401 0.333933
O16   O     O_3   0.190784 0.513254 0.066215 -0.687599
H52   H     H_    0.181012 0.472299 0.010327 0.326416
O17   O     O_3   0.817218 0.353180 0.116761 -0.705371
H53   H     H_    0.759267 0.322746 0.159047 0.325380
O18   O     O_3   0.091785 0.370869 0.833520 -0.726492
H54   H     H_    0.075973 0.303583 0.794702 0.361385
O19   O     O_3   0.343137 0.194621 0.604441 -0.702424
H55   H     H_    0.398915 0.264405 0.610259 0.376401
O20   O     O_3   0.631366 0.848845 0.583964 -0.765060
H56   H     H_    0.580399 0.778039 0.567514 0.324497
O21   O     O_3   0.956528 0.166786 0.502275 -0.760566
H57   H     H_    0.974363 0.108061 0.499853 0.345498
O22   O     O_3   0.061935 0.854873 0.501248 -0.745794
H58   H     H_    0.049400 0.792417 0.456937 0.332985
N13   N     N_2   0.174690 0.058750 0.556255 -0.351611
H59   H     H_    0.098454 0.038945 0.584364 0.272446
C63   C     C_3   0.194183 0.093620 0.481213 -0.619290
H60   H     H_    0.277955 0.122531 0.456423 0.229695
H61   H     H_    0.167984 0.157984 0.493630 0.221306
H62   H     H_    0.151763 0.029361 0.435004 0.222744
N14   N     N_2   0.825400 0.982199 0.556282 -0.425963
H63   H     H_    0.804357 0.905761 0.527011 0.299032
C64   C     C_3   0.842295 0.007084 0.639775 -0.631761
H64   H     H_    0.767377 0.983273 0.682038 0.255756
H65   H     H_    0.885901 0.091596 0.658509 0.237837
H66   H     H_    0.888783 0.966572 0.644509 0.206634

loop_
_geom_bond_atom_site_label_1
_geom_bond_atom_site_label_2
_ccdc_geom_bond_type
C15   C18   A    
C55   H16   S    
C42   C44   A    
C57   H24   S    
C64   H64   S    
C46   C52   S    
C27   C29   A    
C59   H32   S    
C4    C8    A    
N7    H23   S    
O19   H55   S    
O12   H40   S    
C39   C41   A    
Cu1   Cu2   S    
C58   H29   S    
C42   N4    S    
C56   H20   S    
C22   C32   A    
O10   H14   S    
C37   N5    S    
N14   C64   S    
C9    H4    S    
C3    C7    A    
C60   H37   S    
N5    H15   S    
Cu1   O4    S    
C40   C50   A    
N6    C56   S    
Cu2   O3    S    
C45   C51   S    
O16   H52   S    
C29   C33   A    
C33   C36   A    
C18   C20   A    
C34   C35   A    
C45   C47   A    
C23   O7    A    
N3    C53   S    
Cu1   O8    S    
O18   H54   S    
C17   C19   A    
C11   C15   A    
C28   H1    S    
N13   H59   S    
C12   C16   A    
C44   C46   A    
C16   C17   A    
N10   C60   S    
C62   H48   S    
O20   H56   S    
C63   H61   S    
C32   C38   A    
Cu1   O5    S    
C5    C13   A    
C24   O6    A    
C48   C50   A    
C56   H21   S    
C62   H47   S    
C41   C43   A    
Cu1   O1    S    
C1    O3    A    
N7    C57   S    
Cu1   N2    S    
C2    O4    A    
O17   H53   S    
Cu2   N1    S    
N5    C55   S    
C58   H30   S    
C46   C48   A    
C63   H62   S    
C15   C16   A    
C13   C19   A    
C51   C52   D    
C14   C20   A    
C35   O11   S    
C36   O12   S    
C33   C34   A    
C47   C49   A    
C60   H38   S    
N6    H19   S    
C5    C7    A    
C30   C34   A    
C27   H2    S    
C25   N8    S    
C6    C8    A    
Cu2   O7    S    
Cu2   O2    S    
C54   H10   S    
C38   N6    S    
O9    H13   S    
C31   C37   A    
C48   O16   S    
C1    C3    S    
N13   C63   S    
C52   O13   S    
C2    C4    S    
N4    H9    S    
C61   H43   S    
C3    C9    A    
C6    C14   A    
C49   N12   S    
C63   H60   S    
C10   H3    S    
C18   O10   S    
O11   H39   S    
C54   H11   S    
C59   H33   S    
C50   N11   S    
C8    O21   S    
C9    C11   A    
C21   C31   A    
C28   N2    A    
C10   C12   A    
C22   N10   S    
C57   H25   S    
C12   C14   A    
C56   H22   S    
C5    N13   S    
C55   H17   S    
N11   H41   S    
N8    C58   S    
C55   H18   S    
C4    C10   A    
C61   H42   S    
N8    H27   S    
C53   H7    S    
O13   H49   S    
C54   H12   S    
C21   C25   A    
C24   C40   S    
C35   C37   A    
N12   C62   S    
C1    O1    A    
C53   H8    S    
C21   N9    S    
O14   H50   S    
C39   C49   A    
Cu2   O6    S    
C64   H66   S    
C58   H28   S    
C47   O15   S    
C20   O20   S    
C23   O5    A    
N9    C59   S    
C61   H44   S    
C53   H6    S    
C29   C31   A    
C27   N1    A    
O15   H51   S    
C36   C38   A    
C30   C32   A    
C11   C13   A    
N10   H35   S    
C62   H46   S    
C23   C39   S    
C40   C42   A    
C19   O19   S    
C28   C30   A    
C59   H34   S    
C17   O9    S    
N3    H5    S    
N14   H63   S    
C43   O18   S    
C24   O8    A    
C26   N7    S    
C44   O17   S    
C2    O2    A    
C57   H26   S    
C7    O22   S    
C6    N14   S    
C64   H65   S    
C22   C26   A    
N4    C54   S    
N9    H31   S    
O22   H58   S    
N11   C61   S    
C25   N1    A    
O21   H57   S    
C60   H36   S    
C41   N3    S    
C26   N2    A    
C43   C45   A    
N12   H45   S    
C51   O14   S    
