data_mof_unit_21870.cif
_audit_creation_date              2012-10-26T20:06:10-0400
_audit_creation_method            fapswitch 2.2
_symmetry_space_group_name_H-M    P1
_symmetry_Int_Tables_number       1
_space_group_crystal_system       triclinic
_cell_length_a                    9.527282
_cell_length_b                    10.827471
_cell_length_c                    13.554528
_cell_angle_alpha                 90.799564
_cell_angle_beta                  73.406238
_cell_angle_gamma                 90.524846
_cell_volume                      1339.85449562

loop_
_atom_site_label
_atom_site_type_symbol
_atom_type_description
_atom_site_fract_x
_atom_site_fract_y
_atom_site_fract_z
_atom_type_partial_charge
C1    C     C_R   0.501777 0.737877 0.497628 0.569128
C2    C     C_R   0.383900 0.472629 0.812553 -0.004084
C3    C     C_R   0.637039 0.938885 0.456188 -0.014887
C4    C     C_R   0.423806 0.490567 0.699477 0.568740
C5    C     C_R   0.633769 0.066928 0.458655 -0.128042
C6    C     C_R   0.500650 0.128833 0.496532 0.009867
C7    C     C_R   0.369429 0.062962 0.531308 -0.129022
C8    C     C_R   0.371534 0.935235 0.530666 -0.122609
C9    C     C_R   0.504683 0.872118 0.494368 0.017995
C10   C     C_R   0.903376 0.581371 0.561056 0.336464
C11   C     C_R   0.051509 0.580260 0.561196 0.051980
C12   C     C_R   0.438457 0.491667 0.979614 0.042450
C13   C     C_R   0.098422 0.419776 0.438348 0.036902
C14   C     C_R   0.949558 0.419638 0.438509 0.011676
C15   C     C_R   0.499818 0.262313 0.499191 0.538838
C16   C     C_R   0.577345 0.503341 0.301180 0.545437
C17   C     C_R   0.787108 0.592082 0.033132 0.219732
C18   C     C_R   0.619552 0.518285 0.190408 -0.044711
C19   C     C_R   0.236273 0.452671 0.864885 -0.139844
C20   C     C_R   0.188382 0.456345 0.971494 -0.046909
C21   C     C_R   0.284513 0.485675 0.028836 0.245127
C22   C     C_1   0.776674 0.879944 0.410888 0.252333
C23   C     C_R   0.488415 0.481456 0.870267 0.001868
C24   C     C_R   0.545589 0.511224 0.033462 0.014978
C25   C     C_R   0.689633 0.549113 0.979312 0.053627
C26   C     C_R   0.737613 0.529755 0.873812 -0.077251
C27   C     C_R   0.641817 0.482679 0.823084 -0.086982
C28   C     C_R   0.518856 0.484884 0.137505 -0.095257
C29   C     C_R   0.751178 0.576632 0.139114 -0.089660
Cl1   Cl    Cl    0.790051 0.691758 0.640722 -0.571746
Cl2   Cl    Cl    0.948933 0.673168 0.971378 -0.581592
Cl3   Cl    Cl    0.198490 0.535918 0.156314 -0.606349
Cu1   Cu    Cu3+1 0.359340 0.499980 0.500000 0.983827
Cu2   Cu    Cu3+1 0.640660 0.500020 0.500000 1.033070
H1    H     H_    0.825564 0.609783 0.181073 0.199933
H2    H     H_    0.155552 0.439630 0.823236 0.146302
H3    H     H_    0.072492 0.446001 0.009610 0.177088
H4    H     H_    0.693983 0.445032 0.748015 0.165367
H5    H     H_    0.735075 0.118471 0.429482 0.126846
H6    H     H_    0.265750 0.110116 0.560728 0.140167
H7    H     H_    0.268902 0.885869 0.560027 0.153370
H8    H     H_    0.089534 0.644393 0.610036 0.152116
H9    H     H_    0.173794 0.355552 0.388858 0.135931
H10   H     H_    0.912847 0.355333 0.389189 0.125632
H11   H     H_    0.852229 0.539592 0.831563 0.168529
H12   H     H_    0.423590 0.431934 0.177360 0.183640
N1    N     N_R   0.147940 0.499970 0.499970 -0.259240
N2    N     N_R   0.852060 0.500060 0.499990 -0.227053
N3    N     N_1   0.888486 0.832920 0.374542 -0.221692
O1    O     O_R   0.381250 0.680340 0.500010 -0.507943
O2    O     O_R   0.618820 0.680370 0.500010 -0.434304
O3    O     O_R   0.323240 0.499950 0.650980 -0.510729
O4    O     O_R   0.560810 0.499980 0.650980 -0.477771
O5    O     O_R   0.381180 0.319630 0.499990 -0.520097
O6    O     O_R   0.618750 0.319660 0.499990 -0.524998
O7    O     O_R   0.439190 0.500020 0.349020 -0.481507
O8    O     O_R   0.676760 0.500050 0.349020 -0.504681

loop_
_geom_bond_atom_site_label_1
_geom_bond_atom_site_label_2
_ccdc_geom_bond_type
Cu2   O8    S    
C2    C4    S    
C7    H6    S    
C16   O7    A    
C24   C25   A    
C6    C7    A    
C3    C9    A    
C23   C27   A    
C4    O4    A    
C17   C29   A    
C1    O1    A    
C12   C24   A    
C11   N1    A    
C19   C20   A    
C16   O8    A    
C17   C25   A    
Cu1   O7    S    
Cu1   Cu2   S    
C6    C15   S    
Cu2   O6    S    
C7    C8    A    
C18   C29   A    
C13   C14   A    
C8    H7    S    
Cu1   O3    S    
C20   H3    S    
C1    O2    A    
C12   C23   A    
C28   H12   S    
C26   C27   A    
Cu1   O5    S    
C4    O3    A    
C22   N3    T    
Cu1   N1    S    
C14   H10   S    
C19   H2    S    
C5    H5    S    
C10   N2    A    
C5    C6    A    
C17   Cl2   S    
C21   Cl3   S    
C10   Cl1   S    
Cu2   N2    S    
C10   C11   A    
C27   H4    S    
C15   O5    A    
C13   H9    S    
C18   C28   A    
C20   C21   A    
Cu2   O4    S    
C16   C18   S    
C2    C23   A    
C13   N1    A    
C29   H1    S    
C3    C22   S    
C14   N2    A    
C11   H8    S    
Cu1   O1    S    
C26   H11   S    
C25   C26   A    
C2    C19   A    
C12   C21   A    
Cu2   O2    S    
C1    C9    S    
C24   C28   A    
C8    C9    A    
C3    C5    A    
C15   O6    A    
