data_mof_unit_67365.cif
_audit_creation_date              2012-12-11T19:24:55-0500
_audit_creation_method            fapswitch 2.2
_symmetry_space_group_name_H-M    P1
_symmetry_Int_Tables_number       1
_space_group_crystal_system       triclinic
_cell_length_a                    20.060063
_cell_length_b                    23.032942
_cell_length_c                    8.464107
_cell_angle_alpha                 89.924708
_cell_angle_beta                  104.074667
_cell_angle_gamma                 89.913674
_cell_volume                      3793.36228809

loop_
_atom_site_label
_atom_site_type_symbol
_atom_type_description
_atom_site_fract_x
_atom_site_fract_y
_atom_site_fract_z
_atom_type_partial_charge
Ba1   Ba    Ba6+2 0.999900 0.457470 0.844900 1.775464
Ba2   Ba    Ba6+2 0.999900 0.542530 0.344900 1.775701
Ba3   Ba    Ba6+2 0.499900 0.957470 0.844900 1.784106
Ba4   Ba    Ba6+2 0.499900 0.042530 0.344900 1.774344
C1    C     C_3   0.066261 0.199848 0.710181 0.240799
C2    C     C_3   0.067698 0.798841 0.207060 0.228301
C3    C     C_3   0.565329 0.700097 0.707901 0.241906
C4    C     C_3   0.561790 0.299838 0.201724 0.221756
C5    C     C_R   0.189821 0.732510 0.891624 -0.039560
C6    C     C_R   0.187151 0.265775 0.393938 -0.020566
C7    C     C_R   0.687943 0.233896 0.893906 -0.030699
C8    C     C_R   0.685227 0.764580 0.395739 -0.035795
C9    C     C_R   0.786033 0.322251 0.031469 -0.086701
C10   C     C_R   0.783607 0.676304 0.534465 -0.084217
C11   C     C_R   0.287195 0.821418 0.029322 -0.089567
C12   C     C_R   0.284471 0.176733 0.532684 -0.088499
C13   C     C_R   0.745220 0.326742 0.871725 -0.029292
C14   C     C_R   0.743488 0.672174 0.373909 -0.065176
C15   C     C_R   0.246783 0.825493 0.869037 -0.040205
C16   C     C_R   0.244650 0.172994 0.371783 -0.047141
C17   C     C_R   0.200613 0.781492 0.800708 -0.077379
C18   C     C_R   0.198298 0.216979 0.303204 -0.015586
C19   C     C_R   0.698677 0.283015 0.803465 -0.027638
C20   C     C_R   0.696639 0.715808 0.305284 -0.017791
C21   C     C_R   0.838930 0.363657 0.098270 0.035099
C22   C     C_R   0.835377 0.634064 0.602794 0.032409
C23   C     C_R   0.338659 0.863784 0.097806 0.022208
C24   C     C_R   0.336109 0.134367 0.601289 0.035774
C25   C     C_R   0.880348 0.353498 0.254991 0.119147
C26   C     C_R   0.873557 0.641502 0.763605 0.200162
C27   C     C_R   0.378707 0.854845 0.256069 0.123155
C28   C     C_R   0.374051 0.141525 0.762220 0.197325
C29   C     C_R   0.163785 0.636575 0.086652 0.022947
C30   C     C_R   0.163703 0.363646 0.585317 0.014667
C31   C     C_R   0.663999 0.136496 0.086549 0.009012
C32   C     C_R   0.662516 0.862996 0.586088 0.003298
C33   C     C_R   0.215407 0.679816 0.154478 -0.051649
C34   C     C_R   0.213843 0.319385 0.655129 -0.072748
C35   C     C_R   0.713977 0.180705 0.156299 -0.091529
C36   C     C_R   0.714160 0.819871 0.653579 -0.072479
C37   C     C_R   0.227497 0.727894 0.056332 0.022021
C38   C     C_R   0.224465 0.270247 0.558987 0.000732
C39   C     C_R   0.725043 0.229486 0.059270 0.009561
C40   C     C_R   0.723561 0.769856 0.559666 0.052758
C41   C     C_R   0.254302 0.678548 0.317781 0.406268
C42   C     C_R   0.254621 0.322061 0.816594 0.443450
C43   C     C_R   0.753470 0.178862 0.319137 0.405518
C44   C     C_R   0.759155 0.825420 0.808835 0.445496
C45   C     C_3   0.004187 0.229473 0.175987 0.730415
C46   C     C_3   0.973206 0.751273 0.546804 0.689426
C47   C     C_3   0.502790 0.728959 0.174028 0.746672
C48   C     C_3   0.478465 0.260932 0.583215 0.688747
C49   C     C_R   0.799702 0.222980 0.384269 -0.087017
C50   C     C_R   0.803584 0.780570 0.878557 -0.099070
C51   C     C_R   0.300664 0.722573 0.382563 -0.075804
C52   C     C_R   0.298403 0.276281 0.884369 -0.077344
C53   C     C_R   0.812875 0.269163 0.290786 -0.084991
C54   C     C_R   0.811879 0.730718 0.791788 -0.075505
C55   C     C_R   0.313813 0.768701 0.289094 -0.076586
C56   C     C_R   0.309891 0.228856 0.792951 -0.065667
C57   C     C_R   0.774684 0.273651 0.126952 0.054251
C58   C     C_R   0.772862 0.725411 0.628785 0.127154
C59   C     C_R   0.276505 0.772518 0.124401 0.054447
C60   C     C_R   0.273050 0.225272 0.627979 0.063229
C61   C     C_R   0.865861 0.309141 0.356192 -0.049502
C62   C     C_R   0.861461 0.688098 0.861146 0.010746
C63   C     C_R   0.365316 0.809724 0.356062 -0.059283
C64   C     C_R   0.360392 0.186881 0.861164 0.003812
C65   C     C_R   0.127952 0.643378 0.922259 0.092058
C66   C     C_R   0.129291 0.357560 0.419389 0.073363
C67   C     C_R   0.629235 0.142743 0.920951 0.076859
C68   C     C_R   0.624926 0.854879 0.423533 0.069772
C69   C     C_3   0.932619 0.203498 0.099173 0.593611
C70   C     C_3   0.935771 0.809838 0.517786 0.671203
C71   C     C_3   0.432247 0.701415 0.097385 0.573568
C72   C     C_3   0.459533 0.322795 0.628150 0.640287
C73   C     C_3   0.213813 0.467906 0.275772 0.268396
C74   C     C_3   0.208632 0.532767 0.779245 0.325825
C75   C     C_3   0.707847 0.965161 0.256380 0.251849
C76   C     C_3   0.711677 0.032300 0.779841 0.291570
C77   C     C_3   0.286183 0.441326 0.302959 0.225391
C78   C     C_3   0.278060 0.563923 0.806342 0.220729
C79   C     C_3   0.777957 0.935007 0.278930 0.261009
C80   C     C_3   0.782488 0.061623 0.806539 0.228555
C81   C     C_3   0.800067 0.533531 0.903742 0.367394
C82   C     C_3   0.807128 0.464656 0.404945 0.385071
C83   C     C_3   0.300017 0.033559 0.903238 0.352795
C84   C     C_3   0.303344 0.964899 0.406373 0.346140
C85   C     C_3   0.736582 0.570850 0.860146 0.217230
C86   C     C_3   0.745319 0.427172 0.341431 0.204011
C87   C     C_3   0.236482 0.070881 0.860344 0.210242
C88   C     C_3   0.241287 0.925760 0.364890 0.203230
C89   C     C_3   0.006318 0.229007 0.586649 0.244333
C90   C     C_3   0.009350 0.768699 0.081729 0.205491
C91   C     C_3   0.505386 0.729268 0.584667 0.243441
C92   C     C_3   0.506640 0.264389 0.085490 0.240419
C93   C     C_R   0.140934 0.689094 0.824079 0.078391
C94   C     C_R   0.139458 0.309902 0.324450 0.038283
C95   C     C_R   0.640872 0.189449 0.824080 0.041958
C96   C     C_R   0.636605 0.808172 0.326965 0.021133
H1    H     H_    0.027807 0.267109 0.534765 0.024883
H2    H     H_    0.031713 0.728063 0.045409 0.013036
H3    H     H_    0.526803 0.767343 0.532519 0.026066
H4    H     H_    0.532556 0.223725 0.062168 0.004015
H5    H     H_    0.317341 0.454777 0.424914 0.037789
H6    H     H_    0.310104 0.551297 0.927763 0.026002
H7    H     H_    0.806469 0.938235 0.409479 0.019421
H8    H     H_    0.815749 0.047687 0.925521 0.022470
H9    H     H_    0.822856 0.530215 0.797375 -0.035423
H10   H     H_    0.834548 0.470255 0.307109 -0.008812
H11   H     H_    0.322510 0.030139 0.796426 -0.027576
H12   H     H_    0.325781 0.968469 0.299550 -0.020172
H13   H     H_    0.835318 0.553998 0.010728 -0.050593
H14   H     H_    0.840059 0.443121 0.513901 -0.038968
H15   H     H_    0.335600 0.054116 0.009542 -0.050345
H16   H     H_    0.339868 0.945431 0.513346 -0.031453
H17   H     H_    0.749452 0.617232 0.847586 -0.070379
H18   H     H_    0.760283 0.381323 0.331251 -0.063818
H19   H     H_    0.249250 0.117261 0.847772 -0.060394
H20   H     H_    0.256237 0.879731 0.355312 -0.036199
H21   H     H_    0.712975 0.566724 0.964472 0.106043
H22   H     H_    0.714562 0.428792 0.433505 0.075283
H23   H     H_    0.213053 0.066709 0.964924 0.098483
H24   H     H_    0.216863 0.929049 0.468143 0.092758
H25   H     H_    0.984740 0.197700 0.489365 0.102120
H26   H     H_    0.992528 0.797794 0.974762 0.061731
H27   H     H_    0.483642 0.697999 0.487458 0.103404
H28   H     H_    0.488219 0.289513 0.972105 0.111378
H29   H     H_    0.079158 0.228465 0.816976 0.175052
H30   H     H_    0.076948 0.772608 0.318838 0.163295
H31   H     H_    0.578188 0.728637 0.815002 0.173740
H32   H     H_    0.583223 0.272939 0.310205 0.156482
H33   H     H_    0.749806 0.363397 0.795487 0.099161
H34   H     H_    0.748191 0.635461 0.298138 0.096261
H35   H     H_    0.250811 0.862367 0.793075 0.100171
H36   H     H_    0.249233 0.136362 0.295654 0.093786
H37   H     H_    0.172926 0.786887 0.675200 0.090330
H38   H     H_    0.170956 0.212015 0.177294 0.069487
H39   H     H_    0.671484 0.288340 0.677599 0.089134
H40   H     H_    0.668866 0.710455 0.179844 0.075664
H41   H     H_    0.828647 0.218029 0.508839 0.105045
H42   H     H_    0.833996 0.787533 0.000876 0.117592
H43   H     H_    0.328805 0.718109 0.507904 0.097556
H44   H     H_    0.326622 0.280373 0.009618 0.093515
H45   H     H_    0.994241 0.267708 0.247366 -0.122730
H46   H     H_    0.953658 0.723939 0.437923 0.051144
H47   H     H_    0.491477 0.767237 0.243534 -0.123302
H48   H     H_    0.443275 0.248812 0.465227 0.019897
H49   H     H_    0.897863 0.239733 0.045218 0.033380
H50   H     H_    0.945920 0.830536 0.407999 -0.051692
H51   H     H_    0.396702 0.736665 0.039771 0.032668
H52   H     H_    0.447895 0.350873 0.518645 -0.064788
H53   H     H_    0.194712 0.461951 0.386882 0.006401
H54   H     H_    0.189466 0.535372 0.891236 -0.007868
H55   H     H_    0.685412 0.954191 0.359742 -0.003344
H56   H     H_    0.693658 0.034475 0.893512 -0.017607
H57   H     H_    0.178618 0.447670 0.168177 0.098795
H58   H     H_    0.171278 0.553040 0.674809 0.090629
H59   H     H_    0.673163 0.951183 0.140140 0.104952
H60   H     H_    0.674464 0.054035 0.677980 0.096832
O1    O     O_2   0.860260 0.414960 0.826400 -0.477147
O2    O     O_2   0.860260 0.585040 0.326400 -0.475901
O3    O     O_2   0.360260 0.914960 0.826400 -0.475904
O4    O     O_2   0.360260 0.085040 0.326400 -0.473147
O5    O     O_3   0.220775 0.475106 0.746296 -0.660460
O6    O     O_3   0.222076 0.526777 0.250343 -0.664165
O7    O     O_3   0.721398 0.974713 0.741504 -0.658464
O8    O     O_3   0.720212 0.024568 0.257163 -0.660851
O9    O     O_3   0.036939 0.245112 0.052760 -0.632679
O10   O     O_3   0.044838 0.758944 0.571007 -0.712538
O11   O     O_3   0.535425 0.744915 0.050815 -0.633223
O12   O     O_3   0.547057 0.260157 0.564924 -0.666952
O13   O     O_3   0.081330 0.529680 0.090830 -0.468739
O14   O     O_3   0.081330 0.470320 0.590830 -0.483515
O15   O     O_3   0.581330 0.029680 0.090830 -0.475651
O16   O     O_3   0.581330 0.970320 0.590830 -0.474702
O17   O     O_3   0.918600 0.470180 0.098890 -0.451093
O18   O     O_3   0.918600 0.529820 0.598890 -0.438292
O19   O     O_3   0.418600 0.970180 0.098890 -0.437718
O20   O     O_3   0.418600 0.029820 0.598890 -0.439094
O21   O     O_3   0.975750 0.362410 0.628650 -0.477231
O22   O     O_3   0.975750 0.637590 0.128650 -0.484304
O23   O     O_3   0.475750 0.862410 0.628650 -0.484424
O24   O     O_3   0.475750 0.137590 0.128650 -0.481935
O25   O     O_2   0.861724 0.320559 0.682435 -0.478361
O26   O     O_2   0.863845 0.681663 0.190603 -0.505299
O27   O     O_2   0.361450 0.820834 0.682629 -0.478306
O28   O     O_2   0.362116 0.179020 0.192320 -0.490025
O29   O     O_3   0.780837 0.478913 0.946682 -0.605746
O30   O     O_3   0.783901 0.518065 0.447613 -0.642680
O31   O     O_3   0.280874 0.978994 0.947005 -0.635581
O32   O     O_3   0.282229 0.019385 0.446770 -0.641683
O33   O     O_3   0.953291 0.243951 0.662149 -0.584469
O34   O     O_3   0.952584 0.758154 0.148843 -0.652540
O35   O     O_3   0.452529 0.744142 0.660687 -0.588409
O36   O     O_3   0.449885 0.254974 0.152385 -0.629784
O37   O     O_2   0.139400 0.414340 0.863230 -0.411990
O38   O     O_2   0.139400 0.585660 0.363230 -0.411700
O39   O     O_2   0.639400 0.914340 0.863230 -0.415493
O40   O     O_2   0.639400 0.085660 0.363230 -0.404178
O41   O     O_3   0.023740 0.362300 0.060930 -0.386290
O42   O     O_3   0.023740 0.637700 0.560930 -0.381138
O43   O     O_3   0.523740 0.862300 0.060930 -0.384800
O44   O     O_3   0.523740 0.137700 0.560930 -0.364347
O45   O     O_2   0.130022 0.312868 0.982876 -0.482832
O46   O     O_2   0.130985 0.688025 0.483058 -0.483213
O47   O     O_2   0.630552 0.812266 0.986697 -0.470199
O48   O     O_2   0.632431 0.186622 0.484434 -0.490157
P1    P     P_3+3 0.853370 0.434890 0.996520 1.030361
P2    P     P_3+3 0.853370 0.565110 0.496520 1.015842
P3    P     P_3+3 0.353370 0.934890 0.996520 1.015052
P4    P     P_3+3 0.353370 0.065110 0.496520 1.017825
P5    P     P_3+3 0.146350 0.434230 0.693140 1.058460
P6    P     P_3+3 0.146350 0.565770 0.193140 1.057160
P7    P     P_3+3 0.646350 0.934230 0.693140 1.063877
P8    P     P_3+3 0.646350 0.065770 0.193140 1.054225
P9    P     P_3+3 0.085876 0.307843 0.108733 1.043259
P10   P     P_3+3 0.087115 0.691709 0.609644 1.013100
P11   P     P_3+3 0.584932 0.807142 0.109562 1.049383
P12   P     P_3+3 0.587491 0.191832 0.608260 1.043182
P13   P     P_3+3 0.912928 0.691699 0.078046 0.928540
P14   P     P_3+3 0.913344 0.308554 0.577519 0.977867
P15   P     P_3+3 0.410656 0.189413 0.079119 0.961217
P16   P     P_3+3 0.412864 0.808936 0.577225 0.970869
O49   O     O_3   0.282405 0.380654 0.295936 -0.777402
H61   H     H_    0.275464 0.367556 0.402289 0.274311
O50   O     O_3   0.266637 0.623975 0.801263 -0.797821
H62   H     H_    0.306212 0.642211 0.878163 0.320089
O51   O     O_3   0.768418 0.876764 0.231900 -0.708774
H63   H     H_    0.758380 0.856026 0.325736 0.292038
O52   O     O_3   0.774530 0.122073 0.805409 -0.769199
H64   H     H_    0.779354 0.134148 0.919852 0.284889
C97   C     C_3   0.321563 0.465873 0.173764 -0.113724
C98   C     C_3   0.392612 0.441505 0.180821 -0.182872
C99   C     C_3   0.426348 0.476515 0.066848 -0.466327
H65   H     H_    0.401827 0.465592 0.938495 0.154988
H66   H     H_    0.421826 0.523850 0.086265 0.123504
H67   H     H_    0.481870 0.467484 0.088956 0.132307
H68   H     H_    0.423670 0.444829 0.307474 0.113519
H69   H     H_    0.388924 0.395151 0.144350 0.158558
H70   H     H_    0.288047 0.460722 0.050277 0.154207
H71   H     H_    0.328354 0.513248 0.193443 0.086571
C100  C     C_3   0.315215 0.544029 0.674876 -0.138036
C101  C     C_3   0.379337 0.578620 0.669586 -0.205861
C102  C     C_3   0.403025 0.564479 0.515504 -0.428561
H72   H     H_    0.418533 0.518204 0.515985 0.117297
H73   H     H_    0.361295 0.573895 0.406302 0.190503
H74   H     H_    0.447132 0.591835 0.506472 0.139989
H75   H     H_    0.369619 0.625967 0.671803 0.194561
H76   H     H_    0.420342 0.566485 0.777803 0.120252
H77   H     H_    0.331501 0.498033 0.697496 0.089177
H78   H     H_    0.278302 0.544227 0.554613 0.169889
C103  C     C_3   0.820610 0.965781 0.175236 -0.092117
C104  C     C_3   0.891795 0.940012 0.193538 -0.200062
C105  C     C_3   0.931495 0.975545 0.093797 -0.483959
H79   H     H_    0.908172 0.969987 0.961777 0.136538
H80   H     H_    0.931399 0.022319 0.125632 0.136887
H81   H     H_    0.985626 0.961588 0.118711 0.142656
H82   H     H_    0.919391 0.940507 0.323628 0.103684
H83   H     H_    0.887473 0.894242 0.152608 0.159450
H84   H     H_    0.791678 0.965378 0.046733 0.143794
H85   H     H_    0.828169 0.011935 0.210768 0.080932
C106  C     C_3   0.818425 0.041592 0.673293 -0.105041
C107  C     C_3   0.882621 0.076164 0.668252 -0.188412
C108  C     C_3   0.904914 0.063652 0.511691 -0.443217
H86   H     H_    0.915456 0.016666 0.503061 0.118996
H87   H     H_    0.864315 0.077859 0.405137 0.191655
H88   H     H_    0.951774 0.088144 0.507875 0.137518
H89   H     H_    0.873340 0.123497 0.674391 0.211941
H90   H     H_    0.924122 0.063010 0.774448 0.112721
H91   H     H_    0.834394 0.995404 0.695111 0.072392
H92   H     H_    0.781194 0.042404 0.553379 0.169781
O53   O     O_3   0.691009 0.550411 0.718413 -0.724920
H93   H     H_    0.704009 0.569566 0.625229 0.303132
O54   O     O_3   0.708001 0.449624 0.191494 -0.727021
H94   H     H_    0.695320 0.416408 0.115650 0.316886
O55   O     O_3   0.190698 0.050494 0.718899 -0.726494
H95   H     H_    0.203322 0.069880 0.625568 0.305673
O56   O     O_3   0.195331 0.944530 0.221325 -0.726209
H96   H     H_    0.207638 0.923549 0.130105 0.308564
O57   O     O_3   0.125186 0.196723 0.649293 -0.755367
H97   H     H_    0.116644 0.168253 0.558971 0.338530
O58   O     O_3   0.128647 0.798233 0.154243 -0.757200
H98   H     H_    0.119312 0.818140 0.046874 0.298196
O59   O     O_3   0.624266 0.697072 0.647127 -0.760544
H99   H     H_    0.616077 0.668243 0.557721 0.337932
O60   O     O_3   0.616015 0.312638 0.128863 -0.769156
H100  H     H_    0.597821 0.338404 0.034124 0.327034
O61   O     O_3   0.906408 0.175878 0.219123 -0.816391
H101  H     H_    0.862158 0.158030 0.162286 0.293625
O62   O     O_3   0.864881 0.801522 0.493365 -0.747022
H102  H     H_    0.848812 0.782558 0.385501 0.290089
O63   O     O_3   0.406013 0.674201 0.217939 -0.813775
H103  H     H_    0.362332 0.655388 0.161187 0.291429
O64   O     O_3   0.401342 0.321542 0.692181 -0.747153
H104  H     H_    0.361304 0.316370 0.598138 0.264622
O65   O     O_3   0.249884 0.632887 0.416012 -0.717017
H105  H     H_    0.258145 0.647556 0.528464 0.340877
O66   O     O_3   0.255469 0.371201 0.906818 -0.707866
H106  H     H_    0.278559 0.362639 0.020927 0.331110
O67   O     O_3   0.750801 0.132031 0.415119 -0.716109
H107  H     H_    0.761095 0.145354 0.529130 0.341711
O68   O     O_3   0.765229 0.876811 0.889601 -0.675194
H108  H     H_    0.814755 0.886358 0.914238 0.283588
O69   O     O_3   0.936037 0.388179 0.308837 -0.737320
H109  H     H_    0.925534 0.413862 0.392694 0.282550
O70   O     O_3   0.928039 0.605135 0.819011 -0.714055
H110  H     H_    0.919074 0.582936 0.910944 0.282159
O71   O     O_3   0.432119 0.891676 0.311970 -0.722545
H111  H     H_    0.421133 0.914837 0.399948 0.283713
O72   O     O_3   0.428887 0.105494 0.817895 -0.715767
H112  H     H_    0.419718 0.082699 0.908668 0.279382
O73   O     O_3   0.079060 0.603850 0.852864 -0.709398
H113  H     H_    0.044543 0.607112 0.917326 0.344906
O74   O     O_3   0.087239 0.400961 0.342978 -0.722848
H114  H     H_    0.049617 0.401513 0.398066 0.350672
O75   O     O_3   0.583341 0.101352 0.848651 -0.713301
H115  H     H_    0.546176 0.104319 0.905520 0.348870
O76   O     O_3   0.576517 0.894672 0.353360 -0.704534
H116  H     H_    0.544658 0.894427 0.424657 0.348751
C109  C     C_3   0.047645 0.139161 0.762471 -0.186633
C110  C     C_3   0.088724 0.123082 0.933597 -0.191893
C111  C     C_3   0.080936 0.058997 0.972757 -0.428184
H117  H     H_    0.027077 0.049625 0.975100 0.112621
H118  H     H_    0.095387 0.030492 0.880850 0.198173
H119  H     H_    0.114317 0.048718 0.094749 0.162413
H120  H     H_    0.142879 0.135853 0.949548 0.130056
H121  H     H_    0.070322 0.148445 0.023132 0.167321
H122  H     H_    0.993019 0.138996 0.762237 0.153793
H123  H     H_    0.056311 0.105991 0.674394 0.125020
C112  C     C_3   0.050831 0.861729 0.245205 -0.183860
C113  C     C_3   0.085597 0.879069 0.421225 -0.202854
C114  C     C_3   0.081517 0.944306 0.451265 -0.403097
H124  H     H_    0.097995 0.970077 0.356798 0.190915
H125  H     H_    0.028484 0.957070 0.452493 0.118646
H126  H     H_    0.115155 0.955130 0.572320 0.172423
H127  H     H_    0.060816 0.857241 0.507301 0.163727
H128  H     H_    0.139478 0.863820 0.451873 0.136764
H129  H     H_    0.067404 0.891529 0.158809 0.149885
H130  H     H_    0.995138 0.866415 0.225983 0.089123
C115  C     C_3   0.546674 0.639359 0.759378 -0.184962
C116  C     C_3   0.588279 0.622981 0.929684 -0.188141
C117  C     C_3   0.580445 0.558826 0.967645 -0.427906
H131  H     H_    0.526349 0.549355 0.966945 0.109788
H132  H     H_    0.595695 0.530534 0.876405 0.200522
H133  H     H_    0.612988 0.548406 0.090463 0.164108
H134  H     H_    0.642377 0.635688 0.944527 0.130660
H135  H     H_    0.570431 0.648270 0.020341 0.165565
H136  H     H_    0.492155 0.639272 0.760044 0.158115
H137  H     H_    0.554712 0.606324 0.670217 0.121868
C118  C     C_3   0.531102 0.355253 0.255140 -0.178384
C119  C     C_3   0.586217 0.392445 0.364788 -0.190162
C120  C     C_3   0.559721 0.441789 0.453197 -0.426231
H138  H     H_    0.536410 0.476605 0.366796 0.133188
H139  H     H_    0.522225 0.426079 0.519530 0.144784
H140  H     H_    0.603579 0.461233 0.543382 0.180619
H141  H     H_    0.621475 0.364756 0.456207 0.137201
H142  H     H_    0.613552 0.412672 0.281916 0.181543
H143  H     H_    0.506620 0.379263 0.143582 0.097343
H144  H     H_    0.491253 0.343413 0.317920 0.113460
O77   O     O_3   0.046999 0.190806 0.283784 -0.806437
H145  H     H_    0.034809 0.150207 0.250556 0.288338
O78   O     O_3   0.957221 0.724421 0.680702 -0.742139
H146  H     H_    0.992584 0.736051 0.777814 0.269822
O79   O     O_3   0.546372 0.691353 0.283661 -0.807557
H147  H     H_    0.536516 0.650523 0.249509 0.288430
O80   O     O_3   0.467660 0.221969 0.701262 -0.745843
H148  H     H_    0.506669 0.226143 0.796734 0.257460
O81   O     O_3   0.935218 0.164735 0.973242 -0.737817
H149  H     H_    0.949053 0.126215 0.023088 0.289025
O82   O     O_3   0.959154 0.846049 0.652913 -0.737546
H150  H     H_    0.938224 0.884780 0.621791 0.294665
O83   O     O_3   0.436954 0.661827 0.975134 -0.768932
H151  H     H_    0.451304 0.623899 0.028106 0.288604
O84   O     O_3   0.514819 0.346866 0.743369 -0.753892
H152  H     H_    0.499961 0.386077 0.769655 0.301317

loop_
_geom_bond_atom_site_label_1
_geom_bond_atom_site_label_2
_ccdc_geom_bond_type
C105  H80   S    
C107  H89   S    
C51   C55   A    
C99   H66   S    
O62   H102  S    
Ba2   O42   S    
C17   H37   S    
C114  H124  S    
C20   H40   S    
C27   C63   A    
C82   H10   S    
C83   C87   S    
C116  H134  S    
C32   P7    S    
O27   P16   D    
Ba3   P7    S    
C109  H122  S    
C101  C102  S    
O54   H94   S    
C96   P11   S    
O23   P16   S    
C2    C90   S    
C5    C93   A    
Ba2   O17   S    
C31   P8    S    
C83   H15   S    
C29   C65   A    
C43   C49   A    
C31   C67   A    
C102  H72   S    
C85   O53   S    
C43   O67   S    
C66   O74   S    
C70   O82   S    
C61   P14   S    
C120  H139  S    
C21   C25   A    
C23   C27   A    
C111  H117  S    
C24   C28   A    
C51   H43   S    
C82   C86   S    
C89   H1    S    
Ba1   O21   S    
C116  C117  S    
O2    P2    D    
O67   H107  S    
C67   C95   A    
C27   O71   S    
O51   H63   S    
C74   C78   S    
C11   C23   A    
O50   H62   S    
C12   C16   A    
C119  C120  S    
C10   C22   A    
O33   P14   S    
O26   P13   D    
Ba2   P6    S    
O57   H97   S    
C92   H4    S    
C13   H33   S    
C77   C97   S    
C37   C59   A    
Ba4   O19   S    
C33   C41   A    
O38   P6    D    
C38   C60   A    
C69   O81   S    
C39   C57   A    
C35   C43   A    
C114  H126  S    
C103  H84   S    
C36   C44   A    
O22   P13   S    
C90   O34   S    
C5    C37   A    
C30   P5    S    
O84   H152  S    
C53   C57   A    
C55   C59   A    
C56   C60   A    
O14   P5    S    
O15   P8    S    
O30   P2    S    
C8    C40   A    
O79   H147  S    
C5    C17   A    
C46   O78   S    
C104  H82   S    
O4    P4    D    
C7    C19   A    
C70   O62   S    
C72   O84   S    
C75   H55   S    
Ba3   O16   S    
C95   P12   S    
C90   H2    S    
C109  C110  S    
C102  H74   S    
C93   P10   S    
C45   O77   S    
C48   O80   S    
C81   O29   S    
C100  C101  S    
O31   P3    S    
C45   O9    S    
Ba4   P8    S    
C119  H142  S    
C118  C119  S    
O7    P7    S    
C2    H30   S    
C112  H129  S    
C48   O12   S    
C68   C96   A    
Ba1   O13   S    
C13   C19   A    
O39   P7    D    
C15   C17   A    
C46   C70   S    
C103  C104  S    
C10   C58   A    
O18   P2    S    
C7    C95   A    
Ba1   O18   S    
O20   P4    S    
O32   P4    S    
C73   H53   S    
C74   H58   S    
C110  H121  S    
C71   H51   S    
C107  C108  S    
Ba4   O15   S    
C47   H47   S    
C97   C98   S    
O12   P12   S    
C106  H91   S    
C48   H48   S    
C87   H23   S    
O55   H95   S    
C3    C115  S    
C91   H3    S    
O49   H61   S    
Ba3   P3    S    
C77   H5    S    
C82   O30   S    
C100  H77   S    
C101  H75   S    
Ba1   P1    S    
C76   C80   S    
C65   O73   S    
C113  C114  S    
C72   O64   S    
C111  H118  S    
C52   H44   S    
Ba3   O20   S    
O63   H103  S    
C115  H137  S    
C71   O83   S    
O56   H96   S    
O61   H101  S    
O16   P7    S    
C22   P2    S    
C98   H69   S    
C16   H36   S    
C108  H87   S    
C25   C61   A    
O5    P5    S    
C85   H17   S    
C22   C26   A    
C117  H132  S    
C99   H67   S    
C87   H19   S    
Ba3   Ba4   S    
C118  H144  S    
C107  H90   S    
Ba1   O37   S    
C74   O5    S    
C48   C72   S    
C49   C53   A    
C113  H127  S    
C8    C20   A    
C9    C13   A    
O42   P10   S    
C81   H13   S    
C88   H20   S    
C47   O79   S    
C116  H135  S    
C67   O75   S    
O40   P8    D    
C78   C100  S    
C14   H34   S    
C78   H6    S    
C33   C37   A    
C34   C42   A    
O28   P15   D    
C97   H71   S    
C36   C40   A    
C41   C51   A    
C1    C109  S    
C42   C52   A    
O58   H98   S    
C69   O61   S    
Ba3   O23   S    
O11   P11   S    
C32   C68   A    
C65   C93   A    
C54   C58   A    
O24   P15   S    
O9    P9    S    
O48   P12   D    
C6    C38   A    
Ba3   O43   S    
C2    O58   S    
C117  H131  S    
C44   O68   S    
Ba1   O41   S    
C120  H138  S    
C99   H65   S    
C106  C107  S    
C6    C18   A    
C11   C15   A    
O44   P12   S    
C86   H18   S    
C81   H9    S    
C88   H24   S    
Ba2   O13   S    
C75   H59   S    
O35   P16   S    
C76   H60   S    
C83   H11   S    
C72   H52   S    
C15   H35   S    
O82   H150  S    
C92   H28   S    
C87   O55   S    
O78   H146  S    
C30   C66   A    
C3    H31   S    
Ba3   O3    S    
C46   H46   S    
C1    H29   S    
C110  C111  S    
C105  H81   S    
Ba1   O1    S    
O74   H114  S    
C30   C34   A    
Ba2   O2    S    
C62   P13   S    
C114  H125  S    
O70   H110  S    
C42   O66   S    
O64   H104  S    
C81   C85   S    
C74   H54   S    
C79   O51   S    
C115  C116  S    
O1    P1    D    
C29   C33   A    
C109  H123  S    
C52   C56   A    
C41   O65   S    
C31   C35   A    
O66   H106  S    
O59   H99   S    
C3    O59   S    
O60   H100  S    
C73   C77   S    
O45   P9    D    
C45   H45   S    
C2    C112  S    
C46   O10   S    
C101  H76   S    
O34   P13   S    
Ba3   O15   S    
C50   H42   S    
C16   C18   A    
O25   P14   D    
C102  H73   S    
Ba1   P5    S    
C14   C20   A    
C98   C99   S    
C120  H140  S    
O37   P5    D    
C83   O31   S    
C84   O32   S    
C91   O35   S    
C69   H49   S    
O21   P14   S    
C89   O33   S    
C53   C61   A    
C29   P6    S    
C24   P4    S    
C78   O50   S    
C18   H38   S    
O13   P6    S    
C71   O63   S    
O29   P1    S    
C75   C79   S    
O8    P8    S    
O73   H113  S    
C4    C118  S    
C85   H21   S    
C80   H8    S    
C49   H41   S    
C63   P16   S    
C89   H25   S    
C8    C96   A    
O36   P15   S    
O76   H116  S    
C84   H12   S    
C91   H27   S    
C92   O36   S    
C56   C64   A    
O69   H109  S    
Ba4   O16   S    
C94   P9    S    
C103  H85   S    
C12   C24   A    
O72   H112  S    
O65   H105  S    
C10   C14   A    
O80   H148  S    
C4    C92   S    
C112  C113  S    
O71   H111  S    
O46   P10   D    
C44   C50   A    
C104  C105  S    
C77   O49   S    
C79   C103  S    
C1    O57   S    
C19   H39   S    
C47   C71   S    
C34   C38   A    
C112  H130  S    
Ba4   O44   S    
O19   P3    S    
Ba1   Ba2   S    
Ba2   O22   S    
O17   P1    S    
C6    C94   A    
C80   O52   S    
C4    O60   S    
C115  H136  S    
C54   C62   A    
C84   C88   S    
C4    H32   S    
Ba3   O39   S    
Ba4   O4    S    
C80   C106  S    
C7    C39   A    
C86   O54   S    
C104  H83   S    
C75   O8    S    
C108  H86   S    
C76   O7    S    
C28   C64   A    
C55   C63   A    
O68   H108  S    
C119  H141  S    
C86   H22   S    
C9    C21   A    
C118  H143  S    
C76   H56   S    
C90   H26   S    
Ba1   O14   S    
Ba2   P2    S    
C32   C36   A    
C113  H128  S    
O3    P3    D    
C35   C39   A    
C40   C58   A    
C73   O6    S    
C84   H16   S    
C68   O76   S    
C110  H120  S    
Ba4   O40   S    
C23   P3    S    
O53   H93   S    
C26   O70   S    
C25   O69   S    
Ba4   O24   S    
C21   P1    S    
C26   C62   A    
O6    P6    S    
C97   H70   S    
C106  H92   S    
C64   P15   S    
C105  H79   S    
O81   H149  S    
C50   C54   A    
C100  H78   S    
Ba2   O38   S    
C1    C89   S    
C3    C91   S    
O77   H145  S    
C28   O72   S    
O47   P11   D    
Ba4   P4    S    
O43   P11   S    
C82   H14   S    
C111  H119  S    
C88   O56   S    
C47   O11   S    
O41   P9    S    
O83   H151  S    
Ba2   O14   S    
C79   H7    S    
C45   C69   S    
C98   H68   S    
O75   H115  S    
C108  H88   S    
C9    C57   A    
C117  H133  S    
O52   H64   S    
C11   C59   A    
C70   H50   S    
C12   C60   A    
C66   C94   A    
C73   H57   S    
O10   P10   S    
