data_mof_unit_17444.cif
_audit_creation_date              2012-10-26T18:40:32-0400
_audit_creation_method            fapswitch 2.2
_symmetry_space_group_name_H-M    P1
_symmetry_Int_Tables_number       1
_space_group_crystal_system       triclinic
_cell_length_a                    15.129276
_cell_length_b                    13.85217
_cell_length_c                    11.705158
_cell_angle_alpha                 90.041314
_cell_angle_beta                  90.10287
_cell_angle_gamma                 89.999879
_cell_volume                      2453.08403418

loop_
_atom_site_label
_atom_site_type_symbol
_atom_type_description
_atom_site_fract_x
_atom_site_fract_y
_atom_site_fract_z
_atom_type_partial_charge
C1    C     C_R   0.330464 0.500025 0.500038 0.509483
C2    C     C_R   0.500420 0.500017 0.716154 0.534195
C3    C     C_R   0.521159 0.107609 0.600407 0.228870
C4    C     C_R   0.423065 0.893082 0.472233 0.213794
C5    C     C_R   0.479553 0.106747 0.401109 0.227634
C6    C     C_R   0.576993 0.892859 0.529821 0.214382
C7    C     C_1   0.500279 0.499925 0.162259 -0.022798
C8    C     C_1   0.500326 0.500023 0.837742 -0.023248
C9    C     C_1   0.500213 0.499934 0.059847 -0.024661
C10   C     C_1   0.500234 0.499980 0.940155 -0.024810
C11   C     C_R   0.523015 0.209403 0.596627 0.037185
C12   C     C_R   0.670200 0.500027 0.499938 0.512879
C13   C     C_R   0.426124 0.790928 0.467936 0.013947
C14   C     C_R   0.477588 0.208540 0.403624 0.029109
C15   C     C_R   0.573906 0.790677 0.532668 0.021578
C16   C     C_R   0.095848 0.499973 0.395280 0.267152
C17   C     C_R   0.906619 0.426155 0.556620 0.258283
C18   C     C_R   0.906247 0.574833 0.443324 0.261749
C19   C     C_R   0.096126 0.501480 0.604822 0.266974
C20   C     C_R   0.188673 0.503642 0.394796 -0.027334
C21   C     C_R   0.814117 0.430435 0.564983 -0.023625
C22   C     C_R   0.813733 0.570120 0.434745 -0.024089
C23   C     C_R   0.234438 0.500183 0.500051 -0.139747
C24   C     C_R   0.188936 0.497271 0.605321 -0.025963
C25   C     C_3   0.464267 0.051511 0.766191 -0.012960
C26   C     C_3   0.484486 0.993540 0.873244 -0.357589
C27   C     C_3   0.276396 0.916893 0.514164 -0.016560
C28   C     C_3   0.204301 0.993107 0.505563 -0.364429
C29   C     C_3   0.537699 0.040071 0.239694 -0.018805
C30   C     C_3   0.528754 0.943665 0.178459 -0.356535
C31   C     C_3   0.723613 0.916647 0.487500 -0.008190
C32   C     C_3   0.795924 0.992592 0.496696 -0.354863
C33   C     C_3   0.029344 0.406509 0.259246 0.010665
C34   C     C_R   0.767366 0.500178 0.499868 -0.153366
C35   C     C_3   0.999310 0.407144 0.135179 -0.322708
C36   C     C_3   0.974643 0.280115 0.536928 0.027411
C37   C     C_3   0.006536 0.192520 0.603551 -0.336550
C38   C     C_3   0.973098 0.721532 0.462664 0.025563
C39   C     C_3   0.005843 0.808519 0.395807 -0.338963
C40   C     C_3   0.029727 0.595134 0.740495 0.009617
C41   C     C_3   0.000914 0.594893 0.864914 -0.322648
C42   C     C_2   0.238340 0.509759 0.284712 0.261249
C43   C     C_2   0.766964 0.365431 0.646341 0.288575
C44   C     C_2   0.766202 0.634686 0.352986 0.266350
C45   C     C_R   0.049897 0.500795 0.500047 -0.002087
C46   C     C_2   0.238876 0.491190 0.715433 0.261498
C47   C     C_R   0.952548 0.500614 0.500032 -0.003745
C48   C     C_R   0.500260 0.054422 0.501092 0.078061
C49   C     C_R   0.500037 0.945295 0.501438 0.077977
C50   C     C_R   0.500366 0.499974 0.283847 0.534876
Cu1   Cu    Cu3+1 0.500000 0.596430 0.500000 0.924291
Cu2   Cu    Cu3+1 0.500000 0.403570 0.500000 0.932444
H1    H     H_    0.542169 0.248455 0.672618 0.155132
H2    H     H_    0.297391 0.912267 0.605440 0.108833
H3    H     H_    0.247821 0.846561 0.486966 0.125884
H4    H     H_    0.179834 0.998002 0.416229 0.166359
H5    H     H_    0.148284 0.973586 0.562212 0.084505
H6    H     H_    0.230712 0.064504 0.532207 0.159127
H7    H     H_    0.598361 0.036223 0.294199 0.112217
H8    H     H_    0.547340 0.097952 0.175191 0.137110
H9    H     H_    0.468225 0.943224 0.124775 0.170492
H10   H     H_    0.587273 0.931209 0.123254 0.102237
H11   H     H_    0.524347 0.884312 0.241948 0.161749
H12   H     H_    0.368798 0.751516 0.438857 0.145372
H13   H     H_    0.702432 0.912568 0.396233 0.135079
H14   H     H_    0.752067 0.846099 0.513951 0.147288
H15   H     H_    0.820154 0.997339 0.586157 0.172454
H16   H     H_    0.852052 0.972913 0.440282 0.091673
H17   H     H_    0.769789 0.064125 0.470222 0.166278
H18   H     H_    0.974179 0.377861 0.311738 0.095397
H19   H     H_    0.087649 0.357537 0.266389 0.122031
H20   H     H_    0.940797 0.454844 0.125028 0.163207
H21   H     H_    0.981208 0.332853 0.108191 0.099529
H22   H     H_    0.053469 0.433803 0.079603 0.205552
H23   H     H_    0.458901 0.246924 0.327018 0.152475
H24   H     H_    0.029325 0.303514 0.480165 0.094964
H25   H     H_    0.916712 0.257629 0.484098 0.127603
H26   H     H_    0.953321 0.166106 0.660794 0.192898
H27   H     H_    0.065348 0.211918 0.655672 0.171952
H28   H     H_    0.024877 0.133815 0.543411 0.069159
H29   H     H_    0.027089 0.698612 0.521036 0.090672
H30   H     H_    0.914511 0.744439 0.513730 0.121499
H31   H     H_    0.953707 0.833762 0.335978 0.189610
H32   H     H_    0.022495 0.868099 0.455611 0.066632
H33   H     H_    0.065877 0.788948 0.346440 0.173548
H34   H     H_    0.631249 0.751046 0.561168 0.143508
H35   H     H_    0.973870 0.623140 0.688487 0.096057
H36   H     H_    0.087671 0.644484 0.732357 0.115659
H37   H     H_    0.055778 0.568914 0.920037 0.206092
H38   H     H_    0.942801 0.546817 0.876087 0.162798
H39   H     H_    0.982614 0.669182 0.891599 0.099520
H40   H     H_    0.308737 0.495727 0.282214 0.105255
H41   H     H_    0.704653 0.387642 0.683769 0.110061
H42   H     H_    0.703445 0.612577 0.316486 0.121290
H43   H     H_    0.309370 0.504645 0.717835 0.106596
H44   H     H_    0.411725 0.012702 0.717539 0.120018
H45   H     H_    0.439190 0.123788 0.792568 0.128213
H46   H     H_    0.535204 0.031329 0.925429 0.162074
H47   H     H_    0.423359 0.985255 0.924650 0.098848
H48   H     H_    0.509431 0.920810 0.849603 0.169145
N1    N     N_R   0.500000 0.258690 0.500000 -0.285051
N2    N     N_R   0.500000 0.741310 0.500000 -0.279599
O1    O     O_R   0.371460 0.581430 0.500010 -0.513644
O2    O     O_3   0.347164 0.943041 0.441826 -0.523180
O3    O     O_3   0.459067 0.058761 0.301081 -0.526043
O4    O     O_3   0.653031 0.942575 0.560308 -0.527989
O5    O     O_3   0.049738 0.501830 0.292880 -0.461857
O6    O     O_3   0.952604 0.354586 0.614333 -0.463814
O7    O     O_3   0.951947 0.646464 0.385581 -0.460342
O8    O     O_3   0.050294 0.499786 0.707229 -0.461743
O9    O     O_2   0.201876 0.532002 0.195408 -0.454740
O10   O     O_2   0.796773 0.286715 0.673031 -0.479248
O11   O     O_2   0.796296 0.712811 0.324615 -0.510892
O12   O     O_R   0.628540 0.418570 0.499990 -0.491115
O13   O     O_2   0.202527 0.469648 0.804886 -0.455820
O14   O     O_R   0.628540 0.581430 0.499990 -0.516524
O15   O     O_R   0.371460 0.418570 0.500010 -0.488064
O16   O     O_R   0.500010 0.581440 0.337200 -0.489613
O17   O     O_R   0.499990 0.418560 0.662800 -0.512751
O18   O     O_R   0.499990 0.581440 0.662800 -0.485555
O19   O     O_R   0.500010 0.418560 0.337200 -0.507489
O20   O     O_3   0.542119 0.060719 0.700908 -0.518097

loop_
_geom_bond_atom_site_label_1
_geom_bond_atom_site_label_2
_ccdc_geom_bond_type
C31   H14   S    
C41   H37   S    
C35   H22   S    
C36   O6    S    
C3    C48   A    
C33   O5    S    
C18   O7    S    
C18   C47   A    
C28   H4    S    
C27   H2    S    
C5    O3    S    
C28   H5    S    
Cu1   N2    S    
C37   H27   S    
C46   O13   D    
C15   H34   S    
C40   H35   S    
C36   C37   S    
C39   H32   S    
C36   H25   S    
C38   C39   S    
C27   H3    S    
Cu1   O1    S    
C27   O2    S    
Cu1   O16   S    
C7    C9    T    
C4    C13   A    
C36   H24   S    
C16   O5    S    
C43   H41   S    
C6    C15   A    
C21   C43   S    
C22   C44   S    
C46   H43   S    
C29   H7    S    
C23   C24   A    
C20   C23   A    
C9    C10   S    
C1    O1    A    
C11   H1    S    
C3    O20   S    
C26   H47   S    
C32   H16   S    
Cu2   O15   S    
C41   H38   S    
C15   N2    A    
C50   O16   A    
C30   H11   S    
C38   H30   S    
C29   O3    S    
C50   O19   A    
C37   H28   S    
C12   O12   A    
C45   C47   S    
C22   C34   A    
C5    C48   A    
Cu2   N1    S    
Cu1   Cu2   S    
C44   H42   S    
C17   O6    S    
C2    O18   A    
C14   N1    A    
C40   O8    S    
C21   C34   A    
C25   C26   S    
C17   C21   A    
C42   O9    D    
C29   C30   S    
Cu2   O19   S    
C31   C32   S    
C29   H8    S    
C16   C20   A    
Cu1   O18   S    
C6    O4    S    
C11   N1    A    
C1    O15   A    
C38   O7    S    
C5    C14   A    
C33   H18   S    
C26   H46   S    
C32   H15   S    
C25   H45   S    
C40   C41   S    
C41   H39   S    
C35   H20   S    
C1    C23   S    
Cu2   O12   S    
C30   H10   S    
C38   H29   S    
C31   O4    S    
C43   O10   D    
C39   H33   S    
C12   C34   S    
C25   O20   S    
C19   O8    S    
C31   H13   S    
C35   H21   S    
C18   C22   A    
C2    C8    S    
C17   C47   A    
C7    C50   S    
C16   C45   A    
C44   O11   D    
C20   C42   S    
C2    O17   A    
C19   C45   A    
C32   H17   S    
C28   H6    S    
C37   H26   S    
Cu1   O14   S    
C4    C49   A    
C24   C46   S    
C14   H23   S    
C40   H36   S    
C19   C24   A    
C39   H31   S    
C13   H12   S    
C48   C49   S    
C4    O2    S    
C33   C35   S    
C42   H40   S    
C6    C49   A    
C3    C11   A    
C33   H19   S    
Cu2   O17   S    
C25   H44   S    
C8    C10   T    
C30   H9    S    
C27   C28   S    
C13   N2    A    
C26   H48   S    
C12   O14   A    
