data_mof_unit_33843.cif
_audit_creation_date              2012-12-11T18:07:03-0500
_audit_creation_method            fapswitch 2.2
_symmetry_space_group_name_H-M    P1
_symmetry_Int_Tables_number       1
_space_group_crystal_system       triclinic
_cell_length_a                    8.244181
_cell_length_b                    12.702322
_cell_length_c                    26.930304
_cell_angle_alpha                 95.87496
_cell_angle_beta                  93.15098
_cell_angle_gamma                 81.456783
_cell_volume                      2771.94065133

loop_
_atom_site_label
_atom_site_type_symbol
_atom_type_description
_atom_site_fract_x
_atom_site_fract_y
_atom_site_fract_z
_atom_type_partial_charge
Ba1   Ba    Ba6+2 0.859560 0.448380 0.523550 1.665786
Ba2   Ba    Ba6+2 0.330270 0.551530 0.476440 1.677060
C1    C     C_3   0.830041 0.149640 0.742902 -0.350746
C2    C     C_3   0.713781 0.192247 0.701438 0.304866
C3    C     C_3   0.502044 0.718303 0.630943 0.276803
C4    C     C_3   0.497688 0.760173 0.686269 -0.097576
C5    C     C_3   0.944800 0.849082 0.344224 0.284129
C6    C     C_3   0.989009 0.849488 0.290300 -0.293565
C7    C     C_3   0.477445 0.834474 0.349745 0.397067
C8    C     C_3   0.480754 0.915113 0.311972 -0.401975
C9    C     C_R   0.996031 0.415023 0.178151 0.594303
C10   C     C_R   0.930065 0.605458 0.179937 0.592583
C11   C     C_2   0.756914 0.576250 0.272147 -0.091831
C12   C     C_3   0.223600 0.197338 0.657750 0.382999
C13   C     C_3   0.733973 0.608428 0.327135 -0.065053
C14   C     C_1   0.982151 0.481624 0.343297 0.035509
C15   C     C_2   0.020835 0.472769 0.295432 -0.098971
C16   C     C_2   0.900874 0.519902 0.256597 0.219812
C17   C     C_R   0.021348 0.502571 0.102484 -0.085410
C18   C     C_R   0.036743 0.408715 0.127266 -0.026468
C19   C     C_R   0.091796 0.310468 0.100576 -0.061871
C20   C     C_R   0.968835 0.601398 0.129269 -0.051230
C21   C     C_2   0.846604 0.539755 0.360557 -0.275259
C22   C     C_2   0.360712 0.477160 0.641863 -0.206091
C23   C     C_3   0.253763 0.148136 0.707215 -0.337979
C24   C     C_R   0.167834 0.394193 0.974500 0.020693
C25   C     C_R   0.054434 0.584259 0.973152 0.022985
C26   C     C_R   0.129206 0.486768 0.948279 0.041139
C27   C     C_R   0.251959 0.300887 0.948953 -0.105384
C28   C     C_R   0.291751 0.298071 0.899122 -0.066885
C29   C     C_R   0.247820 0.387666 0.872218 -0.024145
C30   C     C_R   0.164555 0.481744 0.896572 -0.082263
C31   C     C_R   0.116005 0.570707 0.869232 -0.027319
C32   C     C_R   0.155733 0.565588 0.818453 0.573191
C33   C     C_R   0.286127 0.384776 0.821480 0.573614
C34   C     C_3   0.214665 0.222461 0.418376 0.287212
C35   C     C_2   0.438912 0.428843 0.727951 -0.100718
C36   C     C_3   0.462961 0.397225 0.672761 -0.097449
C37   C     C_1   0.212020 0.518850 0.656411 -0.005736
C38   C     C_2   0.163795 0.508438 0.702261 -0.125507
C39   C     C_2   0.286120 0.469837 0.742509 0.233470
C40   C     C_R   0.121035 0.397922 0.025058 0.028578
C41   C     C_R   0.059250 0.497721 0.051003 0.016715
C42   C     C_R   0.037021 0.592816 0.026086 0.007296
C43   C     C_R   0.133536 0.305063 0.050769 -0.099279
C44   C     C_R   0.962564 0.695303 0.105690 -0.089779
C45   C     C_3   0.221347 0.102360 0.407073 -0.351561
C46   C     C_R   0.993617 0.668486 0.943605 -0.093068
C47   C     C_R   0.026159 0.662589 0.893063 -0.084507
C48   C     C_R   0.002414 0.692750 0.055672 0.169231
C49   C     C_R   0.757961 0.820335 0.480407 -0.254083
C50   C     C_R   0.436005 0.188447 0.520648 -0.280258
C51   C     C_R   0.409136 0.008832 0.535957 -0.060007
C52   C     C_R   0.348241 0.117189 0.539389 -0.020013
C53   C     C_R   0.576551 0.151702 0.493724 0.073321
C54   C     C_R   0.637749 0.040538 0.487785 -0.056147
C55   C     C_R   0.553442 0.968721 0.510128 -0.062593
C56   C     C_3   0.964110 0.789549 0.650343 0.390270
C57   C     C_R   0.615640 0.858575 0.505885 0.038873
C58   C     C_R   0.844052 0.889575 0.459577 -0.032676
C59   C     C_R   0.782010 0.998773 0.461638 -0.104140
C60   C     C_3   0.034577 0.760369 0.702414 -0.019562
C61   C     C_3   0.688516 0.318403 0.375755 0.294459
C62   C     C_3   0.665815 0.302193 0.318740 -0.053331
H1    H     H_    0.286807 0.075529 0.372187 0.113930
H2    H     H_    0.286835 0.060062 0.437833 0.074549
H3    H     H_    0.095023 0.081634 0.402266 0.125917
H4    H     H_    0.834460 0.775258 0.646457 0.047852
H5    H     H_    0.969491 0.696773 0.713403 0.084668
H6    H     H_    0.166241 0.728400 0.699850 0.087066
H7    H     H_    0.813951 0.335144 0.386403 -0.004118
H8    H     H_    0.599179 0.388800 0.388599 0.060299
H9    H     H_    0.761186 0.114646 0.769872 0.075916
H10   H     H_    0.651414 0.381277 0.303767 0.057695
H11   H     H_    0.551037 0.267670 0.308083 0.114891
H12   H     H_    0.612514 0.243572 0.720518 -0.017517
H13   H     H_    0.886199 0.216302 0.763589 0.114049
H14   H     H_    0.381241 0.694211 0.618545 0.025780
H15   H     H_    0.600402 0.648696 0.625529 0.046394
H16   H     H_    0.388975 0.822810 0.691827 0.096649
H17   H     H_    0.608882 0.797876 0.696979 0.095293
H18   H     H_    0.927793 0.087515 0.727207 0.124269
H19   H     H_    0.367416 0.170808 0.726177 0.121746
H20   H     H_    0.903042 0.771371 0.348253 0.000755
H21   H     H_    0.844105 0.915658 0.353204 -0.031621
H22   H     H_    0.069007 0.773869 0.278306 0.169074
H23   H     H_    0.875398 0.857758 0.266107 0.111997
H24   H     H_    0.056541 0.917212 0.286349 0.099094
H25   H     H_    0.605388 0.814280 0.364938 -0.123203
H26   H     H_    0.401864 0.872480 0.381362 0.082281
H27   H     H_    0.557995 0.878284 0.280479 0.120750
H28   H     H_    0.533451 0.985608 0.330134 0.064626
H29   H     H_    0.159441 0.280546 0.664562 0.050203
H30   H     H_    0.354515 0.941678 0.297246 0.130790
H31   H     H_    0.140468 0.432351 0.284194 0.113026
H32   H     H_    0.103351 0.236652 0.118231 0.117429
H33   H     H_    0.536174 0.407359 0.755445 0.090123
H34   H     H_    0.357276 0.224559 0.881610 0.115066
H35   H     H_    0.293001 0.229100 0.966939 0.065745
H36   H     H_    0.171491 0.226033 0.032914 0.063573
H37   H     H_    0.666741 0.611255 0.245376 0.103875
H38   H     H_    0.933300 0.772476 0.126879 0.118328
H39   H     H_    0.914633 0.738782 0.958361 0.108640
H40   H     H_    0.344848 0.199675 0.642111 -0.086906
H41   H     H_    0.979460 0.730594 0.872568 0.115406
H42   H     H_    0.034997 0.520724 0.710245 0.119407
H43   H     H_    0.828561 0.554704 0.400406 0.079208
H44   H     H_    0.401092 0.488905 0.605398 0.064064
H45   H     H_    0.339432 0.957257 0.552686 0.111828
H46   H     H_    0.850203 0.049505 0.443884 0.095869
H47   H     H_    0.807594 0.736341 0.479312 0.071362
H48   H     H_    0.387875 0.272792 0.524034 0.061374
H49   H     H_    0.151699 0.178305 0.732148 0.120361
H50   H     H_    0.267752 0.059460 0.701207 0.109459
H51   H     H_    0.340513 0.241521 0.425554 0.001772
H52   H     H_    0.140480 0.248330 0.451817 0.066065
N1    N     N_R   0.942579 0.512913 0.204062 -0.421825
N2    N     N_R   0.242047 0.473670 0.794881 -0.423864
O1    O     O_2   0.907040 0.557650 0.617910 -0.480981
O2    O     O_3   0.660402 0.226523 0.396816 -0.653392
O3    O     O_3   0.126191 0.136117 0.625559 -0.583391
O4    O     O_2   0.282660 0.442310 0.382060 -0.458257
O5    O     O_3   0.050670 0.442340 0.442260 -0.496147
O6    O     O_3   0.504750 0.639360 0.411530 -0.469336
O7    O     O_3   0.145544 0.271091 0.376481 -0.640584
O8    O     O_3   0.618400 0.630290 0.524520 -0.476026
O9    O     O_3   0.090070 0.694820 0.435810 -0.453483
O10   O     O_2   0.182143 0.883551 0.467469 -0.484874
O11   O     O_3   0.083535 0.863524 0.375085 -0.584834
O12   O     O_3   0.139040 0.557570 0.557730 -0.445257
O13   O     O_3   0.571310 0.369620 0.475470 -0.491064
O14   O     O_2   0.348200 0.764910 0.523260 -0.438152
O15   O     O_3   0.534759 0.801727 0.604624 -0.654245
O16   O     O_2   0.420361 0.538887 0.323588 -0.492059
O17   O     O_3   0.406699 0.746346 0.326529 -0.566544
O18   O     O_2   0.006410 0.333232 0.199097 -0.597432
O19   O     O_2   0.358021 0.302277 0.800943 -0.635853
O20   O     O_2   0.886150 0.692167 0.202751 -0.631641
O21   O     O_2   0.115881 0.644065 0.795619 -0.615717
O22   O     O_3   0.684960 0.360550 0.588460 -0.447485
O23   O     O_2   0.780268 0.453654 0.674929 -0.506943
O24   O     O_3   0.051988 0.729691 0.610836 -0.633657
O25   O     O_3   0.799482 0.245241 0.669939 -0.566530
O26   O     O_2   0.841490 0.235060 0.476710 -0.467156
O27   O     O_3   0.099640 0.305100 0.564190 -0.479290
O28   O     O_2   0.009893 0.115603 0.533672 -0.491271
P1    P     P_3+3 0.072810 0.589830 0.610360 0.977147
P2    P     P_3+3 0.661990 0.251250 0.462170 0.969627
P3    P     P_3+3 0.145918 0.166957 0.564671 0.971760
P4    P     P_3+3 0.116900 0.410080 0.389630 0.981857
P5    P     P_3+3 0.047300 0.834343 0.435016 0.977895
P6    P     P_3+3 0.680855 0.364543 0.653444 0.963937
P7    P     P_3+3 0.533162 0.763600 0.540383 0.960290
P8    P     P_3+3 0.516688 0.628795 0.346585 0.970605
C63   C     C_1   0.645298 0.103568 0.672682 0.204578
N3    N     N_1   0.588822 0.033829 0.650652 -0.317617
N4    N     N_2   0.969805 0.901813 0.645263 -0.427570
H53   H     H_    0.083871 0.924509 0.653978 0.197437
C64   C     C_3   0.903887 0.938410 0.598202 -0.107223
H54   H     H_    0.990432 0.908530 0.567992 0.115172
H55   H     H_    0.883606 0.026897 0.601405 0.161976
H56   H     H_    0.784607 0.910436 0.588596 0.091098
N5    N     N_2   0.018923 0.848994 0.741294 -0.400399
H57   H     H_    0.086105 0.909940 0.737911 0.189922
C65   C     C_3   0.859886 0.880462 0.762406 -0.201405
H58   H     H_    0.871296 0.937021 0.796227 0.103272
H59   H     H_    0.812978 0.809654 0.773884 0.123948
H60   H     H_    0.772844 0.920138 0.734878 0.106456
N6    N     N_2   0.805858 0.236545 0.295708 -0.403824
H61   H     H_    0.915233 0.266795 0.301770 0.222272
C66   C     C_3   0.819756 0.122582 0.298136 -0.144253
H62   H     H_    0.911111 0.082018 0.271181 0.104318
H63   H     H_    0.700619 0.093871 0.287628 0.103398
H64   H     H_    0.861620 0.101999 0.336269 0.115298
N7    N     N_2   0.491784 0.674937 0.717604 -0.462034
H65   H     H_    0.589279 0.614422 0.713013 0.215460
C67   C     C_3   0.466275 0.710280 0.769745 -0.213300
H66   H     H_    0.460341 0.640281 0.790694 0.128810
H67   H     H_    0.349554 0.765866 0.774005 0.163684
H68   H     H_    0.569130 0.751143 0.786227 0.082539
N8    N     N_2   0.024393 0.791149 0.037705 -0.440239
H69   H     H_    0.952910 0.857599 0.054374 0.191652
C68   C     C_3   0.194126 0.806716 0.035556 -0.238362
H70   H     H_    0.200114 0.882312 0.018816 0.107980
H71   H     H_    0.263543 0.739989 0.012002 0.122680
H72   H     H_    0.252345 0.811830 0.073781 0.111776

loop_
_geom_bond_atom_site_label_1
_geom_bond_atom_site_label_2
_ccdc_geom_bond_type
C25   C46   A    
Ba2   P4    S    
C66   H62   S    
C32   N2    Am   
C65   H58   S    
O6    P8    S    
C4    H17   S    
N6    H61   S    
Ba1   O27   S    
C17   C18   A    
Ba1   O26   S    
O26   P2    D    
C2    O25   S    
C35   H33   S    
C57   P7    S    
C5    C6    S    
N7    C67   S    
C5    H21   S    
Ba2   O5    S    
C3    O15   S    
C66   H63   S    
N4    H53   S    
O17   P8    S    
C11   C16   D    
O15   P7    S    
O4    P4    D    
N5    C65   S    
C35   C36   S    
O11   P5    S    
C68   H71   S    
C64   H54   S    
C3    C4    S    
C53   C54   A    
C55   C57   A    
C4    N7    S    
C8    H30   S    
O1    P1    D    
C22   C36   S    
C10   C20   A    
C32   O21   D    
C22   C37   D    
C54   C55   A    
C60   H6    S    
C34   C45   S    
Ba1   Ba2   S    
Ba1   O1    S    
C45   H3    S    
C62   N6    S    
C62   H10   S    
C13   P8    S    
O9    P5    S    
C4    H16   S    
C25   C42   A    
C34   O7    S    
C50   C52   A    
C14   C15   D    
C67   H67   S    
Ba2   O14   S    
C64   H55   S    
C15   H31   S    
C39   N2    S    
C3    H15   S    
C7    C8    S    
O22   P6    S    
C12   H29   S    
C6    H22   S    
C50   C53   A    
Ba2   O9    S    
C13   C21   S    
C5    H20   S    
O5    P4    S    
C8    H28   S    
C65   H59   S    
C12   O3    S    
N6    C66   S    
C59   H46   S    
C36   P6    S    
C17   C41   A    
C15   C16   S    
C52   P3    S    
C19   C43   A    
Ba2   O4    S    
C66   H64   S    
C9    C18   A    
C2    H12   S    
C27   H35   S    
C26   C30   A    
C17   C20   A    
Ba1   O8    S    
Ba1   O12   S    
C68   H72   S    
C7    H25   S    
C37   C38   D    
C51   C55   A    
C47   H41   S    
N8    H69   S    
C46   H39   S    
C43   H36   S    
C61   C62   S    
C60   H5    S    
C58   C59   A    
C6    H24   S    
C58   P5    S    
C41   C42   A    
Ba1   O5    S    
C68   H70   S    
C27   C28   A    
C23   H49   S    
O28   P3    D    
C44   H38   S    
C56   O24   S    
O10   P5    D    
C12   H40   S    
C60   N5    S    
C28   C29   A    
C67   H68   S    
C21   H43   S    
C1    H18   S    
Ba2   O13   S    
C64   H56   S    
O13   P2    S    
C61   H8    S    
C16   N1    S    
Ba1   O22   S    
C56   C60   S    
C22   H44   S    
C7    O17   S    
C56   H4    S    
C38   C39   S    
C20   C44   A    
O14   P7    D    
C8    H27   S    
O2    P2    S    
C65   H60   S    
C11   C13   S    
C10   O20   D    
Ba1   P1    S    
C48   N8    S    
C49   C57   A    
C40   C41   A    
C33   N2    Am   
C11   H37   S    
C1    C2    S    
C1    H13   S    
Ba2   O8    S    
C25   C26   A    
C24   C40   A    
C38   H42   S    
C42   C48   A    
C44   C48   A    
O25   P6    S    
C49   H47   S    
C45   H2    S    
O12   P1    S    
O24   P1    S    
O3    P3    S    
C29   C30   A    
C61   H7    S    
Ba1   O13   S    
C56   N4    S    
C7    H26   S    
C14   P4    S    
C51   C52   A    
C19   H32   S    
Ba2   O6    S    
C14   C21   D    
C28   H34   S    
C24   C26   A    
C6    H23   S    
C30   C31   A    
N7    H65   S    
C9    O18   D    
C33   O19   D    
C61   O2    S    
C53   P2    S    
O16   P8    D    
C46   C47   A    
Ba2   O12   S    
C62   H11   S    
C31   C32   A    
C29   C33   A    
C12   C23   S    
C35   C39   D    
C1    H9    S    
C5    O11   S    
N5    H57   S    
O7    P4    S    
C40   C43   A    
C10   N1    Am   
O8    P7    S    
N8    C68   S    
C2    C63   S    
C18   C19   A    
C24   C27   A    
N4    C64   S    
C67   H66   S    
C37   P1    S    
C63   N3    T    
C23   H19   S    
C50   H48   S    
C54   C59   A    
Ba1   P2    S    
C51   H45   S    
C49   C58   A    
C3    H14   S    
C23   H50   S    
C34   H51   S    
C31   C47   A    
C45   H1    S    
C9    N1    Am   
O27   P3    S    
O23   P6    D    
C34   H52   S    
