data_mof_unit_40225.cif
_audit_creation_date              2012-12-10T20:03:12-0500
_audit_creation_method            fapswitch 2.2
_symmetry_space_group_name_H-M    P1
_symmetry_Int_Tables_number       1
_space_group_crystal_system       triclinic
_cell_length_a                    8.588593
_cell_length_b                    19.236487
_cell_length_c                    18.446052
_cell_angle_alpha                 90.098942
_cell_angle_beta                  98.490835
_cell_angle_gamma                 89.979118
_cell_volume                      3014.14540041

loop_
_atom_site_label
_atom_site_type_symbol
_atom_type_description
_atom_site_fract_x
_atom_site_fract_y
_atom_site_fract_z
_atom_type_partial_charge
C1    C     C_R   0.503210 0.365363 0.500056 0.932487
C2    C     C_R   0.483048 0.440136 0.270888 -0.038350
C3    C     C_R   0.635140 0.519791 0.811218 -0.409911
C4    C     C_R   0.487784 0.440834 0.195310 -0.309961
C5    C     C_R   0.500691 0.500856 0.841373 0.092717
C6    C     C_R   0.510656 0.503522 0.159122 0.078897
C7    C     C_R   0.364448 0.480637 0.793957 0.463477
C8    C     C_R   0.532241 0.565349 0.201078 0.397683
C9    C     C_R   0.366629 0.482569 0.717123 -0.158656
C10   C     C_R   0.522621 0.561599 0.277348 -0.130791
C11   C     C_R   0.599477 0.455808 0.967291 -0.361894
C12   C     C_R   0.499626 0.633972 0.499927 0.926890
C13   C     C_R   0.415019 0.550272 0.032349 -0.300066
C14   C     C_R   0.605793 0.456509 0.043994 0.490862
C15   C     C_R   0.411570 0.550437 0.955794 0.510170
C16   C     C_R   0.200898 0.499537 0.480939 0.978049
C17   C     C_R   0.799106 0.499927 0.519072 0.964477
C18   C     C_R   0.511898 0.503771 0.077595 -0.031922
C19   C     C_R   0.503740 0.502528 0.922598 -0.015887
C20   C     C_2   0.036049 0.498534 0.470571 -0.389024
C21   C     C_2   0.963936 0.499924 0.529455 -0.392161
C22   C     C_R   0.382977 0.748503 0.465257 0.377013
C23   C     C_R   0.626268 0.964224 0.552257 0.467006
C24   C     C_R   0.472632 0.247418 0.554178 0.338334
C25   C     C_R   0.399316 0.820656 0.463102 0.399691
C26   C     C_R   0.471270 0.174867 0.544346 0.335594
C27   C     C_R   0.545595 0.851288 0.491797 -0.040046
C28   C     C_R   0.546307 0.145934 0.488425 0.002349
C29   C     C_R   0.669645 0.809966 0.525554 -0.172283
C30   C     C_R   0.601799 0.188561 0.436829 -0.204047
C31   C     C_R   0.649571 0.739106 0.531577 -0.315406
C32   C     C_R   0.582543 0.259747 0.440418 -0.305975
C33   C     C_R   0.508654 0.708406 0.500229 -0.208326
C34   C     C_R   0.514683 0.033223 0.420418 0.466915
C35   C     C_R   0.518149 0.289837 0.498767 -0.188776
C36   C     C_3   0.148916 0.405829 0.790724 0.054624
C37   C     C_3   0.988989 0.428960 0.750706 -0.335534
C38   C     C_3   0.907530 0.370735 0.703482 -0.964371
C39   C     C_3   0.643803 0.677868 0.209061 0.059387
C40   C     C_3   0.534297 0.732629 0.235291 -0.338231
C41   C     C_3   0.619192 0.776057 0.298354 -0.926226
C42   C     C_3   0.847078 0.435957 0.111126 0.088119
C43   C     C_3   0.961893 0.420820 0.056866 -0.367088
C44   C     C_3   0.130705 0.437117 0.090311 -0.923292
C45   C     C_R   0.632877 0.036102 0.548747 -0.272896
C46   C     C_3   0.389693 0.656037 0.900238 0.064594
C47   C     C_3   0.289514 0.696949 0.839451 -0.289235
C48   C     C_3   0.371749 0.763596 0.821224 -1.002454
C49   C     C_3   0.144873 0.700011 0.476253 0.111861
C50   C     C_3   0.988987 0.677519 0.432370 -0.800085
C51   C     C_3   0.545508 0.259373 0.677259 0.142535
C52   C     C_3   0.522198 0.302831 0.743568 -0.856390
C53   C     C_3   0.198227 0.892932 0.483755 0.087054
C54   C     C_3   0.024211 0.902128 0.454700 -0.811425
C55   C     C_3   0.239885 0.137351 0.577695 0.121736
C56   C     C_R   0.522217 0.961084 0.421992 -0.277810
C57   C     C_3   0.167437 0.078468 0.616349 -0.859105
C58   C     C_3   0.548154 0.919188 0.656235 0.104421
C59   C     C_3   0.536471 0.976637 0.712749 -0.356377
C60   C     C_3   0.409969 0.960203 0.760154 -0.969554
C61   C     C_3   0.292512 0.081453 0.355644 0.092539
C62   C     C_3   0.190838 0.031612 0.304090 -0.349183
C63   C     C_3   0.016822 0.050910 0.297208 -0.957494
C64   C     C_R   0.567982 0.070860 0.484832 -0.033590
C65   C     C_R   0.568788 0.926349 0.488372 -0.067732
C66   C     C_R   0.632111 0.519380 0.735052 -0.007940
H1    H     H_    0.974422 0.497086 0.414638 0.179823
H2    H     H_    0.623422 0.291546 0.398606 0.187648
H3    H     H_    0.679642 0.065141 0.597531 0.176810
H4    H     H_    0.482253 0.932159 0.372311 0.194895
H5    H     H_    0.735574 0.535126 0.712350 0.148321
H6    H     H_    0.465174 0.391473 0.297674 0.146798
H7    H     H_    0.741273 0.535753 0.846508 0.174454
H8    H     H_    0.470898 0.392535 0.164956 0.197132
H9    H     H_    0.128946 0.368863 0.834644 0.161132
H10   H     H_    0.214804 0.376062 0.753303 0.134240
H11   H     H_    0.914063 0.444806 0.792005 0.227665
H12   H     H_    0.025517 0.501508 0.585317 0.169598
H13   H     H_    0.003574 0.474447 0.715360 0.214008
H14   H     H_    0.977586 0.356146 0.659741 0.268049
H15   H     H_    0.789743 0.388632 0.677244 0.290550
H16   H     H_    0.893017 0.324536 0.737871 0.255397
H17   H     H_    0.720620 0.704697 0.174488 0.164400
H18   H     H_    0.726749 0.654980 0.255042 0.128842
H19   H     H_    0.489647 0.767445 0.188804 0.218843
H20   H     H_    0.430603 0.707413 0.253672 0.240319
H21   H     H_    0.654364 0.742749 0.347152 0.266082
H22   H     H_    0.538949 0.817176 0.313317 0.272058
H23   H     H_    0.262313 0.469652 0.679439 0.152042
H24   H     H_    0.725324 0.801092 0.282124 0.263632
H25   H     H_    0.890781 0.410105 0.164051 0.171767
H26   H     H_    0.844221 0.492853 0.123171 0.125189
H27   H     H_    0.953850 0.365058 0.040831 0.236598
H28   H     H_    0.930827 0.452910 0.006819 0.219884
H29   H     H_    0.142304 0.492851 0.106024 0.266936
H30   H     H_    0.210587 0.425698 0.049654 0.276578
H31   H     H_    0.165956 0.404416 0.139548 0.258980
H32   H     H_    0.505790 0.644997 0.882299 0.137725
H33   H     H_    0.408815 0.688132 0.951083 0.148987
H34   H     H_    0.533815 0.607692 0.310773 0.164219
H35   H     H_    0.266274 0.664127 0.789329 0.227457
H36   H     H_    0.174816 0.710375 0.857011 0.224668
H37   H     H_    0.394406 0.797706 0.870298 0.268804
H38   H     H_    0.295540 0.791958 0.777070 0.266443
H39   H     H_    0.485114 0.751284 0.801840 0.268128
H40   H     H_    0.121707 0.744900 0.511318 0.125331
H41   H     H_    0.191883 0.656065 0.511992 0.129159
H42   H     H_    0.008407 0.634475 0.394533 0.256106
H43   H     H_    0.907914 0.659277 0.469912 0.199826
H44   H     H_    0.934138 0.721940 0.399759 0.253562
H45   H     H_    0.668722 0.417982 0.942366 0.177952
H46   H     H_    0.666460 0.269320 0.664682 0.126243
H47   H     H_    0.536485 0.203887 0.692722 0.179525
H48   H     H_    0.616336 0.290915 0.789898 0.207969
H49   H     H_    0.528249 0.358769 0.730305 0.269803
H50   H     H_    0.406630 0.290539 0.760450 0.242856
H51   H     H_    0.250714 0.945198 0.495764 0.148877
H52   H     H_    0.206947 0.863153 0.536101 0.097213
H53   H     H_    0.966959 0.850582 0.444607 0.256441
H54   H     H_    0.965606 0.930983 0.495361 0.210421
H55   H     H_    0.009459 0.931679 0.402598 0.264386
H56   H     H_    0.338941 0.585819 0.056273 0.199297
H57   H     H_    0.194327 0.133584 0.518056 0.113107
H58   H     H_    0.200985 0.187475 0.599221 0.184437
H59   H     H_    0.205042 0.082303 0.676461 0.264004
H60   H     H_    0.036995 0.081636 0.604757 0.213740
H61   H     H_    0.205725 0.027564 0.596640 0.248618
H62   H     H_    0.569868 0.868889 0.685519 0.171104
H63   H     H_    0.433301 0.913526 0.619579 0.099386
H64   H     H_    0.651728 0.982502 0.748541 0.230506
H65   H     H_    0.506853 0.026685 0.684255 0.257728
H66   H     H_    0.294131 0.952529 0.725389 0.267872
H67   H     H_    0.782596 0.832528 0.547045 0.195217
H68   H     H_    0.399955 0.004065 0.798397 0.269583
H69   H     H_    0.441765 0.912524 0.792808 0.272849
H70   H     H_    0.271423 0.135399 0.335073 0.167248
H71   H     H_    0.254197 0.079788 0.410874 0.115394
H72   H     H_    0.228134 0.033314 0.248927 0.235784
H73   H     H_    0.207257 0.977748 0.325437 0.245736
H74   H     H_    0.977312 0.050972 0.351906 0.261762
H75   H     H_    0.945530 0.012442 0.261647 0.274248
H76   H     H_    0.996606 0.103262 0.272268 0.266837
H77   H     H_    0.659491 0.166707 0.393592 0.195433
H78   H     H_    0.746367 0.707728 0.558037 0.164458
N1    N     N_R   0.500020 0.499980 0.689440 -0.106047
N2    N     N_R   0.499980 0.500020 0.310560 -0.104384
O1    O     O_R   0.500010 0.398180 0.560840 -0.570799
O2    O     O_3   0.554717 0.627433 0.164711 -0.663319
O3    O     O_3   0.697287 0.407557 0.085267 -0.651866
O4    O     O_3   0.309007 0.594408 0.913149 -0.617732
O5    O     O_3   0.249859 0.717646 0.427076 -0.578653
O6    O     O_3   0.429539 0.276597 0.617070 -0.603292
O7    O     O_3   0.273237 0.859700 0.429707 -0.596741
O8    O     O_3   0.405587 0.131553 0.591589 -0.644977
O9    O     O_3   0.677360 0.931630 0.618348 -0.658499
O10   O     O_3   0.454016 0.066268 0.355842 -0.649880
O11   O     O_R   0.499990 0.601820 0.439160 -0.608508
O12   O     O_R   0.499930 0.398180 0.439210 -0.644903
O13   O     O_R   0.500070 0.601820 0.560790 -0.628453
O14   O     O_R   0.271780 0.500000 0.546590 -0.626551
O15   O     O_R   0.728220 0.500000 0.453410 -0.614090
O16   O     O_R   0.271710 0.499990 0.424960 -0.613254
O17   O     O_R   0.728290 0.500010 0.575040 -0.644513
O18   O     O_3   0.230321 0.464151 0.824456 -0.622440
Zn1   Zn    Zn3+2 0.500050 0.500000 0.581210 0.939281
Zn2   Zn    Zn3+2 0.499950 0.500000 0.418790 0.944517

loop_
_geom_bond_atom_site_label_1
_geom_bond_atom_site_label_2
_ccdc_geom_bond_type
C55   O8    S    
C29   H67   S    
C46   H33   S    
C59   H64   S    
C34   C56   A    
C51   H46   S    
C23   C45   A    
C54   H54   S    
C16   O14   A    
C63   H74   S    
C14   C18   A    
C20   H1    S    
C61   H71   S    
C60   H66   S    
O1    Zn1   S    
C49   H41   S    
N1    Zn1   S    
C53   C54   S    
C15   C19   A    
C34   O10   S    
C37   H13   S    
C59   H65   S    
C62   C63   S    
C38   H14   S    
C13   C18   A    
C47   H35   S    
C1    O12   A    
O17   Zn1   S    
C24   C26   A    
C39   H18   S    
C23   O9    S    
C57   H59   S    
C11   C14   A    
C53   H51   S    
C27   C29   A    
C58   H63   S    
C56   C65   A    
C48   H38   S    
C50   H44   S    
C43   H28   S    
C42   H25   S    
C46   C47   S    
C40   H20   S    
C31   H78   S    
C41   H22   S    
C42   O3    S    
C66   N1    A    
C36   H10   S    
O16   Zn2   S    
C47   C48   S    
C22   C25   A    
C39   O2    S    
C31   C33   A    
C9    N1    A    
C12   O11   A    
C24   O6    S    
C4    H8    S    
O15   Zn2   S    
C32   H2    S    
C2    H6    S    
C41   H24   S    
N2    Zn2   S    
C59   C60   S    
C47   H36   S    
C54   H53   S    
C38   H16   S    
C50   H42   S    
C8    O2    S    
C6    C18   S    
C52   H50   S    
C41   H21   S    
C55   H57   S    
C24   C35   A    
C49   O5    S    
C25   O7    S    
C51   C52   S    
C32   C35   A    
C4    C6    A    
C9    H23   S    
C39   C40   S    
C5    C7    A    
C53   H52   S    
C6    C8    A    
C16   O16   A    
C58   C59   S    
C48   H37   S    
C45   H3    S    
C50   H43   S    
C17   C21   S    
C30   H77   S    
O13   Zn1   S    
C40   H19   S    
C21   H12   S    
C2    C4    A    
C43   C44   S    
C37   C38   S    
C27   C65   S    
C36   H9    S    
C44   H31   S    
C66   H5    S    
C16   C20   S    
C11   C19   A    
C34   C64   A    
C63   H75   S    
C51   H47   S    
O14   Zn1   S    
C62   H72   S    
C10   H34   S    
C60   H69   S    
C17   O15   A    
C10   N2    A    
C28   C64   S    
C40   C41   S    
C46   O4    S    
C54   H55   S    
C51   O6    S    
C56   H4    S    
C55   C57   S    
C38   H15   S    
C62   H73   S    
C26   O8    S    
C3    C66   A    
C2    N2    A    
C42   C43   S    
C22   O5    S    
C61   O10   S    
C60   H68   S    
C57   H60   S    
C1    C35   S    
C52   H49   S    
C7    C9    A    
C22   C33   A    
C53   O7    S    
C36   C37   S    
C44   H30   S    
C3    C5    A    
O11   Zn2   S    
C57   H61   S    
C49   H40   S    
C5    C19   S    
C52   H48   S    
C25   C27   A    
C7    O18   S    
C45   C64   A    
C26   C28   A    
C23   C65   A    
C13   C15   A    
C39   H17   S    
C29   C31   A    
C44   H29   S    
C58   H62   S    
C30   C32   A    
C13   H56   S    
C17   O17   A    
C37   H11   S    
C14   O3    S    
C28   C30   A    
C43   H27   S    
C63   H76   S    
C42   H26   S    
C12   O13   A    
C46   H32   S    
C61   C62   S    
C3    H7    S    
C1    O1    A    
C58   O9    S    
O12   Zn2   S    
C20   C21   D    
C8    C10   A    
C49   C50   S    
C55   H58   S    
C36   O18   S    
C11   H45   S    
C48   H39   S    
C12   C33   S    
C15   O4    S    
C61   H70   S    
