data_mof_unit_22955.cif
_audit_creation_date              2012-12-10T19:50:57-0500
_audit_creation_method            fapswitch 2.2
_symmetry_space_group_name_H-M    P1
_symmetry_Int_Tables_number       1
_space_group_crystal_system       triclinic
_cell_length_a                    23.527592
_cell_length_b                    10.801934
_cell_length_c                    22.201738
_cell_angle_alpha                 90.296132
_cell_angle_beta                  89.983917
_cell_angle_gamma                 91.941751
_cell_volume                      5639.11202577

loop_
_atom_site_label
_atom_site_type_symbol
_atom_type_description
_atom_site_fract_x
_atom_site_fract_y
_atom_site_fract_z
_atom_type_partial_charge
C1    C     C_R   0.497615 0.262257 0.499849 0.877067
C2    C     C_R   0.701645 0.497197 0.444886 -0.195702
C3    C     C_R   0.238376 0.483013 0.552999 -0.118696
C4    C     C_R   0.760864 0.497293 0.444572 -0.120690
C5    C     C_R   0.209252 0.501033 0.498943 0.359804
C6    C     C_R   0.790843 0.496012 0.498931 0.356889
C7    C     C_R   0.302109 0.182040 0.504402 -0.103991
C8    C     C_R   0.695080 0.804752 0.483511 -0.100164
C9    C     C_R   0.355294 0.135907 0.518398 -0.137900
C10   C     C_R   0.639524 0.843328 0.475163 -0.125087
C11   C     C_R   0.395146 0.116726 0.472549 0.153478
C12   C     C_R   0.503618 0.738146 0.500139 0.914074
C13   C     C_R   0.608412 0.888604 0.523864 0.115262
C14   C     C_R   0.381742 0.146127 0.412858 -0.088460
C15   C     C_R   0.634299 0.898670 0.580723 0.036418
C16   C     C_R   0.390758 0.500254 0.499997 0.834001
C17   C     C_R   0.609278 0.499349 0.499959 0.883473
C18   C     C_R   0.328643 0.192945 0.399104 -0.173973
C19   C     C_R   0.689702 0.859092 0.589144 -0.086574
C20   C     C_R   0.288682 0.209843 0.444758 -0.073126
C21   C     C_R   0.720010 0.811818 0.540591 -0.104688
C22   C     C_R   0.451464 0.928499 0.486884 0.351666
C23   C     C_R   0.239648 0.520332 0.445412 -0.132501
C24   C     C_R   0.550326 0.073663 0.512700 0.343052
C25   C     C_R   0.502921 0.872234 0.500234 -0.195619
C26   C     C_R   0.498879 0.129046 0.499627 -0.201429
C27   C     C_R   0.552730 0.944479 0.513192 -0.124891
C28   C     C_R   0.449362 0.057639 0.486419 -0.138718
C29   C     C_R   0.520484 0.395715 0.871848 0.552059
C30   C     C_R   0.459753 0.567752 0.128118 0.552225
C31   C     C_R   0.459731 0.568042 0.872369 0.533121
C32   C     C_R   0.520477 0.395373 0.127605 0.532643
C33   C     C_R   0.458505 0.568606 0.936145 -0.024254
C34   C     C_R   0.761409 0.494000 0.553718 -0.137219
C35   C     C_R   0.520393 0.392571 0.063821 -0.026533
C36   C     C_R   0.489267 0.480320 0.967898 -0.011846
C37   C     C_R   0.489270 0.480244 0.032065 -0.011070
C38   C     C_R   0.520379 0.392712 0.935617 -0.030332
C39   C     C_R   0.458495 0.568427 0.064344 -0.027899
C40   C     C_R   0.881508 0.604348 0.489665 0.531916
C41   C     C_R   0.118464 0.391782 0.505300 0.529111
C42   C     C_R   0.427637 0.655712 0.968927 -0.158582
C43   C     C_R   0.550975 0.304983 0.031037 -0.153242
C44   C     C_R   0.427629 0.655618 0.032077 -0.160332
C45   C     C_R   0.298865 0.520541 0.445763 -0.169997
C46   C     C_R   0.550970 0.305055 0.967885 -0.157222
C47   C     C_R   0.455158 0.414926 0.260525 0.085415
C48   C     C_R   0.455590 0.413692 0.739149 0.082571
C49   C     C_R   0.460100 0.423529 0.323900 -0.034906
C50   C     C_R   0.460323 0.422819 0.675765 -0.029729
C51   C     C_R   0.536440 0.570334 0.315902 0.543491
C52   C     C_R   0.536397 0.570077 0.684458 0.539358
C53   C     C_R   0.533480 0.564100 0.252719 -0.268882
C54   C     C_R   0.533184 0.564674 0.747598 -0.274381
C55   C     C_R   0.492953 0.486262 0.224122 0.283166
C56   C     C_R   0.702148 0.494486 0.554188 -0.147560
C57   C     C_R   0.492756 0.486722 0.775859 0.283770
C58   C     C_R   0.878181 0.386206 0.506332 0.536950
C59   C     C_R   0.121849 0.610598 0.490812 0.532121
C60   C     C_R   0.938455 0.382106 0.504833 -0.047808
C61   C     C_R   0.061523 0.614035 0.489719 -0.046288
C62   C     C_R   0.969851 0.496203 0.497226 -0.048798
C63   C     C_R   0.030126 0.499948 0.497205 -0.048290
C64   C     C_R   0.940997 0.607068 0.489521 -0.028375
C65   C     C_R   0.058967 0.389027 0.504761 -0.027801
C66   C     C_R   0.968813 0.270337 0.510455 0.139293
C67   C     C_R   0.328347 0.501888 0.499835 0.000472
C68   C     C_R   0.031144 0.725150 0.481446 0.138512
C69   C     C_R   0.028303 0.276717 0.511025 -0.192679
C70   C     C_R   0.971627 0.719047 0.481721 -0.190873
C71   C     C_3   0.941307 0.141338 0.514692 -0.346860
C72   C     C_3   0.925695 0.108772 0.579625 -0.733939
C73   C     C_3   0.058819 0.852832 0.472297 -0.346588
C74   C     C_3   0.077398 0.911473 0.532262 -0.736272
C75   C     C_3   0.409274 0.330596 0.233650 -0.387171
C76   C     C_3   0.350985 0.386913 0.240419 -0.815408
C77   C     C_3   0.410441 0.327538 0.765781 -0.408758
C78   C     C_R   0.671751 0.496806 0.499729 -0.023384
C79   C     C_3   0.424787 0.192201 0.755798 -0.765386
C80   C     C_R   0.297637 0.483886 0.553550 -0.229102
Cl1   Cl    Cl    0.389135 0.836908 0.471243 -0.596193
Cl2   Cl    Cl    0.612777 0.167498 0.525107 -0.613751
Cl3   Cl    Cl    0.587985 0.670668 0.347868 -0.657185
Cl4   Cl    Cl    0.588680 0.667663 0.652913 -0.670273
Cu1   Cu    Cu3+1 0.500000 0.499970 0.559570 1.023910
Cu2   Cu    Cu3+1 0.500000 0.500030 0.440430 1.025548
H1    H     H_    0.412023 0.130940 0.377036 0.135705
H2    H     H_    0.431761 0.367532 0.647514 0.144538
H3    H     H_    0.562691 0.620181 0.225748 0.186179
H4    H     H_    0.562355 0.620933 0.774799 0.183441
H5    H     H_    0.050987 0.191892 0.516317 0.181137
H6    H     H_    0.948867 0.803859 0.476167 0.182598
H7    H     H_    0.217279 0.534359 0.403513 0.142079
H8    H     H_    0.784532 0.492701 0.595854 0.143364
H9    H     H_    0.321496 0.534817 0.403747 0.168054
H10   H     H_    0.680240 0.493624 0.597078 0.200149
H11   H     H_    0.319330 0.469011 0.595786 0.154275
H12   H     H_    0.611699 0.938256 0.618312 0.164291
H13   H     H_    0.679377 0.498446 0.402243 0.201745
H14   H     H_    0.215016 0.468505 0.594534 0.142273
H15   H     H_    0.783543 0.498307 0.402125 0.149106
H16   H     H_    0.247388 0.244882 0.433947 0.164171
H17   H     H_    0.762973 0.781976 0.547129 0.179910
H18   H     H_    0.271201 0.195741 0.539721 0.164927
H19   H     H_    0.719058 0.770943 0.445592 0.179338
H20   H     H_    0.365080 0.113061 0.564611 0.135260
H21   H     H_    0.621564 0.843416 0.430471 0.204141
H22   H     H_    0.897213 0.177743 0.599554 0.280935
H23   H     H_    0.318204 0.214638 0.352984 0.139454
H24   H     H_    0.903811 0.016100 0.580773 0.243220
H25   H     H_    0.964834 0.105826 0.607492 0.227618
H26   H     H_    0.904555 0.128960 0.483832 0.249865
H27   H     H_    0.971230 0.071095 0.498530 0.169102
H28   H     H_    0.039420 0.932924 0.559644 0.224828
H29   H     H_    0.104177 0.848845 0.558609 0.281112
H30   H     H_    0.102213 0.998824 0.523721 0.254918
H31   H     H_    0.094207 0.850613 0.439441 0.248093
H32   H     H_    0.028455 0.915932 0.450980 0.164280
H33   H     H_    0.317872 0.322584 0.221182 0.243611
H34   H     H_    0.709284 0.866133 0.633184 0.149739
H35   H     H_    0.340985 0.403170 0.288654 0.235108
H36   H     H_    0.350004 0.476237 0.215943 0.287530
H37   H     H_    0.417032 0.312722 0.185118 0.223748
H38   H     H_    0.409167 0.239409 0.256644 0.201011
H39   H     H_    0.426570 0.170159 0.706927 0.239166
H40   H     H_    0.466392 0.172844 0.776750 0.289863
H41   H     H_    0.391489 0.131243 0.776804 0.244604
H42   H     H_    0.405382 0.343686 0.814876 0.220678
H43   H     H_    0.368784 0.345509 0.744509 0.197749
H44   H     H_    0.403503 0.724731 0.945883 0.186740
H45   H     H_    0.575265 0.236230 0.054082 0.191182
H46   H     H_    0.403490 0.724565 0.055527 0.187133
H47   H     H_    0.575252 0.236353 0.944434 0.189794
H48   H     H_    0.431472 0.368527 0.351873 0.146316
N1    N     N_R   0.851721 0.495600 0.498406 -0.462071
N2    N     N_R   0.148315 0.501076 0.498450 -0.461731
N3    N     N_R   0.490438 0.482490 0.841350 -0.450619
N4    N     N_R   0.490471 0.482136 0.158620 -0.450327
N5    N     N_R   0.500010 0.500010 0.350920 -0.209417
N6    N     N_R   0.499990 0.499990 0.649080 -0.208369
O1    O     O_R   0.500000 0.319610 0.550310 -0.573376
O2    O     O_2   0.146515 0.285768 0.512221 -0.578761
O3    O     O_2   0.845642 0.283277 0.515904 -0.530358
O4    O     O_2   0.154478 0.714619 0.484919 -0.531814
O5    O     O_2   0.550725 0.313008 0.840719 -0.532508
O6    O     O_2   0.430674 0.652443 0.159260 -0.532146
O7    O     O_2   0.430540 0.652630 0.841723 -0.534221
O8    O     O_2   0.550504 0.312224 0.158263 -0.525107
O9    O     O_R   0.500000 0.680390 0.449690 -0.523738
O10   O     O_R   0.499990 0.319670 0.449690 -0.585949
O11   O     O_R   0.500010 0.680330 0.550310 -0.541782
O12   O     O_R   0.417880 0.499930 0.550320 -0.602319
O13   O     O_R   0.582120 0.500070 0.449680 -0.553749
O14   O     O_R   0.417880 0.499990 0.449700 -0.589612
O15   O     O_R   0.582120 0.500010 0.550300 -0.536422
O16   O     O_2   0.853410 0.709839 0.481393 -0.573143

loop_
_geom_bond_atom_site_label_1
_geom_bond_atom_site_label_2
_ccdc_geom_bond_type
C5    N2    S    
C49   H48   S    
C63   C65   A    
C34   C56   A    
C23   C45   A    
C80   H11   S    
C73   C74   S    
C14   C18   A    
C53   C55   A    
C24   C27   A    
C17   O13   A    
C8    H19   S    
Cu1   O11   S    
C48   C57   A    
C47   C49   A    
Cu1   Cu2   S    
C15   C19   A    
C62   C63   A    
C55   N4    S    
C30   N4    A    
C76   H35   S    
C36   C37   A    
C35   C37   A    
Cu2   O13   S    
C24   C26   A    
C14   H1    S    
C54   H4    S    
Cu2   O10   S    
C29   O5    S    
C11   C14   A    
C50   N6    A    
C66   C69   A    
C20   H16   S    
C58   C60   A    
C74   H28   S    
C45   H9    S    
C59   N2    A    
C33   C36   A    
C56   C78   A    
C71   H27   S    
C60   C62   A    
Cu1   O15   S    
C52   Cl4   S    
C24   Cl2   S    
C18   H23   S    
C62   C64   A    
C3    H14   S    
C72   H22   S    
C22   C25   A    
C29   C38   A    
C45   C67   A    
C31   C33   A    
C64   C70   A    
C31   N3    A    
C35   C43   A    
C13   C27   S    
C50   H2    S    
C31   O7    S    
C48   C50   A    
C79   H39   S    
C72   H25   S    
C60   C66   A    
C22   C28   A    
C71   H26   S    
C12   O11   A    
C10   H21   S    
C42   C44   A    
C3    C80   A    
C58   O3    S    
C52   C54   A    
C30   O6    S    
C7    C9    A    
C77   C79   S    
C40   N1    A    
C72   H24   S    
C59   C61   A    
C76   H33   S    
C73   H31   S    
C75   H38   S    
C32   C35   A    
C16   O12   A    
Cu2   O9    S    
Cu1   O1    S    
C41   C65   A    
C68   C73   S    
C6    C34   A    
C51   C53   A    
C48   C77   S    
C2    C4    A    
C75   C76   S    
C22   Cl1   S    
C32   N4    A    
C6    N1    S    
C2    C78   A    
C66   C71   S    
C5    C23   A    
C74   H30   S    
C4    H15   S    
C61   C63   A    
C8    C21   A    
C57   N3    S    
C1    O10   A    
C42   H44   S    
C16   C67   S    
C77   H43   S    
C9    C11   A    
Cu1   N6    S    
C77   H42   S    
Cu2   N5    S    
C4    C6    A    
C79   H40   S    
C59   O4    S    
C7    H18   S    
C13   C15   A    
C16   O14   A    
C1    C26   S    
C75   H37   S    
C44   H46   S    
C33   C42   A    
C15   H12   S    
C36   C38   A    
C17   O15   A    
C51   Cl3   S    
C47   C55   A    
C56   H10   S    
C79   H41   S    
C73   H32   S    
C19   C21   A    
C12   O9    A    
C70   H6    S    
C67   C80   A    
C34   H8    S    
C3    C5    A    
C10   C13   A    
C19   H34   S    
C39   C44   A    
C32   O8    S    
C58   N1    A    
C25   C27   A    
C29   N3    A    
C26   C28   A    
C40   C64   A    
C12   C25   S    
C76   H36   S    
C49   N5    A    
C2    H13   S    
C9    H20   S    
Cu1   O12   S    
C47   C75   S    
C41   O2    S    
C37   C39   A    
C46   H47   S    
C53   H3    S    
C61   C68   A    
C11   C28   S    
C65   C69   A    
C74   H29   S    
C43   H45   S    
C17   C78   S    
C52   N6    A    
C30   C39   A    
C18   C20   A    
Cu2   O14   S    
C43   C46   A    
C38   C46   A    
C1    O1    A    
C21   H17   S    
C23   H7    S    
C71   C72   S    
C8    C10   A    
C7    C20   A    
C68   C70   A    
C40   O16   S    
C69   H5    S    
C41   N2    A    
C54   C57   A    
C51   N5    A    
