data_mof_unit_5322.cif
_audit_creation_date              2012-12-10T19:58:38-0500
_audit_creation_method            fapswitch 2.2
_symmetry_space_group_name_H-M    P1
_symmetry_Int_Tables_number       1
_space_group_crystal_system       triclinic
_cell_length_a                    15.126485
_cell_length_b                    14.136124
_cell_length_c                    19.261932
_cell_angle_alpha                 90.298311
_cell_angle_beta                  90.124363
_cell_angle_gamma                 90.213187
_cell_volume                      4118.68215772

loop_
_atom_site_label
_atom_site_type_symbol
_atom_type_description
_atom_site_fract_x
_atom_site_fract_y
_atom_site_fract_z
_atom_type_partial_charge
C1    C     C_R   0.327346 0.499566 0.499593 0.946422
C2    C     C_R   0.951055 0.494506 0.501131 -0.241237
C3    C     C_R   0.521004 0.102877 0.441833 0.353470
C4    C     C_R   0.541516 0.895875 0.554218 0.371070
C5    C     C_R   0.467954 0.107066 0.560660 0.384675
C6    C     C_R   0.446329 0.893597 0.452491 0.382027
C7    C     C_R   0.521180 0.202443 0.441872 -0.173916
C8    C     C_R   0.541598 0.795708 0.552005 -0.197073
C9    C     C_R   0.474432 0.206771 0.558650 -0.164225
C10   C     C_R   0.452939 0.794482 0.450897 -0.131223
C11   C     C_R   0.494280 0.053244 0.502185 -0.039697
C12   C     C_R   0.672235 0.500054 0.499304 0.986200
C13   C     C_R   0.492932 0.946315 0.503618 -0.047582
C14   C     C_R   0.500492 0.499980 0.365973 1.017917
C15   C     C_R   0.500590 0.500049 0.633971 1.009485
C16   C     C_R   0.430784 0.462173 0.745662 0.270526
C17   C     C_R   0.433369 0.539324 0.253557 0.266680
C18   C     C_R   0.579506 0.466333 0.257425 0.269433
C19   C     C_R   0.578683 0.533004 0.743135 0.273388
C20   C     C_R   0.435036 0.458203 0.818275 0.321365
C21   C     C_R   0.437888 0.542344 0.180877 0.325156
C22   C     C_R   0.581324 0.462432 0.184740 0.330313
C23   C     C_R   0.183133 0.582357 0.489583 0.398392
C24   C     C_R   0.580013 0.536307 0.815798 0.341705
C25   C     C_R   0.508121 0.498730 0.852458 -0.002312
C26   C     C_R   0.510748 0.501370 0.147347 0.002617
C27   C     C_R   0.502747 0.499774 0.708771 -0.361407
C28   C     C_R   0.503816 0.500505 0.291139 -0.353356
C29   C     C_R   0.509139 0.586321 0.963639 0.337293
C30   C     C_R   0.509433 0.413498 0.036110 0.358228
C31   C     C_R   0.517308 0.586651 0.036035 0.339984
C32   C     C_R   0.514482 0.413248 0.963782 0.329179
C33   C     C_R   0.513237 0.500389 0.071833 -0.067257
C34   C     C_R   0.813103 0.424334 0.465523 0.384902
C35   C     C_R   0.510596 0.499516 0.927958 -0.075207
C36   C     C_R   0.092354 0.577694 0.480622 0.365718
C37   C     C_R   0.904166 0.429723 0.458819 0.336344
C38   C     C_R   0.905519 0.561830 0.541608 0.344174
C39   C     C_R   0.093865 0.413413 0.520549 0.345017
C40   C     C_3   0.301297 0.496775 0.689267 0.105416
C41   C     C_3   0.223231 0.505388 0.739179 -0.357151
C42   C     C_3   0.154589 0.574255 0.711455 -0.970946
C43   C     C_3   0.295575 0.507226 0.294174 0.054531
C44   C     C_3   0.205909 0.555288 0.301463 -0.286197
C45   C     C_R   0.815626 0.573055 0.530930 0.393406
C46   C     C_3   0.132471 0.482889 0.312406 -0.981363
C47   C     C_3   0.703853 0.528179 0.307816 0.120051
C48   C     C_3   0.800224 0.512873 0.287193 -0.306745
C49   C     C_3   0.858124 0.595623 0.310844 -0.979116
C50   C     C_3   0.704013 0.473723 0.693600 0.101142
C51   C     C_3   0.801599 0.494510 0.707817 -0.310190
C52   C     C_3   0.860094 0.412562 0.684430 -0.965187
C53   C     C_3   0.425657 0.715434 0.932798 0.130389
C54   C     C_3   0.363861 0.683216 0.874051 -0.397685
C55   C     C_3   0.281408 0.744788 0.870041 -0.944670
C56   C     C_R   0.184604 0.411420 0.510696 0.396642
C57   C     C_3   0.426371 0.284362 0.068710 0.147341
C58   C     C_3   0.367122 0.317192 0.128572 -0.422852
C59   C     C_3   0.284463 0.255706 0.134787 -0.927301
C60   C     C_3   0.605602 0.713696 0.065647 0.141423
C61   C     C_3   0.661118 0.695278 0.130697 -0.393526
C62   C     C_3   0.747707 0.750867 0.129291 -0.948521
C63   C     C_3   0.605814 0.307556 0.910048 0.106731
C64   C     C_3   0.605914 0.246054 0.844527 -0.326057
C65   C     C_3   0.699698 0.220114 0.822664 -0.983134
C66   C     C_3   0.237328 0.715961 0.542740 0.128985
C67   C     C_R   0.230807 0.497796 0.499862 -0.493222
C68   C     C_3   0.153081 0.767162 0.566058 -0.336578
C69   C     C_3   0.173292 0.843640 0.619863 -1.000779
C70   C     C_3   0.758914 0.274496 0.479883 0.164847
C71   C     C_3   0.833815 0.202825 0.471640 -0.331606
C72   C     C_3   0.818457 0.117216 0.517749 -1.025472
C73   C     C_3   0.776160 0.724808 0.505780 0.133955
C74   C     C_3   0.855632 0.791147 0.516403 -0.336913
C75   C     C_3   0.859244 0.867619 0.461083 -1.020521
C76   C     C_3   0.245227 0.286951 0.450579 0.153248
C77   C     C_3   0.167354 0.228754 0.422156 -0.367214
C78   C     C_R   0.767983 0.499500 0.498264 -0.479858
C79   C     C_3   0.183265 0.199819 0.346701 -0.987530
C80   C     C_3   0.625284 0.022750 0.379769 0.084362
C81   C     C_3   0.640489 0.969738 0.311443 -0.271334
C82   C     C_3   0.728336 0.917314 0.311262 -1.005961
C83   C     C_3   0.671054 0.924595 0.614380 0.064359
C84   C     C_3   0.712172 0.991921 0.667826 -0.291629
C85   C     C_3   0.810193 0.971592 0.678880 -0.970089
C86   C     C_3   0.352698 0.085161 0.636145 0.079439
C87   C     C_3   0.322806 0.027352 0.698679 -0.313728
C88   C     C_3   0.228672 0.052564 0.720128 -0.938427
C89   C     C_R   0.047005 0.495086 0.500985 -0.257025
C90   C     C_3   0.313036 0.964749 0.431009 0.074851
C91   C     C_3   0.239347 0.907530 0.395887 -0.315996
C92   C     C_3   0.147955 0.942876 0.416931 -0.955395
H1    H     H_    0.539230 0.239792 0.395111 0.196449
H2    H     H_    0.096835 0.576442 0.746887 0.281024
H3    H     H_    0.639392 0.020960 0.267858 0.225333
H4    H     H_    0.783593 0.966367 0.324165 0.281142
H5    H     H_    0.740146 0.886397 0.259038 0.275245
H6    H     H_    0.726152 0.858776 0.349422 0.266183
H7    H     H_    0.704549 0.935082 0.563589 0.123125
H8    H     H_    0.681547 0.850971 0.632550 0.162943
H9    H     H_    0.703984 0.066083 0.650135 0.219471
H10   H     H_    0.677171 0.984171 0.718186 0.238225
H11   H     H_    0.847087 0.979436 0.629508 0.274153
H12   H     H_    0.819297 0.898631 0.698742 0.277650
H13   H     H_    0.132055 0.550940 0.659255 0.248479
H14   H     H_    0.837799 0.022368 0.717466 0.270268
H15   H     H_    0.308577 0.068490 0.591236 0.119985
H16   H     H_    0.346553 0.161389 0.649852 0.167063
H17   H     H_    0.326227 0.950767 0.685747 0.226880
H18   H     H_    0.368062 0.041345 0.743147 0.235689
H19   H     H_    0.225622 0.127523 0.737537 0.276417
H20   H     H_    0.207659 0.006534 0.763664 0.266004
H21   H     H_    0.182251 0.042018 0.676006 0.272751
H22   H     H_    0.303321 0.041016 0.420141 0.166899
H23   H     H_    0.307711 0.956349 0.488541 0.099344
H24   H     H_    0.309285 0.464799 0.341281 0.134921
H25   H     H_    0.245935 0.912496 0.338552 0.240754
H26   H     H_    0.245957 0.832081 0.410586 0.255022
H27   H     H_    0.134425 0.011850 0.392175 0.272560
H28   H     H_    0.143299 0.951588 0.474108 0.262464
H29   H     H_    0.096763 0.891494 0.399397 0.287211
H30   H     H_    0.292027 0.458603 0.248272 0.137933
H31   H     H_    0.207675 0.605253 0.346043 0.271422
H32   H     H_    0.191503 0.596424 0.253773 0.218202
H33   H     H_    0.126385 0.435584 0.266409 0.272481
H34   H     H_    0.068849 0.520058 0.320326 0.275242
H35   H     H_    0.146632 0.439720 0.358976 0.245886
H36   H     H_    0.700367 0.544636 0.363978 0.152665
H37   H     H_    0.573981 0.755741 0.592332 0.190171
H38   H     H_    0.679318 0.592204 0.279851 0.104216
H39   H     H_    0.825257 0.446641 0.310813 0.282969
H40   H     H_    0.804620 0.505820 0.229830 0.220492
H41   H     H_    0.832818 0.663221 0.289621 0.264211
H42   H     H_    0.926669 0.585123 0.292121 0.274998
H43   H     H_    0.859061 0.600035 0.368344 0.245471
H44   H     H_    0.695374 0.452887 0.638416 0.151509
H45   H     H_    0.684443 0.411498 0.725875 0.116144
H46   H     H_    0.821651 0.559785 0.680213 0.287806
H47   H     H_    0.811508 0.506715 0.764330 0.215826
H48   H     H_    0.458218 0.247960 0.604195 0.186051
H49   H     H_    0.844008 0.347782 0.714297 0.266150
H50   H     H_    0.930621 0.431103 0.693399 0.278577
H51   H     H_    0.850387 0.397840 0.628250 0.243518
H52   H     H_    0.327111 0.382707 0.826886 0.370074
H53   H     H_    0.327679 0.613316 0.171212 0.369652
H54   H     H_    0.692308 0.392522 0.181356 0.372269
H55   H     H_    0.692910 0.603616 0.820441 0.370146
H56   H     H_    0.437325 0.792757 0.927988 0.167375
H57   H     H_    0.392996 0.704640 0.984037 0.171942
H58   H     H_    0.399290 0.686442 0.823593 0.235321
H59   H     H_    0.417963 0.754585 0.411313 0.200171
H60   H     H_    0.343107 0.609025 0.883412 0.239956
H61   H     H_    0.244549 0.742084 0.919809 0.273105
H62   H     H_    0.237611 0.718430 0.827793 0.271373
H63   H     H_    0.299873 0.819246 0.858690 0.265520
H64   H     H_    0.437536 0.207057 0.073650 0.171550
H65   H     H_    0.391807 0.294768 0.018118 0.168302
H66   H     H_    0.404565 0.314570 0.178262 0.235763
H67   H     H_    0.346275 0.391194 0.119213 0.241415
H68   H     H_    0.245683 0.257674 0.085781 0.270539
H69   H     H_    0.242537 0.282777 0.177731 0.262881
H70   H     H_    0.275273 0.476230 0.637618 0.173326
H71   H     H_    0.302876 0.181432 0.146342 0.271907
H72   H     H_    0.595539 0.791158 0.060511 0.166491
H73   H     H_    0.642885 0.690552 0.018574 0.163433
H74   H     H_    0.623047 0.715823 0.177696 0.234704
H75   H     H_    0.676616 0.618784 0.133813 0.244651
H76   H     H_    0.787485 0.730159 0.083286 0.275331
H77   H     H_    0.786495 0.735518 0.176859 0.266723
H78   H     H_    0.734352 0.828031 0.127506 0.265101
H79   H     H_    0.637069 0.268132 0.953422 0.175565
H80   H     H_    0.646458 0.372020 0.899452 0.147659
H81   H     H_    0.333921 0.567235 0.682897 0.104493
H82   H     H_    0.567605 0.180156 0.854086 0.237901
H83   H     H_    0.573501 0.285191 0.801544 0.221891
H84   H     H_    0.739068 0.285019 0.812449 0.264626
H85   H     H_    0.697326 0.176800 0.774424 0.268545
H86   H     H_    0.732550 0.178447 0.864015 0.274276
H87   H     H_    0.993684 0.636040 0.432055 0.334275
H88   H     H_    0.002978 0.395414 0.399492 0.341423
H89   H     H_    0.001480 0.588251 0.605790 0.332560
H90   H     H_    0.994743 0.349113 0.564881 0.336840
H91   H     H_    0.290596 0.769124 0.534932 0.164763
H92   H     H_    0.191780 0.434831 0.745856 0.242542
H93   H     H_    0.260920 0.668115 0.584686 0.110507
H94   H     H_    0.120285 0.800117 0.520774 0.280250
H95   H     H_    0.106541 0.715398 0.589096 0.239735
H96   H     H_    0.207905 0.812978 0.665350 0.269193
H97   H     H_    0.110627 0.876300 0.637703 0.284124
H98   H     H_    0.215347 0.899506 0.596473 0.262467
H99   H     H_    0.695853 0.238106 0.467280 0.160778
H100  H     H_    0.753716 0.297397 0.535368 0.103920
H101  H     H_    0.838139 0.179451 0.416570 0.247049
H102  H     H_    0.897616 0.235476 0.487209 0.270979
H103  H     H_    0.246869 0.530985 0.790559 0.233387
H104  H     H_    0.814518 0.139844 0.572934 0.279247
H105  H     H_    0.874605 0.067624 0.512179 0.285582
H106  H     H_    0.756292 0.080352 0.502781 0.255336
H107  H     H_    0.715086 0.767175 0.511259 0.142126
H108  H     H_    0.774923 0.696751 0.451446 0.107121
H109  H     H_    0.851895 0.824407 0.568625 0.237524
H110  H     H_    0.918111 0.751232 0.512906 0.288851
H111  H     H_    0.867029 0.834800 0.408957 0.283755
H112  H     H_    0.917273 0.914157 0.470765 0.282000
H113  H     H_    0.798265 0.910946 0.462177 0.264359
H114  H     H_    0.183347 0.646400 0.707821 0.264263
H115  H     H_    0.303125 0.239256 0.455447 0.153411
H116  H     H_    0.264620 0.342031 0.412395 0.111697
H117  H     H_    0.157962 0.164754 0.454586 0.233401
H118  H     H_    0.105803 0.270749 0.423913 0.267814
H119  H     H_    0.190976 0.263537 0.313711 0.268280
H120  H     H_    0.125839 0.158478 0.327047 0.279827
H121  H     H_    0.243707 0.155972 0.342266 0.272921
H122  H     H_    0.637248 0.973473 0.423687 0.119667
H123  H     H_    0.672909 0.082943 0.383266 0.133671
H124  H     H_    0.586290 0.917503 0.303053 0.245454
N1    N     N_R   0.500000 0.252470 0.500000 -0.144678
N2    N     N_R   0.500000 0.747530 0.500000 -0.144576
O1    O     O_R   0.369060 0.579480 0.500010 -0.592532
O2    O     O_3   0.361609 0.577544 0.287872 -0.623872
O3    O     O_3   0.654508 0.444186 0.295119 -0.612600
O4    O     O_3   0.653729 0.556642 0.706019 -0.620235
O5    O     O_3   0.368437 0.417859 0.857529 -0.758218
O6    O     O_3   0.371267 0.581436 0.140956 -0.754558
O7    O     O_3   0.652608 0.425841 0.148764 -0.746744
O8    O     O_3   0.651875 0.571214 0.852534 -0.753912
O9    O     O_3   0.508830 0.670478 0.926960 -0.610778
O10   O     O_3   0.510185 0.329155 0.072520 -0.595521
O11   O     O_3   0.521138 0.671277 0.072637 -0.609705
O12   O     O_R   0.630940 0.420520 0.499990 -0.611673
O13   O     O_3   0.517305 0.328283 0.927857 -0.604529
O14   O     O_3   0.050587 0.655779 0.453016 -0.753467
O15   O     O_3   0.944259 0.369872 0.411629 -0.749821
O16   O     O_3   0.946536 0.619198 0.590234 -0.757917
O17   O     O_3   0.053459 0.332771 0.545881 -0.728189
O18   O     O_3   0.225028 0.668192 0.478483 -0.603889
O19   O     O_3   0.768228 0.350915 0.432938 -0.569942
O20   O     O_3   0.774167 0.652834 0.557016 -0.579727
O21   O     O_3   0.227250 0.325142 0.517440 -0.573935
O22   O     O_3   0.537532 0.056076 0.380114 -0.589702
O23   O     O_R   0.630940 0.579480 0.499990 -0.602162
O24   O     O_3   0.580046 0.944911 0.609094 -0.584417
O25   O     O_3   0.441203 0.061656 0.620674 -0.591243
O26   O     O_3   0.395575 0.937836 0.402619 -0.592711
O27   O     O_R   0.369060 0.420520 0.500010 -0.596688
O28   O     O_R   0.500020 0.579510 0.398180 -0.614060
O29   O     O_R   0.499980 0.420490 0.601820 -0.624245
O30   O     O_R   0.499980 0.579510 0.601820 -0.617916
O31   O     O_R   0.500020 0.420490 0.398180 -0.623412
O32   O     O_3   0.358903 0.423829 0.710752 -0.633582
Zn1   Zn    Zn3+2 0.500000 0.606140 0.500000 0.964232
Zn2   Zn    Zn3+2 0.500000 0.393860 0.500000 0.957867

loop_
_geom_bond_atom_site_label_1
_geom_bond_atom_site_label_2
_ccdc_geom_bond_type
C36   C89   A    
C55   H62   S    
C66   C68   S    
C49   H42   S    
C21   O6    S    
C90   O26   S    
C34   C37   A    
C84   H10   S    
C41   C42   S    
C56   O21   S    
C62   H76   S    
C43   O2    S    
O23   Zn1   S    
C3    C11   A    
C4    C8    A    
C81   C82   S    
C57   C58   S    
C50   H45   S    
C70   H100  S    
C47   H36   S    
C54   H58   S    
H53   O6    S    
C53   C54   S    
C79   H119  S    
C83   O24   S    
C83   C84   S    
C16   C20   A    
C92   H27   S    
C5    C11   A    
C3    C7    A    
C58   H67   S    
C40   H81   S    
C81   H3    S    
C9    H48   S    
O12   Zn2   S    
C71   H101  S    
C81   H124  S    
C72   H104  S    
C20   C25   A    
C73   H108  S    
C73   H107  S    
C88   H21   S    
C61   H74   S    
N2    Zn1   S    
C23   C67   A    
C4    C13   A    
C34   O19   S    
C18   O3    S    
C45   O20   S    
C38   C45   A    
C57   H65   S    
C46   H33   S    
C60   H72   S    
C72   H105  S    
C88   H19   S    
C15   C27   S    
H89   O16   S    
C50   O4    S    
C86   H15   S    
C68   H95   S    
C86   O25   S    
H52   O5    S    
C12   C78   S    
C47   C48   S    
C31   C33   A    
C48   H39   S    
C70   C71   S    
C70   O19   S    
C30   C32   A    
C18   C22   A    
C19   C27   A    
C24   C25   A    
C85   H11   S    
C76   H115  S    
C77   H117  S    
C3    O22   S    
C62   H78   S    
C16   C27   A    
C49   H43   S    
C32   O13   S    
C68   H94   S    
O1    Zn1   S    
C53   H57   S    
C84   H9    S    
C57   O10   S    
C6    O26   S    
C19   O4    S    
C24   O8    S    
C4    O24   S    
H55   O8    S    
C44   C46   S    
C70   H99   S    
C80   H123  S    
O28   Zn1   S    
C77   C79   S    
C73   C74   S    
C79   H120  S    
C7    H1    S    
C57   H64   S    
C52   H51   S    
C82   H4    S    
C74   C75   S    
C82   H6    S    
C47   H38   S    
C60   O11   S    
C32   C35   A    
C30   O10   S    
C46   H35   S    
C59   H71   S    
C84   C85   S    
C58   H66   S    
C69   H97   S    
C91   C92   S    
C14   O31   A    
C75   H111  S    
C86   C87   S    
C68   C69   S    
C71   H102  S    
C54   H60   S    
C74   H110  S    
C58   C59   S    
O29   Zn2   S    
C44   H32   S    
C53   H56   S    
C52   H50   S    
C51   C52   S    
C66   O18   S    
C60   C61   S    
C61   H75   S    
C7    N1    A    
C2    C89   S    
C55   H63   S    
C43   C44   S    
C5    C9    A    
C59   H69   S    
C10   H59   S    
C40   O32   S    
C59   H68   S    
C2    C38   A    
C26   C33   S    
C63   H79   S    
C39   C56   A    
C69   H96   S    
C79   H121  S    
C36   O14   S    
C91   H25   S    
C50   C51   S    
C91   H26   S    
C18   C28   A    
C1    O1    A    
C90   H23   S    
C76   C77   S    
C64   H83   S    
C12   O12   A    
C85   H12   S    
C43   H30   S    
C45   C78   A    
C17   O2    S    
H90   O17   S    
C25   C35   S    
C23   O18   S    
C77   H118  S    
C40   C41   S    
N1    Zn2   S    
O27   Zn2   S    
C15   O29   A    
H88   O15   S    
C23   C36   A    
C83   H8    S    
C76   O21   S    
C65   H84   S    
C22   C26   A    
C82   H5    S    
C87   H18   S    
C29   O9    S    
C64   H82   S    
C85   H14   S    
C10   N2    A    
C63   O13   S    
C9    N1    A    
C55   H61   S    
C62   H77   S    
C49   H41   S    
C54   C55   S    
C48   C49   S    
O31   Zn2   S    
C16   O32   S    
C30   C33   A    
C42   H2    S    
C17   C28   A    
C63   H80   S    
C46   H34   S    
C86   H16   S    
C52   H49   S    
C80   C81   S    
C74   H109  S    
C69   H98   S    
C38   O16   S    
C80   H122  S    
C75   H112  S    
O30   Zn1   S    
C43   H24   S    
C37   O15   S    
C87   H17   S    
H54   O7    S    
C56   C67   A    
C29   C35   A    
C44   H31   S    
C60   H73   S    
C64   C65   S    
C5    O25   S    
C66   H91   S    
C41   H92   S    
C19   C24   A    
C92   H28   S    
C73   O20   S    
C29   C31   A    
C1    O27   A    
C92   H29   S    
C34   C78   A    
C6    C13   A    
C39   O17   S    
C11   C13   S    
C2    C37   A    
C80   O22   S    
C90   C91   S    
C65   H85   S    
C31   O11   S    
C14   O28   A    
C1    C67   S    
C20   O5    S    
C42   H114  S    
C90   H22   S    
C47   O3    S    
C61   C62   S    
C42   H13   S    
C17   C21   A    
C8    N2    A    
C6    C10   A    
C72   H106  S    
C63   C64   S    
C88   H20   S    
C51   H46   S    
C75   H113  S    
C71   C72   S    
C15   O30   A    
C87   C88   S    
C41   H103  S    
C12   O23   A    
C65   H86   S    
C66   H93   S    
C8    H37   S    
C48   H40   S    
C21   C26   A    
C50   H44   S    
C14   C28   S    
H87   O14   S    
C39   C89   A    
C53   O9    S    
C76   H116  S    
C22   O7    S    
C83   H7    S    
C40   H70   S    
C51   H47   S    
