data_mof_unit_28429.cif
_audit_creation_date              2012-12-10T17:53:19-0500
_audit_creation_method            fapswitch 2.2
_symmetry_space_group_name_H-M    P1
_symmetry_Int_Tables_number       1
_space_group_crystal_system       triclinic
_cell_length_a                    23.480201
_cell_length_b                    10.630487
_cell_length_c                    9.907394
_cell_angle_alpha                 89.733047
_cell_angle_beta                  90.384358
_cell_angle_gamma                 94.65212
_cell_volume                      2464.72114933

loop_
_atom_site_label
_atom_site_type_symbol
_atom_type_description
_atom_site_fract_x
_atom_site_fract_y
_atom_site_fract_z
_atom_type_partial_charge
C1    C     C_R   0.511135 0.265240 0.500863 0.891591
C2    C     C_R   0.963590 0.288175 0.477772 -0.151784
C3    C     C_R   0.022525 0.287199 0.479545 0.458201
C4    C     C_R   0.056886 0.401069 0.503011 -0.124519
C5    C     C_R   0.030829 0.512417 0.538254 -0.099218
C6    C     C_R   0.064651 0.625845 0.567197 -0.048992
C7    C     C_R   0.037570 0.737024 0.599636 0.164182
C8    C     C_R   0.977712 0.729487 0.618643 0.171587
C9    C     C_R   0.116310 0.408781 0.488015 0.521809
C10   C     C_R   0.124645 0.622069 0.564987 0.526762
C11   C     C_R   0.236609 0.551790 0.398639 -0.132076
C12   C     C_R   0.389418 0.503350 0.499373 0.875785
C13   C     C_R   0.295722 0.548695 0.387405 0.136808
C14   C     C_R   0.327105 0.508263 0.500382 -0.147214
C15   C     C_R   0.298457 0.474709 0.621050 -0.258969
C16   C     C_R   0.239772 0.477618 0.631474 0.509190
C17   C     C_R   0.208815 0.516244 0.518547 0.155507
C18   C     C_R   0.766102 0.502663 0.398381 -0.130772
C19   C     C_R   0.706955 0.495169 0.386036 0.418027
C20   C     C_R   0.673221 0.495224 0.504249 -0.260678
C21   C     C_R   0.700189 0.495563 0.631601 -0.252242
C22   C     C_R   0.759147 0.497528 0.643679 0.517434
C23   C     C_R   0.500748 0.741872 0.500379 0.899751
C24   C     C_R   0.792241 0.502717 0.525374 0.096579
C25   C     C_R   0.543363 0.129487 0.752698 -0.141422
C26   C     C_R   0.528988 0.068790 0.873820 -0.256221
C27   C     C_R   0.495725 0.953252 0.872549 0.470272
C28   C     C_R   0.483356 0.893829 0.749072 -0.144928
C29   C     C_R   0.506161 0.945903 0.626611 -0.047131
C30   C     C_R   0.527455 0.072031 0.628423 0.047506
C31   C     C_R   0.529532 0.137880 0.505062 -0.214194
C32   C     C_R   0.539903 0.073605 0.385428 0.134672
C33   C     C_R   0.533333 0.942518 0.387029 0.416083
C34   C     C_R   0.610754 0.498672 0.500382 0.885908
C35   C     C_R   0.510093 0.878683 0.503157 -0.254237
C36   C     C_R   0.432578 0.321372 0.152363 -0.158618
C37   C     C_R   0.409844 0.208818 0.101592 0.128515
C38   C     C_R   0.412121 0.190830 0.965581 -0.200929
C39   C     C_R   0.432020 0.288596 0.876000 0.193545
C40   C     C_R   0.466399 0.401913 0.929433 0.130003
C41   C     C_R   0.466402 0.408691 0.075166 0.057006
C42   C     C_R   0.531772 0.588029 0.071088 -0.004712
C43   C     C_R   0.531265 0.588984 0.928327 -0.078615
C44   C     C_R   0.883752 0.615750 0.563872 0.534534
C45   C     C_R   0.878133 0.397445 0.505960 0.543447
C46   C     C_R   0.937447 0.398188 0.507205 -0.094150
C47   C     C_R   0.970775 0.510537 0.540424 -0.055928
C48   C     C_R   0.943888 0.619948 0.575892 -0.063435
H1    H     H_    0.938277 0.200629 0.456311 0.213745
H2    H     H_    0.675508 0.493905 0.723699 0.210353
H3    H     H_    0.566926 0.221307 0.756509 0.177573
H4    H     H_    0.541005 0.115295 0.967597 0.143638
H5    H     H_    0.455044 0.808700 0.752036 0.192030
H6    H     H_    0.558117 0.659771 0.124520 0.177816
H7    H     H_    0.424289 0.335789 0.255158 0.229100
H8    H     H_    0.391751 0.101704 0.928853 0.190109
H9    H     H_    0.556915 0.661826 0.874615 0.158020
H10   H     H_    0.211476 0.581314 0.313763 0.162966
H11   H     H_    0.321641 0.445310 0.709011 0.199458
H12   H     H_    0.792144 0.504969 0.308376 0.188596
N1    N     N_R   0.852923 0.505327 0.532512 -0.353111
N2    N     N_R   0.148234 0.516183 0.523055 -0.359179
N3    N     N_R   0.499460 0.498800 0.142780 -0.124322
N4    N     N_R   0.499440 0.498720 0.857170 -0.120901
O1    O     O_R   0.500000 0.316780 0.614690 -0.626753
O2    O     O_2   0.845592 0.290075 0.477556 -0.542173
O3    O     O_2   0.142537 0.311339 0.436851 -0.516686
O4    O     O_2   0.159723 0.721058 0.606979 -0.553177
O5    O     O_R   0.500000 0.316750 0.385360 -0.638623
O6    O     O_R   0.416160 0.499970 0.614690 -0.624987
O7    O     O_R   0.416150 0.499950 0.385360 -0.635001
O8    O     O_R   0.500000 0.683250 0.614640 -0.626743
O9    O     O_R   0.500000 0.683220 0.385310 -0.575609
O10   O     O_R   0.583850 0.500050 0.614640 -0.628141
O11   O     O_R   0.583840 0.500030 0.385310 -0.612091
O12   O     O_2   0.855959 0.721001 0.578145 -0.533788
Zn1   Zn    Zn3+2 0.500000 0.500020 0.653130 0.943570
Zn2   Zn    Zn3+2 0.500000 0.499980 0.346870 0.947847
O13   O     O_3   0.684164 0.488708 0.257768 -0.729065
H13   H     H_    0.654926 0.416202 0.256570 0.342080
O14   O     O_3   0.782314 0.494137 0.772086 -0.731435
H14   H     H_    0.823992 0.487275 0.766687 0.339494
C49   C     C_3   0.562076 0.142428 0.260130 -0.780829
H15   H     H_    0.591628 0.086447 0.202974 0.260689
H16   H     H_    0.525653 0.162334 0.194002 0.237576
H17   H     H_    0.586975 0.232086 0.286901 0.222587
O15   O     O_3   0.475230 0.895581 0.989400 -0.764587
H18   H     H_    0.487242 0.950223 0.066957 0.364264
O16   O     O_3   0.550346 0.879231 0.275175 -0.761769
H19   H     H_    0.578358 0.820778 0.307691 0.339954
O17   O     O_3   0.044654 0.172651 0.460569 -0.729472
H20   H     H_    0.074069 0.164440 0.531570 0.356970
C50   C     C_3   0.380770 0.108992 0.191426 -0.853213
H21   H     H_    0.382396 0.137494 0.299240 0.231898
H22   H     H_    0.335277 0.091153 0.160713 0.258615
H23   H     H_    0.402131 0.020075 0.182373 0.257052
C51   C     C_3   0.404130 0.249678 0.741544 -0.767022
H24   H     H_    0.407590 0.304936 0.652584 0.269458
H25   H     H_    0.418666 0.157243 0.710052 0.213640
H26   H     H_    0.356985 0.235645 0.755016 0.205004
C52   C     C_3   0.070853 0.865592 0.603370 -0.736530
H27   H     H_    0.095629 0.877112 0.698949 0.262712
H28   H     H_    0.099537 0.877469 0.514798 0.272669
H29   H     H_    0.042866 0.944223 0.594320 0.235697
C53   C     C_3   0.951423 0.833106 0.696102 -0.748296
H30   H     H_    0.917925 0.792151 0.765707 0.263156
H31   H     H_    0.982979 0.885250 0.763445 0.218911
H32   H     H_    0.933361 0.900707 0.625027 0.273205
C54   C     C_3   0.323407 0.591486 0.256145 -0.774280
H33   H     H_    0.341766 0.510897 0.206158 0.253175
H34   H     H_    0.292163 0.628564 0.184539 0.230919
H35   H     H_    0.357294 0.668562 0.275112 0.249908
O18   O     O_3   0.214675 0.441631 0.752901 -0.749042
H36   H     H_    0.172981 0.448745 0.747580 0.338647

loop_
_geom_bond_atom_site_label_1
_geom_bond_atom_site_label_2
_ccdc_geom_bond_type
O15   H18   S    
C50   H21   S    
N4    Zn1   S    
C19   C20   A    
C8    C53   S    
C8    C48   A    
C51   H24   S    
C36   C41   A    
C7    C8    A    
C45   C46   A    
C2    C46   A    
C5    C47   A    
C26   C27   A    
C24   N1    S    
C9    O3    S    
C18   C24   A    
C28   C29   A    
C37   C38   A    
C26   H4    S    
C54   H34   S    
C30   C31   A    
C39   C51   S    
C15   C16   A    
C1    C31   S    
C3    O17   S    
C18   C19   A    
C44   O12   S    
C13   C54   S    
C22   O14   S    
C31   C32   A    
C16   C17   A    
O10   Zn1   S    
C47   C48   A    
C1    O1    A    
O9    Zn2   S    
C11   H10   S    
C34   O11   A    
C20   C34   S    
C50   H22   S    
C21   C22   A    
C16   O18   S    
O6    Zn1   S    
O5    Zn2   S    
C10   N2    A    
C23   O9    A    
C21   H2    S    
C51   H25   S    
C43   N4    A    
O14   H14   S    
C38   C39   A    
C53   H32   S    
O1    Zn1   S    
C9    N2    A    
C52   H27   S    
C54   H35   S    
O17   H20   S    
C25   C26   A    
C1    O5    A    
C19   O13   S    
C25   H3    S    
O8    Zn1   S    
C2    H1    S    
C33   O16   S    
C17   N2    S    
C53   H31   S    
C49   H15   S    
C37   C50   S    
C27   O15   S    
C34   O10   A    
C18   H12   S    
C40   C41   A    
C49   H16   S    
C12   O7    A    
C12   C14   S    
C52   H29   S    
C23   C35   S    
C22   C24   A    
C42   C43   A    
C41   N3    A    
C3    C4    A    
C39   C40   A    
C51   H26   S    
O18   H36   S    
C52   H28   S    
C25   C30   A    
C32   C49   S    
C12   O6    A    
C46   C47   A    
C11   C17   A    
C15   H11   S    
C23   O8    A    
C4    C5    A    
C6    C10   A    
C28   H5    S    
C6    C7    A    
C10   O4    S    
C44   N1    A    
C50   H23   S    
C53   H30   S    
C29   C35   A    
C40   N4    A    
C32   C33   A    
C2    C3    A    
O16   H19   S    
C36   H7    S    
C54   H33   S    
C42   H6    S    
C11   C13   A    
C5    C6    A    
C45   N1    A    
C33   C35   A    
O11   Zn2   S    
C43   H9    S    
C29   C30   A    
O13   H13   S    
C49   H17   S    
C38   H8    S    
C20   C21   A    
C36   C37   A    
C7    C52   S    
C45   O2    S    
C14   C15   A    
C4    C9    A    
C13   C14   A    
C42   N3    A    
O7    Zn2   S    
C44   C48   A    
C27   C28   A    
N3    Zn2   S    
