data_mof_unit_50335.cif
_audit_creation_date              2012-12-10T18:53:43-0500
_audit_creation_method            fapswitch 2.2
_symmetry_space_group_name_H-M    P1
_symmetry_Int_Tables_number       1
_space_group_crystal_system       triclinic
_cell_length_a                    10.78516
_cell_length_b                    9.986035
_cell_length_c                    18.844574
_cell_angle_alpha                 90.462202
_cell_angle_beta                  95.694878
_cell_angle_gamma                 90.895999
_cell_volume                      2019.22078311

loop_
_atom_site_label
_atom_site_type_symbol
_atom_type_description
_atom_site_fract_x
_atom_site_fract_y
_atom_site_fract_z
_atom_type_partial_charge
C1    C     C_R   0.261600 0.499353 0.506590 0.949601
C2    C     C_R   0.739734 0.501848 0.496804 0.918640
C3    C     C_R   0.640630 0.493640 0.936453 0.323707
C4    C     C_R   0.665135 0.491786 0.080733 0.319153
C5    C     C_R   0.508716 0.499448 0.365070 0.913883
C6    C     C_R   0.497236 0.500089 0.635577 0.863982
C7    C     C_R   0.060787 0.379313 0.506334 0.186996
C8    C     C_R   0.941706 0.627089 0.513505 0.153791
C9    C     C_R   0.934780 0.387906 0.482571 0.140952
C10   C     C_R   0.070519 0.621269 0.526760 0.123263
C11   C     C_R   0.873769 0.507530 0.495022 -0.254744
C12   C     C_R   0.129730 0.499284 0.515835 -0.211187
C13   C     C_R   0.583429 0.073180 0.545835 -0.062407
C14   C     C_R   0.416472 0.925576 0.454495 -0.062035
C15   C     C_R   0.421349 0.068876 0.451034 -0.106344
C16   C     C_R   0.575344 0.930409 0.549741 -0.074148
C17   C     C_R   0.590442 0.616961 0.259869 0.159437
C18   C     C_R   0.525092 0.374635 0.751148 0.233296
C19   C     C_R   0.512625 0.619170 0.755760 0.183283
C20   C     C_R   0.561050 0.374454 0.254436 0.158908
C21   C     C_R   0.640254 0.611845 0.194171 -0.225241
C22   C     C_R   0.574623 0.374902 0.822334 -0.245944
C23   C     C_R   0.566719 0.616108 0.826621 -0.175432
C24   C     C_R   0.605630 0.373447 0.187403 -0.215395
C25   C     C_R   0.643588 0.491492 0.156446 0.018054
C26   C     C_R   0.599450 0.495146 0.859747 -0.003638
C27   C     C_R   0.549052 0.497554 0.291409 -0.150353
C28   C     C_R   0.506552 0.498318 0.714945 -0.194190
H1    H     H_    0.669848 0.704405 0.170884 0.159758
H2    H     H_    0.591097 0.279982 0.848775 0.157859
H3    H     H_    0.579490 0.707773 0.857397 0.168353
H4    H     H_    0.606625 0.279130 0.158671 0.167746
N1    N     N_R   0.500000 0.857200 0.500000 -0.161781
N2    N     N_R   0.500000 0.142800 0.500000 -0.152083
N3    N     N_R   0.659018 0.375313 0.042903 -0.181499
N4    N     N_R   0.654563 0.609973 0.974276 -0.182657
N5    N     N_R   0.647172 0.376195 0.972107 -0.176096
N6    N     N_R   0.666409 0.609097 0.045075 -0.178468
O1    O     O_R   0.316770 0.614620 0.500000 -0.596963
O2    O     O_R   0.683230 0.385380 0.500000 -0.604364
O3    O     O_R   0.683230 0.614620 0.500000 -0.541828
O4    O     O_R   0.316770 0.385380 0.500000 -0.559033
O5    O     O_R   0.499990 0.614700 0.398140 -0.549884
O6    O     O_R   0.500010 0.385300 0.601860 -0.527856
O7    O     O_R   0.500010 0.614700 0.601860 -0.615283
O8    O     O_R   0.499990 0.385300 0.398140 -0.570985
Zn1   Zn    Zn3+2 0.500000 0.653120 0.500000 1.017669
Zn2   Zn    Zn3+2 0.500000 0.346880 0.500000 1.015828
N7    N     N_2   0.100930 0.269789 0.550425 -0.323827
H5    H     H_    0.044255 0.249611 0.590201 0.231851
C29   C     C_3   0.143780 0.151078 0.516799 -0.625284
H6    H     H_    0.095360 0.060960 0.535372 0.210574
H7    H     H_    0.244333 0.139783 0.533311 0.247661
H8    H     H_    0.125922 0.155361 0.457901 0.287217
N8    N     N_2   0.881311 0.753052 0.515760 -0.233777
H9    H     H_    0.915234 0.820029 0.555057 0.260286
C30   C     C_3   0.850326 0.814810 0.447233 -0.724884
H10   H     H_    0.932059 0.871113 0.431301 0.219907
H11   H     H_    0.772965 0.885481 0.451326 0.246145
H12   H     H_    0.819622 0.738822 0.405473 0.228205
N9    N     N_2   0.884836 0.303704 0.424800 -0.288337
H13   H     H_    0.822694 0.348167 0.387376 0.216870
C31   C     C_3   0.855509 0.165413 0.438166 -0.736194
H14   H     H_    0.884788 0.102665 0.394199 0.229185
H15   H     H_    0.753703 0.152199 0.440055 0.237031
H16   H     H_    0.903296 0.130768 0.488635 0.289379
N10   N     N_2   0.139739 0.733749 0.557349 -0.275220
H17   H     H_    0.115648 0.823928 0.534448 0.259277
C32   C     C_3   0.145617 0.739422 0.634312 -0.821616
H18   H     H_    0.050875 0.748265 0.652055 0.245075
H19   H     H_    0.201600 0.828537 0.654304 0.240421
H20   H     H_    0.189043 0.647433 0.657573 0.237779
N11   N     N_2   0.579167 0.744176 0.292389 -0.284604
H21   H     H_    0.662979 0.795867 0.300748 0.207995
C33   C     C_3   0.483038 0.824920 0.256051 -0.662669
H22   H     H_    0.510069 0.857824 0.203455 0.201833
H23   H     H_    0.470322 0.914416 0.288864 0.275113
H24   H     H_    0.393220 0.768138 0.248198 0.277187
N12   N     N_2   0.493136 0.249139 0.716914 -0.244198
H25   H     H_    0.541434 0.168531 0.738778 0.253165
C34   C     C_3   0.360586 0.221534 0.704154 -0.740480
H26   H     H_    0.320548 0.205465 0.755585 0.222135
H27   H     H_    0.344542 0.129856 0.670570 0.235548
H28   H     H_    0.311897 0.305375 0.675415 0.240727
N13   N     N_2   0.460465 0.740313 0.726332 -0.260971
H29   H     H_    0.392645 0.725825 0.684724 0.239938
C35   C     C_3   0.428374 0.846419 0.773897 -0.737423
H30   H     H_    0.366427 0.807003 0.812864 0.227100
H31   H     H_    0.378340 0.926011 0.742507 0.231338
H32   H     H_    0.513748 0.893446 0.801793 0.261415
N14   N     N_2   0.523247 0.250536 0.282327 -0.264741
H33   H     H_    0.444535 0.211571 0.253604 0.246455
C36   C     C_3   0.620563 0.152428 0.293796 -0.784737
H34   H     H_    0.622632 0.087997 0.245614 0.224939
H35   H     H_    0.602411 0.088874 0.339722 0.239110
H36   H     H_    0.713434 0.201302 0.305408 0.250054
C37   C     C_2   0.695805 0.138917 0.585860 0.972920
O9    O     O_2   0.795152 0.080700 0.589921 -0.705352
O10   O     O_R   0.690073 0.258842 0.622980 -0.741881
H37   H     H_    0.773466 0.288738 0.648221 0.320991
C38   C     C_2   0.307189 0.853959 0.416449 1.030879
O11   O     O_2   0.320184 0.759788 0.376753 -0.590291
O12   O     O_R   0.187799 0.902771 0.421361 -0.875157
H38   H     H_    0.122204 0.851042 0.389527 0.335476
C39   C     C_2   0.344605 0.133175 0.389909 0.951998
O13   O     O_2   0.303232 0.244631 0.394898 -0.583014
O14   O     O_R   0.314346 0.062468 0.326024 -0.855035
H39   H     H_    0.256139 0.112884 0.290455 0.338451
C40   C     C_2   0.635293 0.866922 0.615502 1.018733
O15   O     O_2   0.627409 0.921528 0.673164 -0.657271
O16   O     O_R   0.706974 0.752888 0.612856 -0.751823
H40   H     H_    0.744034 0.723403 0.661692 0.324099

loop_
_geom_bond_atom_site_label_1
_geom_bond_atom_site_label_2
_ccdc_geom_bond_type
N8    H9    S    
C31   H15   S    
C36   H34   S    
C6    O7    A    
N11   H21   S    
O16   H40   S    
C35   H30   S    
C14   N1    A    
C4    C25   S    
C10   N10   S    
C39   O14   S    
C38   O11   D    
C9    N9    S    
N3    N5    A    
C40   O16   S    
C30   H11   S    
C2    O3    A    
N9    C31   S    
C23   C26   A    
C32   H19   S    
O2    Zn2   S    
C37   O10   S    
C5    C27   S    
C6    C28   S    
C20   C24   A    
C18   N12   S    
N7    C29   S    
O14   H39   S    
C15   N2    A    
N13   C35   S    
C5    O5    A    
C4    N3    A    
C38   O12   S    
C6    O6    A    
C17   N11   S    
N11   C33   S    
N9    H13   S    
C1    C12   S    
C2    C11   S    
C8    N8    S    
C34   H27   S    
C16   C40   S    
C37   O9    D    
O7    Zn1   S    
C7    C12   A    
C20   N14   S    
O8    Zn2   S    
N10   H17   S    
C17   C27   A    
C18   C28   A    
C24   C25   A    
C7    N7    S    
N14   H33   S    
N12   C34   S    
C14   C38   S    
N13   H29   S    
C21   H1    S    
C34   H26   S    
C29   H6    S    
N10   C32   S    
C23   H3    S    
C32   H20   S    
C19   C23   A    
C33   H22   S    
C24   H4    S    
C16   N1    A    
N14   C36   S    
C33   H23   S    
O10   H37   S    
O3    Zn1   S    
O4    Zn2   S    
C19   C28   A    
C9    C11   A    
C10   C12   A    
C4    N6    A    
C36   H36   S    
N8    C30   S    
N1    Zn1   S    
N12   H25   S    
C35   H32   S    
N2    Zn2   S    
C34   H28   S    
O1    Zn1   S    
C5    O8    A    
C7    C9    A    
C21   C25   A    
C22   H2    S    
C18   C22   A    
C3    C26   S    
C19   N13   S    
C20   C27   A    
C39   O13   D    
C29   H8    S    
C15   C39   S    
N4    N6    A    
C13   N2    A    
C40   O15   D    
C30   H10   S    
C36   H35   S    
C3    N4    A    
C8    C11   A    
C13   C37   S    
C32   H18   S    
C33   H24   S    
C17   C21   A    
C31   H16   S    
C1    O1    A    
C31   H14   S    
C2    O2    A    
C1    O4    A    
C30   H12   S    
C3    N5    A    
C8    C10   A    
N7    H5    S    
C22   C26   A    
C13   C16   A    
O12   H38   S    
C35   H31   S    
C14   C15   A    
C29   H7    S    
O5    Zn1   S    
O6    Zn2   S    
