data_mof_unit_45901.cif
_audit_creation_date              2012-12-10T16:50:11-0500
_audit_creation_method            fapswitch 2.2
_symmetry_space_group_name_H-M    P1
_symmetry_Int_Tables_number       1
_space_group_crystal_system       triclinic
_cell_length_a                    23.487695
_cell_length_b                    8.723529
_cell_length_c                    7.423355
_cell_angle_alpha                 102.545572
_cell_angle_beta                  94.105176
_cell_angle_gamma                 92.373441
_cell_volume                      1478.35037817

loop_
_atom_site_label
_atom_site_type_symbol
_atom_type_description
_atom_site_fract_x
_atom_site_fract_y
_atom_site_fract_z
_atom_type_partial_charge
C1    C     C_R   0.497401 0.200311 0.454765 0.874729
C2    C     C_R   0.502588 0.799688 0.545239 0.873144
C3    C     C_R   0.234969 0.532144 0.360063 0.477755
C4    C     C_R   0.755854 0.496633 0.317796 0.490785
C5    C     C_R   0.294616 0.530145 0.356440 -0.278141
C6    C     C_R   0.696517 0.494982 0.324037 -0.169864
C7    C     C_R   0.328663 0.502550 0.508357 -0.061821
C8    C     C_R   0.671538 0.500257 0.491579 -0.134130
C9    C     C_R   0.302696 0.476660 0.664502 -0.188923
C10   C     C_R   0.706727 0.506561 0.654273 -0.147452
C11   C     C_R   0.243463 0.476362 0.667626 -0.167704
C12   C     C_R   0.765784 0.507293 0.649608 -0.101048
C13   C     C_R   0.209689 0.504139 0.516304 0.312973
C14   C     C_R   0.790742 0.502223 0.483065 0.207814
C15   C     C_2   0.488334 0.034936 0.434953 0.092960
C16   C     C_2   0.511640 0.965065 0.565076 0.093672
C17   C     C_R   0.391016 0.500415 0.502688 0.828276
C18   C     C_R   0.609048 0.500115 0.497338 0.833709
C19   C     C_R   0.883376 0.640490 0.545617 0.597477
C20   C     C_R   0.117325 0.364682 0.461676 0.635326
C21   C     C_R   0.876680 0.361877 0.431064 0.589013
C22   C     C_R   0.124002 0.643100 0.577702 0.640271
C23   C     C_R   0.936876 0.357311 0.436581 -0.098720
C24   C     C_R   0.063831 0.647389 0.574243 -0.101628
C25   C     C_R   0.970146 0.501118 0.500768 -0.066279
C26   C     C_R   0.030567 0.503552 0.510170 -0.066177
C27   C     C_R   0.943110 0.642985 0.555621 -0.060896
C28   C     C_R   0.057608 0.361761 0.454702 -0.065488
C29   C     C_R   0.965220 0.216042 0.381643 0.398397
C30   C     C_R   0.035500 0.788516 0.630267 0.397719
C31   C     C_R   0.024732 0.220118 0.391379 -0.126154
C32   C     C_R   0.975990 0.784479 0.620140 -0.125937
Cu1   Cu    Cu3+1 0.506340 0.517380 0.684380 1.047335
Cu2   Cu    Cu3+1 0.493660 0.482620 0.315620 1.045779
H1    H     H_    0.045291 0.110722 0.347946 0.233968
H2    H     H_    0.955433 0.893871 0.663622 0.232924
H3    H     H_    0.314350 0.551309 0.235873 0.168159
H4    H     H_    0.670019 0.490719 0.197200 0.182191
H5    H     H_    0.328058 0.454617 0.782984 0.170597
H6    H     H_    0.688701 0.510538 0.785383 0.198143
H7    H     H_    0.223629 0.454128 0.787327 0.171752
H8    H     H_    0.792475 0.511563 0.775937 0.197034
H9    H     H_    0.455174 0.379510 0.948772 0.237563
H10   H     H_    0.544827 0.620485 0.051226 0.239181
N1    N     N_R   0.851766 0.501737 0.484437 -0.496888
N2    N     N_R   0.148869 0.503703 0.520890 -0.467346
N3    N     N_2   0.484110 0.456420 0.038520 -0.184338
N4    N     N_2   0.515890 0.543580 0.961480 -0.183794
O1    O     O_R   0.504120 0.286130 0.619770 -0.567278
O2    O     O_R   0.495880 0.713870 0.380230 -0.566921
O3    O     O_R   0.493410 0.256770 0.308360 -0.534697
O4    O     O_R   0.506590 0.743230 0.691640 -0.535121
O5    O     O_R   0.423230 0.514630 0.655730 -0.598032
O6    O     O_R   0.576770 0.485370 0.344270 -0.598753
O7    O     O_R   0.412530 0.485280 0.344320 -0.573940
O8    O     O_R   0.587470 0.514720 0.655680 -0.572503
O9    O     O_2   0.856857 0.775664 0.596762 -0.461534
O10   O     O_2   0.143863 0.229865 0.408127 -0.464058
O11   O     O_2   0.842863 0.229018 0.374247 -0.418359
O12   O     O_2   0.157833 0.775842 0.635548 -0.426553
Cl1   Cl    Cl    0.929955 0.028687 0.297057 -0.498870
Cl2   Cl    Cl    0.070767 0.975784 0.715533 -0.495804
O13   O     O_3   0.200453 0.560723 0.213869 -0.694697
H11   H     H_    0.224902 0.582259 0.117707 0.326701
O14   O     O_3   0.777617 0.493502 0.149161 -0.720060
H12   H     H_    0.819888 0.502300 0.165311 0.340763
Cl3   Cl    Cl    0.438651 0.939546 0.248129 -0.562887
Cl4   Cl    Cl    0.561298 0.060454 0.751977 -0.553311

loop_
_geom_bond_atom_site_label_1
_geom_bond_atom_site_label_2
_ccdc_geom_bond_type
C30   C32   A    
C6    H4    S    
C21   O11   S    
C16   Cl4   S    
C5    H3    S    
C25   C27   A    
Cu1   O5    S    
C2    C16   S    
C17   O7    A    
C26   C28   A    
N3    N4    D    
C3    C13   A    
C18   O8    A    
C15   Cl3   S    
C7    C9    A    
Cu2   N3    S    
Cu1   O8    S    
C21   C23   A    
Cu1   Cu2   S    
C27   C32   A    
C17   O5    A    
Cu2   O7    S    
C29   C31   A    
C29   Cl1   S    
C19   O9    S    
Cu1   O4    S    
C4    C14   A    
H10   N4    S    
C9    C11   A    
Cu2   O3    S    
C13   N2    S    
C12   H8    S    
C2    O4    A    
C21   N1    A    
C1    C15   S    
C32   H2    S    
C31   H1    S    
C10   H6    S    
C3    O13   S    
C22   N2    A    
C12   C14   A    
Cu2   O6    S    
C14   N1    S    
C10   C12   A    
C30   Cl2   S    
C22   O12   S    
C4    O14   S    
C22   C24   A    
Cu2   O2    S    
C24   C30   A    
C28   C31   A    
O14   H12   S    
C18   O6    A    
Cu1   O1    S    
C15   C16   D    
C20   C28   A    
C23   C29   A    
C11   C13   A    
C23   C25   A    
C19   C27   A    
C8    C10   A    
C4    C6    A    
C11   H7    S    
C5    C7    A    
Cu1   N4    S    
C6    C8    A    
C1    O3    A    
C2    O2    A    
C3    C5    A    
C25   C26   A    
C20   O10   S    
C9    H5    S    
C8    C18   S    
C19   N1    A    
O13   H11   S    
C24   C26   A    
H9    N3    S    
C7    C17   S    
C20   N2    A    
C1    O1    A    
