data_mof_unit_28908.cif
_audit_creation_date              2012-12-10T17:39:19-0500
_audit_creation_method            fapswitch 2.2
_symmetry_space_group_name_H-M    P1
_symmetry_Int_Tables_number       1
_space_group_crystal_system       triclinic
_cell_length_a                    12.321818
_cell_length_b                    13.136862
_cell_length_c                    27.805224
_cell_angle_alpha                 77.151284
_cell_angle_beta                  101.301937
_cell_angle_gamma                 116.415378
_cell_volume                      3905.62986381

loop_
_atom_site_label
_atom_site_type_symbol
_atom_type_description
_atom_site_fract_x
_atom_site_fract_y
_atom_site_fract_z
_atom_type_partial_charge
C1    C     C_R   0.854567 0.285737 0.503748 0.822405
C2    C     C_R   0.900634 0.504996 0.711530 -0.127328
C3    C     C_R   0.997005 0.498056 0.746211 0.315770
C4    C     C_R   0.991937 0.498231 0.897434 -0.044074
C5    C     C_R   0.942660 0.393753 0.878506 -0.018547
C6    C     C_R   0.893415 0.289935 0.910292 -0.151306
C7    C     C_R   0.040718 0.602664 0.865039 -0.019223
C8    C     C_R   0.998947 0.499633 0.645389 -0.082569
C9    C     C_R   0.000349 0.499309 0.354681 -0.034956
C10   C     C_R   0.953365 0.392187 0.032687 0.041314
C11   C     C_R   0.036069 0.604403 0.017624 0.042200
C12   C     C_R   0.999644 0.499878 0.592441 0.812096
C13   C     C_R   0.995602 0.498306 0.050486 0.067556
C14   C     C_R   0.920107 0.289587 0.067488 -0.204476
C15   C     C_R   0.923839 0.290888 0.117600 -0.146432
C16   C     C_R   0.961234 0.394338 0.135171 -0.020494
C17   C     C_R   0.997417 0.498334 0.101788 -0.044482
C18   C     C_R   0.035383 0.602361 0.119841 -0.019853
C19   C     C_R   0.036141 0.600477 0.170585 0.531405
C20   C     C_R   0.963505 0.396264 0.185659 0.532223
C21   C     C_R   0.084437 0.470504 0.289422 -0.107020
C22   C     C_R   0.084666 0.471069 0.339543 -0.222600
C23   C     C_R   0.145017 0.713990 0.493133 0.815604
C24   C     C_R   0.915929 0.526851 0.318783 -0.221517
C25   C     C_R   0.916107 0.526459 0.268715 -0.105231
C26   C     C_R   0.000303 0.498352 0.253857 0.359357
C27   C     C_R   0.946815 0.392001 0.981082 0.042072
C28   C     C_R   0.992665 0.498268 0.948641 0.066535
C29   C     C_R   0.039509 0.604564 0.966791 0.041588
C30   C     C_R   0.895124 0.288812 0.960494 -0.206196
C31   C     C_R   0.089655 0.706547 0.883483 -0.149307
C32   C     C_R   0.071249 0.707033 0.036938 -0.205480
C33   C     C_R   0.071049 0.705784 0.086988 -0.148753
C34   C     C_R   0.000232 0.499943 0.407567 0.787353
C35   C     C_R   0.089359 0.707749 0.933269 -0.204864
C36   C     C_R   0.266352 0.034127 0.447073 0.163613
C37   C     C_R   0.227299 0.836724 0.484347 -0.084288
C38   C     C_R   0.814642 0.075766 0.525020 0.144353
C39   C     C_R   0.735732 0.958302 0.525640 0.167419
C40   C     C_R   0.612111 0.926930 0.509683 -0.259734
C41   C     C_R   0.564841 0.009980 0.491228 0.062276
C42   C     C_R   0.647822 0.126536 0.481395 0.033256
C43   C     C_R   0.437272 0.979942 0.480980 0.064740
C44   C     C_R   0.393992 0.063822 0.455617 0.137268
C45   C     C_R   0.943779 0.395646 0.827925 0.518070
C46   C     C_R   0.479454 0.173739 0.438337 -0.238136
C47   C     C_R   0.603517 0.203590 0.450094 -0.172556
C48   C     C_R   0.351864 0.868957 0.496855 -0.259332
C49   C     C_R   0.184543 0.919551 0.460583 -0.234107
C50   C     C_R   0.772065 0.161480 0.502424 -0.158092
C51   C     C_R   0.351250 0.332814 0.583370 0.019794
C52   C     C_R   0.755618 0.640514 0.430836 0.054576
C53   C     C_R   0.656090 0.667867 0.414686 -0.273375
C54   C     C_R   0.554389 0.615011 0.440930 -0.188620
C55   C     C_R   0.549930 0.531846 0.483413 0.022115
C56   C     C_R   0.040662 0.600653 0.814772 0.521323
C57   C     C_R   0.653547 0.505396 0.497830 0.289654
C58   C     C_R   0.446903 0.473469 0.511832 -0.079983
C59   C     C_R   0.449765 0.389540 0.553846 0.112827
C60   C     C_R   0.551398 0.363727 0.565627 -0.279568
C61   C     C_R   0.649849 0.420249 0.538630 -0.200773
C62   C     C_R   0.340725 0.494619 0.500180 -0.059876
C63   C     C_R   0.249880 0.360370 0.569649 0.334053
C64   C     C_R   0.096491 0.491954 0.730940 0.184326
C65   C     C_R   0.096072 0.493095 0.680146 -0.200137
C66   C     C_R   0.901401 0.505805 0.661503 -0.232127
Cu1   Cu    Cu3+1 0.098270 0.475420 0.511360 0.958815
Cu2   Cu    Cu3+1 0.901730 0.524580 0.488640 0.915298
H1    H     H_    0.825342 0.510818 0.635516 0.164677
H2    H     H_    0.129089 0.787994 0.859454 0.185865
H3    H     H_    0.097569 0.790344 0.014256 0.140061
H4    H     H_    0.849886 0.548927 0.329304 0.156974
H5    H     H_    0.099033 0.786839 0.099818 0.185798
H6    H     H_    0.850630 0.547763 0.241388 0.140702
H7    H     H_    0.131519 0.791617 0.944364 0.140443
H8    H     H_    0.087232 0.894615 0.452177 0.150817
H9    H     H_    0.452175 0.238389 0.415531 0.156635
H10   H     H_    0.824776 0.509741 0.723550 0.141695
H11   H     H_    0.380189 0.805172 0.519485 0.159034
H12   H     H_    0.555021 0.836273 0.510430 0.142183
H13   H     H_    0.663317 0.287005 0.432684 0.180778
H14   H     H_    0.557765 0.298725 0.596066 0.170452
H15   H     H_    0.331196 0.556311 0.468897 0.141910
H16   H     H_    0.834477 0.682697 0.410451 0.133912
H17   H     H_    0.853278 0.208473 0.896505 0.185793
H18   H     H_    0.480776 0.640560 0.426966 0.138854
H19   H     H_    0.658390 0.731279 0.382033 0.154978
H20   H     H_    0.721329 0.393097 0.551308 0.210789
H21   H     H_    0.150676 0.449318 0.366351 0.155198
H22   H     H_    0.149915 0.448889 0.278140 0.139424
H23   H     H_    0.897154 0.209855 0.142616 0.186641
H24   H     H_    0.892775 0.206290 0.057509 0.140753
H25   H     H_    0.852929 0.205035 0.981967 0.140405
H26   H     H_    0.171286 0.489853 0.667132 0.164351
N1    N     N_R   0.993450 0.498096 0.797440 -0.470051
N2    N     N_R   0.000365 0.498370 0.202281 -0.467390
N3    N     N_R   0.246290 0.438210 0.528570 -0.184277
N4    N     N_R   0.754320 0.561170 0.471730 -0.209965
O1    O     O_R   0.972510 0.318140 0.514280 -0.509920
O2    O     O_2   0.928029 0.296864 0.217818 -0.544428
O3    O     O_2   0.087922 0.700194 0.783467 -0.546868
O4    O     O_2   0.073089 0.699915 0.188208 -0.542760
O5    O     O_R   0.806530 0.359640 0.495100 -0.617647
O6    O     O_R   0.082990 0.479270 0.579320 -0.556817
O7    O     O_R   0.917010 0.520770 0.560140 -0.605607
O8    O     O_R   0.193470 0.640360 0.504900 -0.587597
O9    O     O_R   0.027490 0.681860 0.485720 -0.589117
O10   O     O_R   0.082990 0.479230 0.439860 -0.589674
O11   O     O_R   0.917010 0.520730 0.420680 -0.596381
O12   O     O_2   0.896453 0.296077 0.809348 -0.546238
C67   C     C_3   0.199931 0.484839 0.769732 -0.380767
C68   C     C_3   0.303898 0.477731 0.750329 -0.861752
H27   H     H_    0.269265 0.399587 0.732528 0.247606
H28   H     H_    0.349102 0.555932 0.723533 0.254290
H29   H     H_    0.373038 0.472223 0.781849 0.254033
H30   H     H_    0.239563 0.561722 0.788729 0.218079
H31   H     H_    0.161695 0.407602 0.798002 0.221146
C69   C     C_3   0.213916 0.121195 0.424091 -0.432024
C70   C     C_3   0.233845 0.201230 0.460500 -0.796984
H32   H     H_    0.189592 0.150579 0.494509 0.248873
H33   H     H_    0.332397 0.251047 0.471188 0.257928
H34   H     H_    0.193011 0.262723 0.443004 0.246308
H35   H     H_    0.253625 0.171435 0.389175 0.200181
H36   H     H_    0.114032 0.077052 0.413480 0.206170
N5    N     N_3   0.936481 0.108397 0.549167 -0.571334
H37   H     H_    0.932715 0.070010 0.586361 0.204044
H38   H     H_    0.984696 0.080946 0.532073 0.221539
C71   C     C_3   0.779889 0.864005 0.544810 -0.412762
C72   C     C_3   0.841038 0.849384 0.505693 -0.803812
H39   H     H_    0.781375 0.841238 0.469996 0.261418
H40   H     H_    0.929856 0.923435 0.499485 0.233212
H41   H     H_    0.857589 0.770625 0.518189 0.259164
H42   H     H_    0.843251 0.880898 0.579396 0.199911
H43   H     H_    0.701877 0.780324 0.554738 0.203063
N6    N     N_3   0.149640 0.308387 0.598826 -0.508107
H44   H     H_    0.119769 0.219426 0.604377 0.212615
H45   H     H_    0.180349 0.336193 0.633410 0.180520
C73   C     C_3   0.352066 0.242351 0.628617 -0.435768
C74   C     C_3   0.313213 0.125346 0.613089 -0.800822
H46   H     H_    0.373725 0.130393 0.587025 0.258214
H47   H     H_    0.317447 0.061890 0.646416 0.252346
H48   H     H_    0.218121 0.094447 0.594680 0.240577
H49   H     H_    0.442639 0.269490 0.650894 0.206416
H50   H     H_    0.290824 0.231686 0.655451 0.196247

loop_
_geom_bond_atom_site_label_1
_geom_bond_atom_site_label_2
_ccdc_geom_bond_type
C10   C27   A    
C58   C62   A    
C56   N1    A    
C21   C26   A    
C8    C66   A    
C11   C13   A    
C41   C42   A    
C67   C68   S    
Cu2   O5    S    
C62   H15   S    
C71   C72   S    
C1    O1    A    
C68   H28   S    
N6    H44   S    
C53   C54   A    
C35   H7    S    
C6    H17   S    
C48   H11   S    
C28   C29   A    
C56   O3    S    
C12   O6    A    
C30   H25   S    
C73   H49   S    
C5    C6    A    
C74   H48   S    
C9    C22   A    
C66   H1    S    
C15   C16   A    
C25   H6    S    
C52   H16   S    
C69   C70   S    
C54   C55   A    
C60   H14   S    
C31   H2    S    
C16   C17   A    
C40   H12   S    
C67   H30   S    
Cu2   O9    S    
C8    C12   S    
C36   C69   S    
C43   C48   A    
C1    O5    A    
Cu1   O1    S    
Cu2   O11   S    
C72   H41   S    
N5    H37   S    
C20   N2    A    
C59   C60   A    
C21   C22   A    
C27   C30   A    
C41   C43   A    
C7    C56   A    
C4    C7    A    
C68   H27   S    
C4    C28   A    
C44   C46   A    
Cu1   O6    S    
C32   H3    S    
C21   H22   S    
C70   H33   S    
C26   N2    S    
C38   C39   A    
C7    C31   A    
Cu1   Cu2   S    
C51   C63   A    
C24   C25   A    
C10   C14   A    
C39   C40   A    
C54   H18   S    
C45   O12   S    
C18   C19   A    
C64   C67   S    
C58   C59   A    
C23   C37   S    
C23   O8    A    
C5    C45   A    
C9    C24   A    
C60   C61   A    
C63   N6    S    
C43   C44   A    
C36   C49   A    
C2    H10   S    
C61   H20   S    
C71   H43   S    
C62   N3    A    
C37   C49   A    
C20   O2    S    
C16   C20   A    
C23   O9    A    
C17   C18   A    
C49   H8    S    
C53   H19   S    
C69   H36   S    
C37   C48   A    
C69   H35   S    
C14   H24   S    
C42   C50   A    
C33   H5    S    
C65   H26   S    
C6    C30   A    
C11   C32   A    
C55   C57   A    
C9    C34   S    
C31   C35   A    
C36   C44   A    
C51   C59   A    
Cu2   O7    S    
C45   N1    A    
C38   N5    S    
C52   C53   A    
C24   H4    S    
C72   H39   S    
C1    C50   S    
C70   H34   S    
N6    H45   S    
C46   C47   A    
C40   C41   A    
C39   C71   S    
C4    C5    A    
C2    C66   A    
C10   C13   A    
C46   H9    S    
C74   H46   S    
Cu1   O8    S    
C57   C61   A    
C38   C50   A    
C29   C35   A    
C13   C17   A    
C67   H31   S    
C34   O10   A    
C32   C33   A    
C2    C3    A    
C25   C26   A    
C63   N3    A    
C73   H50   S    
C71   H42   S    
C64   C65   A    
C74   H47   S    
C12   O7    A    
C57   N4    A    
C52   N4    A    
C19   O4    S    
C22   H21   S    
C42   C47   A    
C47   H13   S    
C3    C64   A    
Cu1   O10   S    
C18   C33   A    
Cu2   N4    S    
C73   C74   S    
Cu1   N3    S    
C15   H23   S    
C51   C73   S    
C8    C65   A    
C11   C29   A    
C70   H32   S    
C55   C58   A    
C27   C28   A    
N5    H38   S    
C34   O11   A    
C14   C15   A    
C3    N1    S    
C68   H29   S    
C19   N2    A    
C72   H40   S    
