data_mof_unit_29914.cif
_audit_creation_date              2012-12-10T18:27:22-0500
_audit_creation_method            fapswitch 2.2
_symmetry_space_group_name_H-M    P1
_symmetry_Int_Tables_number       1
_space_group_crystal_system       triclinic
_cell_length_a                    14.951718
_cell_length_b                    14.167582
_cell_length_c                    27.59062
_cell_angle_alpha                 90.007106
_cell_angle_beta                  88.175388
_cell_angle_gamma                 89.867111
_cell_volume                      5841.53336528

loop_
_atom_site_label
_atom_site_type_symbol
_atom_type_description
_atom_site_fract_x
_atom_site_fract_y
_atom_site_fract_z
_atom_type_partial_charge
C1    C     C_R   0.326553 0.500059 0.501092 0.892191
C2    C     C_R   0.673252 0.499801 0.501711 0.935884
C3    C     C_R   0.439072 0.508647 0.103871 -0.114705
C4    C     C_R   0.454195 0.504193 0.898816 -0.112680
C5    C     C_R   0.431136 0.422676 0.129857 -0.145167
C6    C     C_R   0.443550 0.589286 0.872572 -0.143226
C7    C     C_R   0.417350 0.337753 0.104586 0.563158
C8    C     C_R   0.426214 0.674359 0.897705 0.556687
C9    C     C_R   0.449101 0.595014 0.129156 -0.091456
C10   C     C_R   0.472313 0.418376 0.873727 -0.091426
C11   C     C_R   0.487910 0.500488 0.354365 -0.295024
C12   C     C_R   0.491764 0.500444 0.646097 -0.264566
C13   C     C_R   0.450970 0.419594 0.976312 0.054627
C14   C     C_R   0.440106 0.593692 0.026493 0.055423
C15   C     C_R   0.435911 0.591959 0.975209 -0.016002
C16   C     C_R   0.437671 0.420646 0.027399 -0.018951
C17   C     C_R   0.447041 0.505207 0.950181 0.085735
C18   C     C_R   0.438401 0.507782 0.052515 0.083289
C19   C     C_R   0.468754 0.335282 0.950729 -0.195848
C20   C     C_R   0.447020 0.678907 0.052421 -0.196348
C21   C     C_R   0.477234 0.332844 0.900260 -0.002702
C22   C     C_R   0.449387 0.681149 0.102948 -0.003630
C23   C     C_R   0.499692 0.500047 0.406318 1.022124
C24   C     C_R   0.499101 0.500061 0.593653 0.961299
C25   C     C_R   0.422947 0.337181 0.054192 -0.309178
C26   C     C_R   0.420651 0.674361 0.948143 -0.317179
C27   C     C_R   0.813255 0.583702 0.515607 -0.195778
C28   C     C_R   0.185042 0.414168 0.509259 -0.265254
C29   C     C_R   0.768553 0.498912 0.508613 -0.066711
C30   C     C_R   0.230302 0.499950 0.506418 -0.074685
C31   C     C_R   0.814157 0.412807 0.510014 -0.240614
C32   C     C_R   0.184146 0.585478 0.510551 -0.265050
C33   C     C_R   0.906400 0.410369 0.515565 0.007416
C34   C     C_R   0.091549 0.586790 0.517718 0.021211
C35   C     C_R   0.952377 0.497707 0.518167 0.067281
C36   C     C_R   0.045538 0.499259 0.517367 0.072960
C37   C     C_R   0.905142 0.583950 0.519462 0.056393
C38   C     C_R   0.092833 0.413200 0.514009 0.082147
C39   C     C_R   0.954485 0.323942 0.515971 -0.014632
C40   C     C_R   0.043376 0.672709 0.523059 -0.039585
C41   C     C_R   0.047844 0.326985 0.514606 -0.192264
C42   C     C_R   0.950025 0.669796 0.523309 -0.158895
C43   C     C_R   0.555843 0.797676 0.468309 0.038865
C44   C     C_R   0.447074 0.201553 0.532886 -0.005148
C45   C     C_R   0.444482 0.798043 0.531887 0.083103
C46   C     C_R   0.552803 0.201943 0.466723 0.040401
C47   C     C_R   0.436884 0.424488 0.180472 0.543001
C48   C     C_R   0.449764 0.586342 0.821735 0.549146
C49   C     C_R   0.440684 0.899042 0.531726 -0.132318
C50   C     C_R   0.556542 0.100978 0.466745 -0.156481
C51   C     C_R   0.555036 0.898469 0.466244 -0.131379
C52   C     C_R   0.440535 0.101155 0.530779 -0.113283
C53   C     C_R   0.498310 0.949267 0.499069 -0.060138
C54   C     C_R   0.498776 0.050425 0.498995 -0.051446
C55   C     C_R   0.379467 0.951327 0.561924 0.380974
C56   C     C_R   0.614587 0.048895 0.434939 0.367434
C57   C     C_R   0.608241 0.950140 0.431971 0.430447
C58   C     C_R   0.375134 0.050367 0.558301 0.431862
C59   C     C_R   0.462435 0.590708 0.179495 0.502615
C60   C     C_R   0.487422 0.422662 0.823076 0.498067
C61   C     C_R   0.393896 0.537217 0.286355 -0.093005
C62   C     C_R   0.407324 0.462618 0.720405 -0.089121
C63   C     C_R   0.405754 0.532301 0.336672 0.422528
C64   C     C_R   0.414117 0.463998 0.669395 0.467942
C65   C     C_R   0.556914 0.467585 0.323106 0.416146
C66   C     C_R   0.560702 0.539676 0.672823 0.458830
C67   C     C_R   0.544035 0.471970 0.272943 -0.197034
C68   C     C_R   0.552008 0.542153 0.723131 -0.165711
C69   C     C_R   0.463628 0.505524 0.254925 0.109206
C70   C     C_R   0.476818 0.503110 0.746838 0.084066
H1    H     H_    0.777347 0.348395 0.505075 0.190747
H2    H     H_    0.220907 0.650501 0.506605 0.149955
H3    H     H_    0.085999 0.261767 0.513612 0.175445
H4    H     H_    0.911827 0.734882 0.526025 0.203337
H5    H     H_    0.596383 0.451109 0.247157 0.161443
H6    H     H_    0.604384 0.573536 0.744023 0.174783
H7    H     H_    0.477191 0.269304 0.969501 0.186347
H8    H     H_    0.452079 0.745748 0.033918 0.180771
H9    H     H_    0.412796 0.269866 0.037020 0.167956
H10   H     H_    0.401394 0.740220 0.965083 0.168120
H11   H     H_    0.776963 0.649962 0.516917 0.212090
H12   H     H_    0.221291 0.347849 0.506666 0.150860
N1    N     N_R   0.453690 0.507112 0.203619 -0.337165
N2    N     N_R   0.471797 0.504276 0.798606 -0.337623
N3    N     N_R   0.500000 0.750030 0.500000 -0.185590
N4    N     N_R   0.500000 0.249970 0.500000 -0.186640
O1    O     O_R   0.367850 0.580280 0.500010 -0.645887
O2    O     O_R   0.632150 0.419720 0.499990 -0.595222
O3    O     O_R   0.632150 0.580280 0.499990 -0.620604
O4    O     O_R   0.367850 0.419720 0.500010 -0.673360
O5    O     O_R   0.500010 0.580260 0.428760 -0.635168
O6    O     O_R   0.499990 0.419740 0.571240 -0.634319
O7    O     O_R   0.499990 0.580260 0.571240 -0.578078
O8    O     O_R   0.500010 0.419740 0.428760 -0.646270
O9    O     O_2   0.427465 0.344515 0.206700 -0.511244
O10   O     O_2   0.434300 0.664398 0.795220 -0.494514
O11   O     O_2   0.519111 0.347303 0.798052 -0.562025
O12   O     O_2   0.486897 0.667916 0.204339 -0.570684
Zn1   Zn    Zn3+2 0.500000 0.607200 0.500000 0.987682
Zn2   Zn    Zn3+2 0.500000 0.392800 0.500000 0.952922
O13   O     O_3   0.637385 0.440068 0.343187 -0.597278
C71   C     C_3   0.680896 0.367331 0.316501 -0.223640
H13   H     H_    0.719090 0.396920 0.284863 0.164288
H14   H     H_    0.633483 0.311670 0.305041 0.154916
H15   H     H_    0.730106 0.332954 0.340062 0.220247
O14   O     O_3   0.634427 0.580427 0.649760 -0.574795
C72   C     C_3   0.702087 0.511384 0.644458 -0.289523
H16   H     H_    0.680276 0.451416 0.621614 0.151194
H17   H     H_    0.723528 0.485276 0.680338 0.174049
H18   H     H_    0.761218 0.543859 0.625818 0.199468
C73   C     C_2   0.909908 0.230044 0.518235 0.400949
H19   H     H_    0.840998 0.222899 0.530947 0.058988
O15   O     O_2   0.950740 0.158286 0.506706 -0.559446
C74   C     C_2   0.087929 0.765708 0.529285 0.433049
H20   H     H_    0.156336 0.770305 0.540838 0.063121
O16   O     O_2   0.047614 0.839370 0.522484 -0.533608
C75   C     C_2   0.620846 0.742517 0.438748 0.611514
H21   H     H_    0.599967 0.705049 0.406902 0.060220
O17   O     O_2   0.699893 0.743056 0.448461 -0.558514
C76   C     C_2   0.402201 0.254502 0.572698 0.628221
H22   H     H_    0.356062 0.310917 0.565280 0.095043
O18   O     O_2   0.416809 0.234683 0.614793 -0.501627
C77   C     C_2   0.391708 0.742551 0.567480 0.593702
H23   H     H_    0.328867 0.711504 0.557669 0.010091
O19   O     O_2   0.417180 0.733902 0.608843 -0.576698
C78   C     C_2   0.600368 0.256502 0.428717 0.626945
H24   H     H_    0.570533 0.264954 0.393663 0.045764
O20   O     O_2   0.674732 0.288145 0.435327 -0.584528
O21   O     O_3   0.315750 0.905869 0.591017 -0.632875
C79   C     C_3   0.334735 0.920625 0.640323 -0.113649
H25   H     H_    0.312394 0.991623 0.652706 0.211540
H26   H     H_    0.407021 0.910503 0.647661 0.169846
H27   H     H_    0.296755 0.868062 0.662474 0.187733
O22   O     O_3   0.676190 0.093554 0.404357 -0.628234
C80   C     C_3   0.760895 0.089002 0.425458 -0.108883
H28   H     H_    0.786488 0.015287 0.426393 0.201564
H29   H     H_    0.759210 0.119799 0.462628 0.153020
H30   H     H_    0.808879 0.131106 0.402934 0.189597
O23   O     O_3   0.657210 0.905324 0.395303 -0.583277
C81   C     C_3   0.605555 0.903951 0.353394 -0.241039
H31   H     H_    0.593108 0.976609 0.339813 0.191635
H32   H     H_    0.540968 0.866399 0.360070 0.132636
H33   H     H_    0.643355 0.865070 0.324450 0.210942
O24   O     O_3   0.303761 0.096357 0.581175 -0.589596
C82   C     C_3   0.234365 0.105225 0.548005 -0.237626
H34   H     H_    0.177054 0.141785 0.566396 0.207691
H35   H     H_    0.255576 0.148723 0.516080 0.111723
H36   H     H_    0.210466 0.034883 0.536007 0.208640
O25   O     O_3   0.405415 0.252899 0.128691 -0.547741
C83   C     C_3   0.313328 0.231314 0.130309 -0.203037
H37   H     H_    0.288295 0.218245 0.093362 0.136732
H38   H     H_    0.273380 0.288121 0.148723 0.151503
H39   H     H_    0.303158 0.165630 0.151635 0.204482
O26   O     O_3   0.409479 0.757515 0.873237 -0.562194
C84   C     C_3   0.485821 0.815617 0.875066 -0.171988
H40   H     H_    0.546540 0.779072 0.859890 0.157031
H41   H     H_    0.497238 0.840084 0.912670 0.145776
H42   H     H_    0.474616 0.879123 0.852524 0.209231
O27   O     O_3   0.345609 0.428814 0.642110 -0.559953
C85   C     C_3   0.285225 0.502812 0.632806 -0.239887
H43   H     H_    0.258557 0.535976 0.666894 0.173516
H44   H     H_    0.227494 0.473242 0.613683 0.195728
H45   H     H_    0.316807 0.557188 0.608884 0.141394
O28   O     O_3   0.337876 0.560002 0.368943 -0.553603
C86   C     C_3   0.282222 0.481471 0.378698 -0.216032
H46   H     H_    0.318555 0.425487 0.398404 0.133975
H47   H     H_    0.254318 0.451796 0.345030 0.161858
H48   H     H_    0.224775 0.504833 0.402144 0.201084
C87   C     C_2   0.327917 0.421293 0.746491 0.507118
H49   H     H_    0.315643 0.435437 0.784762 0.031272
O29   O     O_2   0.275769 0.369876 0.725950 -0.495561
C88   C     C_2   0.309569 0.574219 0.266079 0.487220
H50   H     H_    0.294892 0.562174 0.228336 0.031679
O30   O     O_2   0.255985 0.619904 0.290847 -0.508089
C89   C     C_2   0.483719 0.238234 0.877039 0.486508
H51   H     H_    0.450728 0.224159 0.843389 0.117795
O31   O     O_2   0.523903 0.173776 0.896193 -0.560791
C90   C     C_2   0.445287 0.775381 0.126691 0.487097
H52   H     H_    0.409271 0.785039 0.161055 0.112300
O32   O     O_2   0.480036 0.844208 0.107292 -0.551826

loop_
_geom_bond_atom_site_label_1
_geom_bond_atom_site_label_2
_ccdc_geom_bond_type
C1    O1    A    
C80   H30   S    
C66   C68   A    
C86   H46   S    
C27   C29   A    
C8    C26   A    
C87   H49   S    
C14   C18   A    
C79   H26   S    
C73   H19   S    
C81   H33   S    
C65   O13   S    
C22   C90   S    
C90   H52   S    
O25   C83   S    
C80   H28   S    
C39   C41   A    
C53   C54   A    
C45   C77   S    
C56   O22   S    
C5    C47   A    
C57   O23   S    
C33   C39   A    
C6    C48   A    
O3    Zn1   S    
C2    C29   S    
C34   C40   A    
O28   C86   S    
C35   C37   A    
C59   N1    A    
C11   C63   A    
C75   O17   D    
C12   C64   A    
C9    C22   A    
C77   O19   D    
C84   H41   S    
O14   C72   S    
C44   C76   S    
C47   O9    S    
C56   C57   A    
C62   C70   A    
C71   H15   S    
C61   C63   A    
C11   C23   S    
C37   C42   A    
C19   H7    S    
C62   C64   A    
C7    O25   S    
C40   C74   S    
C35   C36   A    
C88   O30   D    
C21   C89   S    
C83   H39   S    
C72   H16   S    
C31   C33   A    
C69   N1    S    
C2    O2    A    
C51   C57   A    
C47   N1    A    
N4    Zn2   S    
O7    Zn1   S    
C68   C70   A    
C44   C52   A    
C40   C42   A    
C86   H47   S    
C8    O26   S    
C84   H42   S    
C72   H17   S    
C66   O14   S    
C44   N4    A    
C24   O6    A    
O4    Zn2   S    
C3    C18   A    
C82   H35   S    
C76   O18   D    
C82   H34   S    
O1    Zn1   S    
C10   C21   A    
C63   O28   S    
C42   H4    S    
C13   C19   A    
C28   H12   S    
C43   N3    A    
O13   C71   S    
C14   C20   A    
C77   H23   S    
C81   H31   S    
C38   C41   A    
C89   O31   D    
C60   O11   S    
C5    C7    A    
C15   C26   A    
C6    C8    A    
C65   C67   A    
C49   C55   A    
C12   C66   A    
C50   C56   A    
C48   N2    A    
C9    C59   A    
C32   C34   A    
C2    O3    A    
C10   C60   A    
C85   H45   S    
N3    Zn1   S    
C83   H38   S    
O8    Zn2   S    
C90   O32   D    
O27   C85   S    
C14   C15   A    
C27   H11   S    
C45   C49   A    
C52   C54   A    
C73   O15   D    
C61   C88   S    
C50   C54   A    
C71   H14   S    
C3    C9    A    
O26   C84   S    
O2    Zn2   S    
C52   C58   A    
C43   C75   S    
C4    C17   A    
C4    C6    A    
C20   C22   A    
C86   H48   S    
C72   H18   S    
C23   O5    A    
C13   C16   A    
C79   H27   S    
C67   H5    S    
C4    C10   A    
C1    O4    A    
C82   H36   S    
C70   N2    S    
C88   H50   S    
O6    Zn2   S    
O21   C79   S    
C87   O29   D    
C61   C69   A    
C16   C25   A    
C80   H29   S    
C62   C87   S    
C46   C50   A    
C78   O20   D    
C48   O10   S    
C19   C21   A    
C25   H9    S    
C46   C78   S    
C81   H32   S    
O24   C82   S    
C3    C5    A    
C74   O16   D    
O23   C81   S    
C74   H20   S    
O22   C80   S    
C20   H8    S    
C68   H6    S    
C12   C24   S    
C75   H21   S    
C7    C25   A    
C23   O8    A    
C13   C17   A    
C45   N3    A    
O5    Zn1   S    
C85   H43   S    
C36   C38   A    
C79   H25   S    
C29   C31   A    
C89   H51   S    
C24   O7    A    
C30   C32   A    
C39   C73   S    
C60   N2    A    
C43   C51   A    
C27   C37   A    
C78   H24   S    
C49   C53   A    
C64   O27   S    
C28   C30   A    
C1    C30   S    
C33   C35   A    
C34   C36   A    
C71   H13   S    
C26   H10   S    
C51   C53   A    
C41   H3    S    
C58   O24   S    
C32   H2    S    
C16   C18   A    
C55   C58   A    
C84   H40   S    
C59   O12   S    
C55   O21   S    
C76   H22   S    
C67   C69   A    
C28   C38   A    
C15   C17   A    
C31   H1    S    
C11   C65   A    
C85   H44   S    
C83   H37   S    
C46   N4    A    
