data_mof_unit_11199.cif
_audit_creation_date              2012-12-10T20:46:48-0500
_audit_creation_method            fapswitch 2.2
_symmetry_space_group_name_H-M    P1
_symmetry_Int_Tables_number       1
_space_group_crystal_system       triclinic
_cell_length_a                    12.900847
_cell_length_b                    8.936001
_cell_length_c                    8.111194
_cell_angle_alpha                 89.993615
_cell_angle_beta                  97.172149
_cell_angle_gamma                 89.993229
_cell_volume                      927.758020715

loop_
_atom_site_label
_atom_site_type_symbol
_atom_type_description
_atom_site_fract_x
_atom_site_fract_y
_atom_site_fract_z
_atom_type_partial_charge
C1    C     C_R   0.499989 0.218002 0.500003 0.937477
C2    C     C_R   0.500011 0.781998 0.499997 0.937477
C3    C     C_R   0.297675 0.500677 0.467658 0.910280
C4    C     C_R   0.702325 0.499323 0.532342 0.910280
C5    C     C_R   0.814197 0.501582 0.552409 -0.136807
C6    C     C_R   0.185803 0.498418 0.447590 -0.136808
C7    C     C_R   0.021483 0.434819 0.286966 0.459885
C8    C     C_R   0.978517 0.565182 0.713034 0.459885
C9    C     C_R   0.129794 0.448569 0.299322 -0.281167
C10   C     C_R   0.870206 0.551431 0.700678 -0.281167
C11   C     C_R   0.135688 0.539456 0.582824 -0.215232
C12   C     C_R   0.864312 0.460545 0.417176 -0.215232
C13   C     C_R   0.028708 0.526622 0.574527 0.048636
C14   C     C_R   0.971292 0.473378 0.425472 0.048636
C15   C     C_1   0.499996 0.065188 0.500007 -0.181037
C16   C     C_1   0.500004 0.934812 0.499993 -0.181037
N1    N     N_1   0.500020 0.500000 0.073640 -0.029329
N2    N     N_1   0.499980 0.500000 0.926360 -0.029330
O1    O     O_R   0.499990 0.285340 0.636850 -0.612965
O2    O     O_R   0.500010 0.714660 0.363150 -0.612965
O3    O     O_R   0.500010 0.285340 0.363150 -0.616765
O4    O     O_R   0.499990 0.714660 0.636850 -0.616765
O5    O     O_R   0.346350 0.500000 0.614250 -0.627000
O6    O     O_R   0.653650 0.500000 0.385750 -0.627000
O7    O     O_R   0.346360 0.500000 0.340500 -0.619970
O8    O     O_R   0.653640 0.500000 0.659500 -0.619970
Zn1   Zn    Zn3+2 0.499990 0.500000 0.682780 1.000913
Zn2   Zn    Zn3+2 0.500010 0.500000 0.317220 1.000913
H1    H     H_    0.819199 0.420047 0.304247 0.223153
H2    H     H_    0.180801 0.579954 0.695753 0.223153
H3    H     H_    0.829622 0.583179 0.804547 0.175376
H4    H     H_    0.170378 0.416821 0.195453 0.175376
O9    O     O_3   0.963895 0.382657 0.143170 -0.786808
H5    H     H_    0.011808 0.358813 0.060246 0.351361
O10   O     O_3   0.036105 0.617344 0.856830 -0.786808
H6    H     H_    0.988192 0.641187 0.939754 0.351361

loop_
_geom_bond_atom_site_label_1
_geom_bond_atom_site_label_2
_ccdc_geom_bond_type
C2    O4    A    
C4    O8    A    
C1    O3    A    
C8    C13   A    
C1    C15   S    
O5    Zn1   S    
C12   H1    S    
C2    C16   S    
C3    O5    A    
O10   H6    S    
C3    C6    S    
C6    C9    A    
N1    N2    T    
C5    C10   A    
C13   C14   A    
O7    Zn2   S    
C7    O9    S    
O8    Zn1   S    
O3    Zn2   S    
C12   C14   A    
O9    H5    S    
O4    Zn1   S    
C4    O6    A    
C1    O1    A    
C11   C13   A    
C2    O2    A    
C15   C16   T    
C3    O7    A    
O1    Zn1   S    
C5    C12   A    
C8    C10   A    
C6    C11   A    
C7    C9    A    
O2    Zn2   S    
C9    H4    S    
N1    Zn2   S    
C10   H3    S    
C7    C14   A    
N2    Zn1   S    
O6    Zn2   S    
C11   H2    S    
C4    C5    S    
C8    O10   S    
