data_mof_unit_38539.cif
_audit_creation_date              2012-10-26T19:02:33-0400
_audit_creation_method            fapswitch 2.2
_symmetry_space_group_name_H-M    P1
_symmetry_Int_Tables_number       1
_space_group_crystal_system       triclinic
_cell_length_a                    17.186716
_cell_length_b                    8.683296
_cell_length_c                    7.491642
_cell_angle_alpha                 103.28598
_cell_angle_beta                  90.980912
_cell_angle_gamma                 93.738876
_cell_volume                      1085.19934579

loop_
_atom_site_label
_atom_site_type_symbol
_atom_type_description
_atom_site_fract_x
_atom_site_fract_y
_atom_site_fract_z
_atom_type_partial_charge
C1    C     C_R   0.497489 0.199702 0.453375 0.546492
C2    C     C_R   0.771155 0.415560 0.593602 -0.141989
C3    C     C_R   0.143760 0.553342 0.398872 -0.132241
C4    C     C_R   0.850431 0.396051 0.582518 -0.176753
C5    C     C_R   0.106217 0.543985 0.560586 0.114237
C6    C     C_R   0.891545 0.435774 0.438333 0.031742
C7    C     C_R   0.149564 0.529856 0.715596 0.405583
C8    C     C_R   0.852402 0.486898 0.299018 0.379607
C9    C     C_R   0.229975 0.518138 0.705504 -0.099726
C10   C     C_R   0.772386 0.503738 0.308376 -0.092242
C11   C     C_2   0.021178 0.543953 0.563907 0.171995
C12   C     C_R   0.502529 0.800300 0.546623 0.546570
C13   C     C_2   0.976535 0.433005 0.440795 0.119571
C14   C     C_2   0.496135 0.031430 0.427581 -0.149660
C15   C     C_2   0.503914 0.968577 0.572414 -0.150536
C16   C     C_R   0.351127 0.505688 0.525330 0.551048
C17   C     C_R   0.648666 0.493128 0.474496 0.544540
C18   C     C_R   0.267123 0.520629 0.540625 -0.049610
C19   C     C_R   0.731873 0.471630 0.458102 -0.043039
C20   C     C_R   0.223505 0.540555 0.388365 -0.143019
Cu1   Cu    Cu3+1 0.508700 0.517250 0.683000 0.998905
Cu2   Cu    Cu3+1 0.491300 0.482750 0.317000 1.000196
F1    F     F_    0.113781 0.521762 0.873676 -0.627263
F2    F     F_    0.891996 0.525884 0.158557 -0.644634
H1    H     H_    0.250831 0.546113 0.260540 0.162534
H2    H     H_    0.995050 0.315048 0.180496 0.293492
H3    H     H_    0.955048 0.615417 0.786814 0.284364
H4    H     H_    0.951580 0.728309 0.629206 0.231688
H5    H     H_    0.432991 0.238582 0.952852 0.217270
H6    H     H_    0.368620 0.378742 0.988529 0.218188
H7    H     H_    0.566893 0.761470 0.047418 0.215923
H8    H     H_    0.631341 0.621480 0.011166 0.218316
H9    H     H_    0.740596 0.386703 0.708282 0.154911
H10   H     H_    0.742696 0.545817 0.202054 0.138904
H11   H     H_    0.262731 0.504625 0.825061 0.141132
H12   H     H_    0.880278 0.354287 0.689017 0.164509
H13   H     H_    0.110923 0.567803 0.279725 0.206768
H14   H     H_    0.488628 0.959010 0.288437 0.130389
H15   H     H_    0.511422 0.040998 0.711558 0.129492
H16   H     H_    0.988108 0.200205 0.334038 0.241774
N1    N     N_2   0.478180 0.456750 0.041980 -0.025844
N2    N     N_2   0.521820 0.543250 0.958020 -0.025169
N3    N     N_3   0.011451 0.308760 0.313464 -0.610446
N4    N     N_3   0.988049 0.666929 0.697160 -0.568201
N5    N     N_3   0.422869 0.351171 0.934020 -0.444911
N6    N     N_3   0.577123 0.648845 0.065970 -0.447268
O1    O     O_R   0.505650 0.286040 0.618880 -0.481449
O2    O     O_R   0.494350 0.713960 0.381120 -0.480270
O3    O     O_R   0.490960 0.256910 0.309800 -0.512395
O4    O     O_R   0.509040 0.743090 0.690200 -0.512694
O5    O     O_R   0.394600 0.516230 0.672450 -0.483540
O6    O     O_R   0.605400 0.483770 0.327550 -0.483653
O7    O     O_R   0.379910 0.487100 0.363380 -0.516768
O8    O     O_R   0.620090 0.512900 0.636620 -0.516818

loop_
_geom_bond_atom_site_label_1
_geom_bond_atom_site_label_2
_ccdc_geom_bond_type
C2    C4    A    
C12   C15   S    
C14   H14   S    
N1    N2    D    
H6    N5    S    
C12   O4    A    
C16   O5    A    
C13   N3    S    
C10   C19   A    
C12   O2    A    
H16   N3    S    
Cu2   O2    S    
C4    H12   S    
C11   N4    S    
C10   H10   S    
Cu1   Cu2   S    
C6    C13   S    
C11   C13   D    
C15   H15   S    
C1    O3    A    
Cu2   O3    S    
C7    F1    S    
H3    N4    S    
C2    H9    S    
Cu2   O6    S    
Cu1   O4    S    
C8    F2    S    
H2    N3    S    
C5    C11   S    
Cu2   O7    S    
C18   C20   A    
Cu1   O5    S    
Cu1   O8    S    
C9    H11   S    
Cu2   N1    S    
C20   H1    S    
Cu1   N2    S    
C7    C9    A    
C9    C18   A    
C3    C20   A    
C17   O6    A    
C16   C18   S    
C4    C6    A    
N2    N6    S    
C5    C7    A    
Cu1   O1    S    
N1    N5    S    
C14   C15   D    
C1    O1    A    
C6    C8    A    
C1    C14   S    
C17   C19   S    
C2    C19   A    
C16   O7    A    
H8    N6    S    
C17   O8    A    
H4    N4    S    
C8    C10   A    
C3    H13   S    
H5    N5    S    
C3    C5    A    
H7    N6    S    
