data_mof_unit_51787.cif
_audit_creation_date              2013-03-05T16:00:51-0500
_audit_creation_method            fapswitch 2.2
_symmetry_space_group_name_H-M    P1
_symmetry_Int_Tables_number       1
_space_group_crystal_system       triclinic
_cell_length_a                    8.248518
_cell_length_b                    12.804274
_cell_length_c                    18.738162
_cell_angle_alpha                 99.693283
_cell_angle_beta                  90.268317
_cell_angle_gamma                 99.210799
_cell_volume                      1924.62913446

loop_
_atom_site_label
_atom_site_type_symbol
_atom_site_description
_atom_site_fract_x
_atom_site_fract_y
_atom_site_fract_z
_atom_type_partial_charge
P1    P     P_3+3 0.041040 0.394770 0.336330 0.489611
O1    O     O_2   0.873090 0.425890 0.325140 -0.352353
O2    O     O_3   0.122420 0.434370 0.414380 -0.379225
O3    O     O_3   0.659500 0.627100 0.368810 -0.380600
O4    O     O_2   0.781605 0.544854 0.244442 -0.373820
O5    O     O_3   0.998941 0.253897 0.317591 -0.583531
O6    O     O_3   0.704100 0.732687 0.247727 -0.521141
H1    H     H_    0.706344 0.835064 0.345364 0.131664
C1    C     C_3   0.634971 0.907509 0.256824 -1.040454
H2    H     H_    0.600126 0.975281 0.295614 0.248163
H3    H     H_    0.758848 0.931906 0.236424 0.277076
P2    P     P_3+3 0.672880 0.754030 0.556100 0.450047
P3    P     P_3+3 0.130779 0.824174 0.404726 0.456325
O7    O     O_2   0.848200 0.768190 0.534530 -0.379208
O8    O     O_3   0.081160 0.685950 0.404810 -0.359117
O9    O     O_2   0.018469 0.878763 0.459501 -0.377977
O10   O     O_3   0.685679 0.794552 0.650259 -0.572578
O11   O     O_3   0.061914 0.849266 0.321919 -0.497126
C2    C     C_3   0.178059 0.827091 0.269536 0.310376
H4    H     H_    0.207281 0.744608 0.267623 0.069000
H5    H     H_    0.291061 0.887989 0.281875 0.054388
C3    C     C_3   0.105880 0.834750 0.195792 -0.527119
H6    H     H_    0.998229 0.770254 0.181003 0.231749
H7    H     H_    0.065086 0.913840 0.198258 0.193090
C4    C     C_3   0.232591 0.783885 0.616301 0.393474
H8    H     H_    0.345645 0.755464 0.595740 0.086222
H9    H     H_    0.131982 0.757245 0.574674 0.140476
C5    C     C_3   0.262326 0.905778 0.632223 -0.923364
H10   H     H_    0.367878 0.934457 0.671096 0.254963
H11   H     H_    0.290137 0.938564 0.581909 0.238986
H12   H     H_    0.151340 0.935369 0.655660 0.282781
Ba1   Ba    Ba6+2 0.852780 0.548340 0.465070 1.553232
C6    C     C_3   0.975385 0.210657 0.381232 0.402004
H13   H     H_    0.847634 0.212975 0.397287 0.107073
H14   H     H_    0.062424 0.252314 0.425913 0.172979
C7    C     C_3   0.002243 0.094707 0.366337 -0.937239
H15   H     H_    0.914305 0.048216 0.323602 0.263806
H16   H     H_    0.983151 0.059282 0.416274 0.258158
H17   H     H_    0.129170 0.090203 0.348087 0.257912
C8    C     C_3   0.729877 0.712817 0.683369 0.454848
H18   H     H_    0.852260 0.696342 0.665369 0.089255
H19   H     H_    0.636874 0.638738 0.670783 0.124532
C9    C     C_3   0.738613 0.750285 0.765016 -1.009354
H20   H     H_    0.832832 0.823446 0.779309 0.270202
H21   H     H_    0.771820 0.686839 0.793202 0.223367
H22   H     H_    0.617363 0.768941 0.783916 0.262961
P4    P     P_3+3 0.148670 0.605320 0.663680 0.460823
O12   O     O_2   0.316610 0.574140 0.674900 -0.367350
O13   O     O_3   0.067290 0.565720 0.585630 -0.385470
O14   O     O_3   0.530210 0.372990 0.631200 -0.394341
O15   O     O_3   0.191766 0.745807 0.680633 -0.570590
P5    P     P_3+3 0.066018 0.175482 0.598078 0.445994
O16   O     O_3   0.611340 0.366290 0.463630 -0.356143
O17   O     O_3   0.108550 0.314140 0.595200 -0.377145
O18   O     O_2   0.196508 0.122148 0.552983 -0.376792
O19   O     O_3   0.103537 0.155148 0.686299 -0.524086
Ba2   Ba    Ba6+2 0.337060 0.451750 0.534940 1.562449
P6    P     P_3+3 0.644615 0.607750 0.273888 0.456377
C10   C     C_3   0.633104 0.810191 0.293589 0.517237
H23   H     H_    0.503354 0.780247 0.305006 -0.025780
H24   H     H_    0.546766 0.887408 0.209886 0.260281
O20   O     O_3   0.578370 0.633800 0.536380 -0.408017
C11   C     C_3   0.458490 0.265176 0.313834 0.358447
H25   H     H_    0.346367 0.290997 0.338819 0.082438
H26   H     H_    0.558056 0.335720 0.317676 0.107575
C12   C     C_3   0.415491 0.219030 0.234164 -0.662518
H27   H     H_    0.310512 0.151856 0.230108 0.208484
H28   H     H_    0.379029 0.282000 0.206298 0.156587
P7    P     P_3+3 0.523067 0.229958 0.441640 0.428613
O21   O     O_2   0.341510 0.231850 0.465510 -0.382683
O22   O     O_3   0.509904 0.186034 0.347890 -0.589221
C13   C     C_3   0.060453 0.241269 0.735364 0.490584
H29   H     H_    0.146320 0.316451 0.732244 0.149746
H30   H     H_    0.932958 0.253185 0.724581 -0.002289
C14   C     C_3   0.071556 0.217331 0.811847 -0.961811
H31   H     H_    0.037568 0.284586 0.851284 0.223028
H32   H     H_    0.986176 0.142531 0.816603 0.254844
H33   H     H_    0.198906 0.207065 0.825022 0.286159
P8    P     P_3+3 0.546876 0.390409 0.725805 0.431961
C15   C     C_3   0.551716 0.185932 0.707555 0.492880
H34   H     H_    0.669072 0.217328 0.684336 -0.003838
O23   O     O_2   0.417067 0.458764 0.756466 -0.392022
O24   O     O_3   0.479200 0.265525 0.751069 -0.527037
H35   H     H_    0.464784 0.144933 0.662250 0.130064
H36   H     H_    0.676286 0.144914 0.798353 0.264787
C16   C     C_3   0.588224 0.104598 0.753338 -1.034868
H37   H     H_    0.643363 0.040263 0.719503 0.245903
H38   H     H_    0.473280 0.068404 0.776512 0.276859
C17   C     C_R   0.992853 0.447283 0.048368 0.040521
C18   C     C_R   0.899038 0.390560 0.096852 -0.195206
C19   C     C_R   0.765932 0.410917 0.954726 -0.206208
C20   C     C_R   0.930515 0.452877 0.977890 0.048874
C21   C     C_R   0.708250 0.412559 0.885068 -0.153057
C22   C     C_R   0.811060 0.456488 0.834756 -0.016475
C23   C     C_R   0.974205 0.505455 0.857326 -0.001397
C24   C     C_R   0.034121 0.504065 0.929183 0.033068
C25   C     C_R   0.755355 0.454200 0.762713 0.172600
C26   C     C_R   0.862034 0.499377 0.714571 -0.533961
C27   C     C_R   0.021818 0.548938 0.735032 0.239305
C28   C     C_R   0.077190 0.556188 0.808152 -0.039198
C29   C     C_R   0.156318 0.496308 0.070579 0.037063
C30   C     C_R   0.216918 0.493995 0.142176 0.013319
C31   C     C_R   0.113288 0.444335 0.191674 -0.025870
C32   C     C_R   0.958549 0.388447 0.166138 -0.059497
H39   H     H_    0.817503 0.500222 0.660429 0.171616
H40   H     H_    0.580885 0.379382 0.871601 0.184923
H41   H     H_    0.880735 0.341594 0.199260 0.160124
C33   C     C_R   0.230613 0.614050 0.834199 -0.050446
C34   C     C_R   0.289943 0.612031 0.903617 -0.188548
C35   C     C_R   0.197138 0.553706 0.951581 0.042251
C36   C     C_R   0.260202 0.546788 0.021668 0.052470
C37   C     C_R   0.425970 0.586227 0.044049 -0.190049
C38   C     C_R   0.381499 0.540500 0.164066 -0.020086
C39   C     C_R   0.484451 0.583682 0.113495 -0.152083
C40   C     C_R   0.439228 0.539197 0.235272 0.164213
C41   C     C_R   0.334326 0.490740 0.282495 -0.526978
C42   C     C_R   0.170245 0.448807 0.264230 0.241020
H42   H     H_    0.307881 0.661767 0.801281 0.160140
H43   H     H_    0.612840 0.614472 0.126416 0.180139
H44   H     H_    0.384214 0.481756 0.333731 0.159629
H45   H     H_    0.676230 0.377289 0.989664 0.133974
H46   H     H_    0.778773 0.344649 0.082622 0.121650
H47   H     H_    0.409075 0.659282 0.918581 0.124091
H48   H     H_    0.515687 0.618319 0.008478 0.133938
C43   C     C_R   0.760158 0.182655 0.533767 -0.506830
C44   C     C_R   0.441314 0.808300 0.462370 -0.396172
C45   C     C_R   0.407939 0.984647 0.444122 -0.220991
C46   C     C_R   0.347250 0.875916 0.436110 0.111347
C47   C     C_R   0.583578 0.848474 0.506170 0.244253
C48   C     C_R   0.645987 0.960495 0.515240 -0.062685
C49   C     C_R   0.557754 0.028558 0.482337 -0.025890
C50   C     C_R   0.617282 0.139919 0.491318 0.203964
C51   C     C_R   0.855602 0.116176 0.560483 0.124715
C52   C     C_R   0.795448 0.006432 0.554072 -0.164600
H49   H     H_    0.332640 0.034054 0.422503 0.189314
H50   H     H_    0.868467 0.958634 0.578720 0.191677
C53   C     C_1   0.555769 0.178969 0.197349 0.251376
N1    N     N_1   0.666004 0.146923 0.168369 -0.094425
C54   C     C_1   0.227298 0.823845 0.139291 0.088843
N2    N     N_1   0.322657 0.815869 0.094440 -0.070615
C55   C     C_2   0.808249 0.298373 0.554813 0.784985
H51   H     H_    0.799803 0.332510 0.610581 -0.080780
O25   O     O_2   0.882909 0.352008 0.514015 -0.538698
C56   C     C_1   0.385867 0.696210 0.447364 0.223383
N3    N     N_1   0.341027 0.605253 0.436448 0.007326

loop_
_geom_bond_atom_site_label_1
_geom_bond_atom_site_label_2
_geom_bond_distance
_ccdc_geom_bond_type
C12   H28   1.109557 S    
C11   H26   1.111582 S    
C21   C22   1.399167 A    
C23   C24   1.436030 A    
C15   H35   1.110928 S    
O16   P7    1.759327 S    
O14   P8    1.750983 S    
C37   C39   1.393031 A    
C25   C26   1.393879 A    
O13   Ba2   2.928459 S    
O12   Ba2   2.840257 S    
P4    O13   1.574407 S    
C48   C52   1.417957 A    
H36   C16   1.110491 S    
C33   C34   1.393408 A    
C4    C5    1.518245 S    
C29   C30   1.436122 A    
C26   H39   1.079710 S    
O4    P6    1.541874 D    
C1    H24   1.107710 S    
C5    H10   1.106843 S    
C2    H5    1.111252 S    
C45   H49   1.076950 S    
C47   C48   1.425468 A    
P7    O21   1.567680 D    
C55   O25   1.217018 D    
H1    C10   1.111970 S    
C15   H34   1.107343 S    
C16   H38   1.110499 S    
P4    Ba2   3.393616 S    
C40   C41   1.391704 A    
C20   C24   1.422086 A    
C6    C7    1.515757 S    
P4    C27   1.870802 S    
C41   C42   1.392244 A    
O1    Ba1   2.839926 S    
P1    O1    1.524480 D    
C44   C56   1.414530 S    
P7    O22   1.749298 S    
C35   C36   1.432029 A    
C15   C16   1.519900 S    
P3    C46   1.858295 S    
C8    C9    1.522081 S    
C2    H4    1.115189 S    
C43   C55   1.456664 S    
O19   C13   1.405231 S    
P2    O10   1.750945 S    
Ba2   O21   2.902041 S    
C1    H2    1.110564 S    
O6    P6    1.747917 S    
C39   H43   1.080446 S    
P5    O18   1.545450 D    
C8    H19   1.110791 S    
C12   H27   1.111004 S    
C11   C12   1.527911 S    
C10   H23   1.112026 S    
P2    Ba1   3.436567 S    
P5    C51   1.863269 S    
C18   H46   1.076483 S    
C31   C42   1.425333 A    
Ba1   Ba2   4.612844 S    
C15   O24   1.407525 S    
O6    C10   1.403508 S    
C14   H33   1.111025 S    
P5    O17   1.763832 S    
C7    H17   1.110157 S    
C28   C33   1.400331 A    
P2    C47   1.881496 S    
C30   C31   1.423820 A    
P4    O12   1.524832 D    
C33   H42   1.079767 S    
Ba2   O20   2.808776 S    
C2    C3    1.526482 S    
C13   H30   1.108970 S    
C19   C20   1.415098 A    
O16   Ba2   2.903413 S    
C16   H37   1.110936 S    
C13   H29   1.110327 S    
C52   H50   1.077608 S    
C44   C47   1.403845 A    
C4    H8    1.102393 S    
C24   C35   1.421087 A    
C3    C54   1.465736 S    
P1    Ba1   3.393022 S    
P1    O5    1.755722 S    
P1    O2    1.574407 S    
O10   C8    1.397060 S    
C14   H31   1.109597 S    
C4    O15   1.397651 S    
C21   H40   1.079994 S    
C19   C21   1.391829 A    
P2    O20   1.592403 S    
C27   C28   1.425564 A    
C6    H13   1.100807 S    
C22   C23   1.420629 A    
P1    C42   1.879374 S    
C17   C20   1.432080 A    
C14   H32   1.111136 S    
C18   C32   1.391889 A    
O3    Ba1   2.812913 S    
P3    O11   1.746865 S    
C8    H18   1.106664 S    
C11   O22   1.402420 S    
C1    H3    1.108812 S    
C9    H20   1.110758 S    
P6    C40   1.860847 S    
C3    H7    1.111019 S    
C29   C36   1.421820 A    
C49   C50   1.413106 A    
O2    Ba2   2.820388 S    
Ba1   O16   2.809395 S    
C38   C39   1.399463 A    
C43   C51   1.396186 A    
C7    H15   1.103431 S    
C44   C46   1.395935 A    
C36   C37   1.415192 A    
C17   C29   1.421655 A    
C23   C28   1.422981 A    
O14   Ba2   2.812249 S    
P8    C25   1.857853 S    
C5    H12   1.110534 S    
C34   H47   1.077147 S    
O7    Ba1   2.901809 S    
C56   N3    1.147261 T    
O8    Ba1   2.748750 S    
P8    O23   1.542400 D    
P4    O15   1.750684 S    
C54   N2    1.156909 T    
C37   H48   1.077160 S    
C4    H9    1.107778 S    
C53   N1    1.157180 T    
C22   C25   1.418057 A    
O5    C6    1.398728 S    
P3    O8    1.751850 S    
C48   C49   1.431472 A    
P2    O7    1.494570 D    
Ba1   O20   2.904316 S    
C5    H11   1.105513 S    
C9    H21   1.108284 S    
C30   C38   1.421101 A    
C34   C35   1.414540 A    
P8    O24   1.750522 S    
C43   C50   1.399715 A    
C13   C14   1.520495 S    
C51   C52   1.398064 A    
C12   C53   1.468397 S    
P5    O19   1.749920 S    
P7    C50   1.855016 S    
C7    H16   1.107948 S    
C6    H14   1.105577 S    
O2    Ba1   2.927557 S    
C9    H22   1.110881 S    
C45   C49   1.410561 A    
Ba1   O13   2.819733 S    
C11   H25   1.110703 S    
C41   H44   1.073749 S    
C26   C27   1.390093 A    
C19   H45   1.076535 S    
P3    O9    1.541052 D    
O3    P6    1.754963 S    
C31   C32   1.398836 A    
O11   C2    1.401390 S    
C3    H6    1.110462 S    
C1    C10   1.520062 S    
C17   C18   1.414418 A    
C55   H51   1.069815 S    
C32   H41   1.078386 S    
C45   C46   1.384626 A    
C38   C40   1.418240 A    
O17   Ba2   2.749379 S    
