data_mof_unit_39483.cif
_audit_creation_date              2012-12-11T14:06:39-0500
_audit_creation_method            fapswitch 2.2
_symmetry_space_group_name_H-M    P1
_symmetry_Int_Tables_number       1
_space_group_crystal_system       triclinic
_cell_length_a                    6.924207
_cell_length_b                    17.314785
_cell_length_c                    24.120557
_cell_angle_alpha                 104.596922
_cell_angle_beta                  90.536943
_cell_angle_gamma                 89.887618
_cell_volume                      2798.37752087

loop_
_atom_site_label
_atom_site_type_symbol
_atom_type_description
_atom_site_fract_x
_atom_site_fract_y
_atom_site_fract_z
_atom_type_partial_charge
O1    O     O_R   0.494290 0.391990 0.999150 -0.535608
O2    O     O_R   0.827170 0.534410 0.082350 -0.544517
O3    O     O_R   0.994360 0.608010 0.000850 -0.512641
C1    C     C_R   0.659042 0.550296 0.106053 0.733244
O4    O     O_R   0.824210 0.388010 0.004470 -0.551484
O5    O     O_R   0.991370 0.460560 0.922410 -0.536933
C2    C     C_R   0.654584 0.354841 0.001424 0.795168
O6    O     O_R   0.497270 0.539440 0.077590 -0.544739
O7    O     O_3   0.659770 0.523970 0.973170 -0.344222
V1    V     V_3+5 0.935840 0.495550 0.004980 1.495992
O8    O     O_R   0.320910 0.465590 0.917650 -0.520609
C3    C     C_R   0.151679 0.448469 0.894057 0.773889
O9    O     O_R   0.323870 0.611990 0.995530 -0.530181
C4    C     C_R   0.153547 0.645371 0.999474 0.815734
V2    V     V_3+5 0.435470 0.504450 0.995020 1.537484
O10   O     O_3   0.161670 0.476030 0.026830 -0.391637
C5    C     C_2   0.136968 0.729895 0.997951 -0.369745
H1    H     H_    0.265981 0.757316 0.986070 0.153316
C6    C     C_2   0.970489 0.772979 0.008590 0.081765
C7    C     C_R   0.003206 0.252292 0.626410 0.599604
N1    N     N_R   0.072038 0.327863 0.648889 -0.557334
C8    C     C_R   0.124225 0.375904 0.614181 0.698068
C9    C     C_R   0.107177 0.348622 0.553631 -0.101229
C10   C     C_R   0.043888 0.269203 0.530130 -0.050709
C11   C     C_R   0.990952 0.220945 0.566750 -0.023594
C12   C     C_R   0.151441 0.396691 0.515494 0.273142
C13   C     C_R   0.141300 0.364379 0.456141 -0.148929
C14   C     C_R   0.083815 0.285129 0.432788 -0.086220
C15   C     C_R   0.032721 0.237654 0.469819 -0.017377
C16   C     C_R   0.970563 0.158461 0.446560 -0.026855
C17   C     C_R   0.918783 0.111351 0.483707 -0.098452
C18   C     C_R   0.927993 0.142282 0.542995 -0.131231
C19   C     C_R   0.073800 0.252377 0.373004 0.706828
N2    N     N_R   0.012182 0.175384 0.351017 -0.544001
C20   C     C_R   0.960981 0.128404 0.386553 0.670539
O11   O     O_2   0.947898 0.207382 0.661780 -0.495286
O12   O     O_2   0.194817 0.449092 0.638635 -0.441169
H2    H     H_    0.176926 0.402283 0.428168 0.207105
O13   O     O_2   0.125099 0.297169 0.337157 -0.473844
O14   O     O_2   0.900204 0.052957 0.363930 -0.477381
H3    H     H_    0.871200 0.050294 0.467127 0.195438
H4    H     H_    0.886770 0.104018 0.570176 0.181306
C21   C     C_R   0.143061 0.091373 0.260431 0.207555
C22   C     C_R   0.131812 0.061665 0.200536 -0.236958
H5    H     H_    0.244166 0.022206 0.178661 0.147592
C23   C     C_R   0.975243 0.081305 0.169223 -0.112116
C24   C     C_R   0.830121 0.131755 0.198705 -0.233976
H6    H     H_    0.708581 0.147904 0.175343 0.159473
C25   C     C_R   0.842932 0.163614 0.258160 0.254754
C26   C     C_R   0.999518 0.143497 0.289558 0.337950
C27   C     C_R   0.955558 0.409070 0.742181 0.341181
C28   C     C_R   0.977386 0.437798 0.801508 -0.229101
H7    H     H_    0.868264 0.477533 0.824952 0.187480
C29   C     C_R   0.138323 0.416918 0.830627 -0.220538
C30   C     C_R   0.278934 0.364977 0.798687 0.286489
C31   C     C_R   0.256053 0.335122 0.738901 0.175673
C32   C     C_R   0.093754 0.357155 0.710370 0.211694
C33   C     C_R   0.534639 0.879349 0.613204 0.591124
N3    N     N_R   0.536605 0.827838 0.648089 -0.558200
C34   C     C_R   0.567910 0.747804 0.625699 0.618384
C35   C     C_R   0.594134 0.716864 0.566272 -0.056718
C36   C     C_R   0.580517 0.768314 0.529570 -0.017986
C37   C     C_R   0.549874 0.850261 0.553285 -0.066047
C38   C     C_R   0.632882 0.635765 0.543006 -0.107398
C39   C     C_R   0.654461 0.604790 0.483825 0.219460
C40   C     C_R   0.634060 0.655490 0.446122 -0.021410
C41   C     C_R   0.597880 0.737919 0.469310 -0.108187
C42   C     C_R   0.578124 0.789975 0.432531 -0.088464
C43   C     C_R   0.544141 0.872598 0.457390 0.307142
C44   C     C_R   0.533567 0.901446 0.516871 -0.188252
C45   C     C_R   0.647358 0.626578 0.385922 0.624802
N4    N     N_R   0.625661 0.677085 0.350896 -0.585889
C46   C     C_R   0.592881 0.756972 0.372606 0.629956
O15   O     O_2   0.519166 0.958607 0.636370 -0.512133
O16   O     O_2   0.572418 0.698091 0.660704 -0.484316
H8    H     H_    0.647246 0.595542 0.570713 0.210612
O17   O     O_2   0.679173 0.548410 0.362141 -0.464431
O18   O     O_2   0.576162 0.803715 0.335868 -0.464781
H9    H     H_    0.508516 0.964627 0.534544 0.190398
C47   C     C_R   0.465873 0.637520 0.256026 -0.072908
H10   H     H_    0.328240 0.655753 0.276093 0.119081
C48   C     C_R   0.473629 0.606251 0.196620 -0.176498
H11   H     H_    0.340623 0.601431 0.172012 0.128926
C49   C     C_R   0.650876 0.582138 0.169410 -0.054823
C50   C     C_R   0.819947 0.589970 0.203361 -0.178555
H12   H     H_    0.958849 0.572170 0.184022 0.128215
C51   C     C_R   0.811640 0.620952 0.262857 -0.063913
H13   H     H_    0.943071 0.626509 0.288239 0.121336
C52   C     C_R   0.634646 0.645104 0.289548 0.368685
C53   C     C_R   0.663022 0.855191 0.746876 -0.071098
H14   H     H_    0.800026 0.829696 0.730225 0.169659
C54   C     C_R   0.640852 0.883553 0.805983 -0.199583
H15   H     H_    0.760847 0.877245 0.833441 0.145806
C55   C     C_R   0.466954 0.918579 0.829738 -0.170751
C56   C     C_R   0.310133 0.921715 0.791654 0.181605
C57   C     C_R   0.330677 0.890083 0.732052 0.260319
C58   C     C_R   0.509951 0.858405 0.709241 0.260313
C59   C     C_2   0.642906 0.269671 0.001780 -0.315418
H16   H     H_    0.777536 0.238782 0.005176 0.145104
C60   C     C_2   0.472632 0.230209 0.997830 -0.313145
H17   H     H_    0.338009 0.261090 0.994405 0.150640
O19   O     O_R   0.618210 0.960470 0.922400 -0.536997
O20   O     O_R   0.291310 0.111960 0.995450 -0.546971
O21   O     O_R   0.124210 0.039530 0.077580 -0.539432
C61   C     C_R   0.460946 0.145093 0.998358 0.769748
O22   O     O_R   0.288310 0.965490 0.917650 -0.551457
O23   O     O_R   0.121180 0.892010 0.999220 -0.550093
C62   C     C_R   0.456326 0.950136 0.893644 0.722300
O24   O     O_R   0.621230 0.107990 0.000760 -0.538303
O25   O     O_3   0.455770 0.976060 0.026840 -0.361633
V3    V     V_3+5 0.179680 0.004440 0.995020 1.423159
O26   O     O_R   0.791670 0.888040 0.004570 -0.518462
C63   C     C_R   0.961183 0.855643 0.003006 0.732853
O27   O     O_R   0.794680 0.034510 0.082370 -0.540893
C64   C     C_R   0.964136 0.050123 0.105983 0.734820
V4    V     V_3+5 0.680070 0.995560 0.005010 1.473179
O28   O     O_3   0.953840 0.023940 0.973160 -0.377011
Br1   Br    Br    0.644226 0.234816 0.295419 -0.460429
Br2   Br    Br    0.734837 0.442456 0.705659 -0.427715
Br3   Br    Br    0.498386 0.328876 0.835158 -0.481750
N5    N     N_3   0.399021 0.282108 0.707476 -0.550203
H18   H     H_    0.333755 0.227097 0.689288 0.264337
H19   H     H_    0.448663 0.305415 0.674246 0.265931
N6    N     N_3   0.697640 0.521577 0.462660 -0.557764
H20   H     H_    0.587556 0.488482 0.475061 0.268894
H21   H     H_    0.825873 0.509541 0.482047 0.258943
Br4   Br    Br    0.505330 0.952044 0.414956 -0.429604
Br5   Br    Br    0.735036 0.734976 0.035759 -0.528382
N7    N     N_3   0.128804 0.957405 0.811816 -0.604488
H22   H     H_    0.152790 0.016301 0.835076 0.246990
H23   H     H_    0.067708 0.925006 0.838278 0.227472
N8    N     N_3   0.164882 0.888015 0.695574 -0.620825
H24   H     H_    0.189695 0.924438 0.667883 0.272266
H25   H     H_    0.144825 0.829421 0.671152 0.229674
Br6   Br    Br    0.216949 0.508256 0.539351 -0.500622
N9    N     N_3   0.299668 0.068244 0.291920 -0.578378
H26   H     H_    0.428905 0.081454 0.274268 0.264525
H27   H     H_    0.293522 0.006317 0.285692 0.275813

loop_
_geom_bond_atom_site_label_1
_geom_bond_atom_site_label_2
_ccdc_geom_bond_type
C30   C31   A    
C2    C59   S    
C56   C57   A    
C45   O17   S    
C1    O6    A    
O27   C64   A    
C24   C25   A    
C50   H12   S    
V4    O28   S    
C55   C62   S    
C12   C13   A    
C36   C37   A    
C36   C41   A    
C54   H15   S    
C14   C15   A    
O5    C3    A    
C16   C17   A    
C39   N6    S    
C7    C11   A    
C6    C63   S    
C13   H2    S    
V2    O10   S    
C6    Br5   S    
C31   C32   A    
O20   V3    S    
N2    C20   A    
C23   C24   A    
C9    C12   A    
C47   C52   A    
C10   C15   A    
O23   C63   A    
C12   Br6   S    
O24   V4    S    
O25   V3    S    
O8    V2    S    
C25   Br1   S    
C28   C29   A    
C42   C43   A    
C27   Br2   S    
C9    C10   A    
O19   C62   A    
C27   C32   A    
O7    V1    S    
C53   C58   A    
C57   N8    S    
C11   C18   A    
C40   C41   A    
N3    C34   A    
N1    C8    A    
C4    C5    S    
C43   C44   A    
O26   C63   A    
C22   C23   A    
C19   N2    A    
C30   Br3   S    
C50   C51   A    
N2    C26   S    
C27   C28   A    
C24   H6    S    
C49   C50   A    
C47   C48   A    
O4    C2    A    
C47   H10   S    
C33   N3    A    
C8    O12   S    
C48   H11   S    
C41   C42   A    
C34   C35   A    
C35   C38   A    
O2    C1    A    
C21   C22   A    
N1    C32   S    
C15   C16   A    
O21   C64   A    
C53   C54   A    
C40   C45   A    
C1    C49   S    
C37   C44   A    
C46   O18   S    
C57   C58   A    
C54   C55   A    
C5    H1    S    
C38   H8    S    
C55   C56   A    
O20   C61   A    
C19   O13   S    
C10   C11   A    
N5    H18   S    
O3    C4    A    
O1    V2    S    
C23   C64   S    
N9    H27   S    
C14   C19   A    
C59   H16   S    
O6    V2    S    
C48   C49   A    
C51   C52   A    
N3    C58   S    
O22   V3    S    
O2    V1    S    
O25   V4    S    
O26   V4    S    
C28   H7    S    
C33   O15   S    
N6    H21   S    
N7    H22   S    
C33   C37   A    
C61   O24   A    
C29   C30   A    
C17   H3    S    
C44   H9    S    
O1    C2    A    
O23   V3    S    
C17   C18   A    
C60   C61   S    
C22   H5    S    
N4    C46   A    
O5    V1    S    
O21   V3    S    
O27   V4    S    
O8    C3    A    
C21   C26   A    
C16   C20   A    
C34   O16   S    
C59   C60   D    
C21   N9    S    
V3    O28   S    
C38   C39   A    
O9    V2    S    
C20   O14   S    
C42   C46   A    
O4    V1    S    
O3    V1    S    
V1    O10   S    
C31   N5    S    
N4    C52   S    
C53   H14   S    
O22   C62   A    
C60   H17   S    
C5    C6    D    
N8    H24   S    
C39   C40   A    
O7    V2    S    
C35   C36   A    
N5    H19   S    
O19   V4    S    
C7    O11   S    
C45   N4    A    
C7    N1    A    
C43   Br4   S    
C51   H13   S    
N8    H25   S    
C25   C26   A    
C13   C14   A    
C56   N7    S    
C18   H4    S    
C8    C9    A    
N9    H26   S    
O9    C4    A    
C3    C29   S    
N6    H20   S    
N7    H23   S    
