data_mof_unit_36078.cif
_audit_creation_date              2012-12-10T20:53:17-0500
_audit_creation_method            fapswitch 2.2
_symmetry_space_group_name_H-M    P1
_symmetry_Int_Tables_number       1
_space_group_crystal_system       triclinic
_cell_length_a                    15.826331
_cell_length_b                    15.069746
_cell_length_c                    10.90206
_cell_angle_alpha                 86.718633
_cell_angle_beta                  89.863492
_cell_angle_gamma                 89.76875
_cell_volume                      2595.83797733

loop_
_atom_site_label
_atom_site_type_symbol
_atom_type_description
_atom_site_fract_x
_atom_site_fract_y
_atom_site_fract_z
_atom_type_partial_charge
C1    C     C_R   0.339009 0.500040 0.498337 0.877890
C2    C     C_R   0.661044 0.499862 0.500411 0.910438
C3    C     C_R   0.440951 0.956049 0.429928 -0.260903
C4    C     C_R   0.558571 0.949698 0.570497 -0.254139
C5    C     C_R   0.499791 0.904971 0.500151 -0.051267
C6    C     C_R   0.560228 0.043626 0.568965 0.460015
C7    C     C_R   0.439283 0.049869 0.431549 0.462321
C8    C     C_R   0.499838 0.094898 0.500166 -0.175302
C9    C     C_1   0.499886 0.807151 0.500050 0.097259
C10   C     C_1   0.499966 0.192893 0.500051 0.142098
C11   C     C_R   0.499171 0.503186 0.262238 0.786259
C12   C     C_R   0.495200 0.497222 0.736222 0.801631
C13   C     C_2   0.556708 0.482163 0.933113 0.154136
C14   C     C_2   0.550422 0.462639 0.065405 0.144077
C15   C     C_2   0.485106 0.487383 0.866100 0.394923
C16   C     C_2   0.498718 0.514240 0.130095 0.365231
C17   C     C_R   0.955520 0.588049 0.478340 0.127426
C18   C     C_R   0.044484 0.587873 0.475394 0.135618
C19   C     C_R   0.912922 0.505743 0.485199 -0.075671
C20   C     C_R   0.087364 0.505399 0.480764 -0.079801
C21   C     C_R   0.956314 0.424707 0.486049 0.328018
C22   C     C_R   0.044249 0.424471 0.488691 0.332539
C23   C     C_1   0.823951 0.502535 0.491926 0.065847
C24   C     C_1   0.176336 0.502066 0.484419 0.060877
C25   C     C_1   0.250990 0.500253 0.490119 -0.214416
C26   C     C_1   0.749240 0.500334 0.496792 -0.218304
H1    H     H_    0.395516 0.923084 0.374113 0.157480
H2    H     H_    0.603923 0.911690 0.626402 0.161767
N1    N     N_1   0.500000 0.270550 0.500000 -0.093973
N2    N     N_1   0.500000 0.729450 0.500000 -0.098940
O1    O     O_R   0.378020 0.573650 0.500040 -0.618579
O2    O     O_R   0.621980 0.573650 0.499960 -0.603425
O3    O     O_R   0.378020 0.426320 0.500100 -0.613041
O4    O     O_R   0.621980 0.426320 0.499900 -0.609010
O5    O     O_R   0.500000 0.573650 0.319080 -0.623411
O6    O     O_R   0.500000 0.573650 0.680920 -0.622456
O7    O     O_R   0.500000 0.426320 0.319140 -0.616550
O8    O     O_R   0.500000 0.426320 0.680860 -0.616825
Zn1   Zn    Zn3+2 0.500000 0.598370 0.500000 0.962479
Zn2   Zn    Zn3+2 0.500000 0.401630 0.500000 0.974317
C27   C     C_3   0.643700 0.498121 0.877120 -0.982086
H3    H     H_    0.693532 0.496573 0.948763 0.264313
H4    H     H_    0.658520 0.446210 0.811934 0.248270
H5    H     H_    0.645828 0.564614 0.827768 0.253284
C28   C     C_3   0.604733 0.387937 0.122188 -0.939897
H6    H     H_    0.644645 0.357341 0.051997 0.260079
H7    H     H_    0.647222 0.413519 0.192905 0.236186
H8    H     H_    0.564218 0.334187 0.163515 0.272983
O9    O     O_3   0.406737 0.464853 0.920208 -0.656523
C29   C     C_3   0.335439 0.483754 0.843246 0.059489
H9    H     H_    0.281107 0.446189 0.884401 0.163583
H10   H     H_    0.342706 0.458288 0.750373 0.132258
C30   C     C_3   0.311777 0.583198 0.837622 -0.350068
H11   H     H_    0.290472 0.601007 0.928987 0.231861
H12   H     H_    0.367169 0.625076 0.811255 0.242337
C31   C     C_3   0.238725 0.606323 0.750356 -0.957541
H13   H     H_    0.263029 0.620483 0.656258 0.281932
H14   H     H_    0.206697 0.667754 0.778237 0.261329
H15   H     H_    0.191377 0.552036 0.751542 0.263407
O10   O     O_3   0.459253 0.587986 0.068734 -0.649765
C32   C     C_3   0.389548 0.626297 0.129966 0.109081
H16   H     H_    0.362589 0.677739 0.064319 0.153652
H17   H     H_    0.409748 0.665680 0.207347 0.166048
C33   C     C_3   0.318954 0.559809 0.168982 -0.389369
H18   H     H_    0.307838 0.512036 0.097436 0.256861
H19   H     H_    0.337255 0.519990 0.252836 0.205919
C34   C     C_3   0.236415 0.607976 0.195497 -0.954947
H20   H     H_    0.245689 0.653292 0.271103 0.269203
H21   H     H_    0.187018 0.558701 0.223300 0.279683
H22   H     H_    0.214093 0.647140 0.112391 0.257730
C35   C     C_3   0.092078 0.675402 0.468399 -0.867386
H23   H     H_    0.161645 0.667594 0.467273 0.237914
H24   H     H_    0.074538 0.714821 0.383092 0.240548
H25   H     H_    0.076192 0.713777 0.549295 0.241451
C36   C     C_3   0.907648 0.675759 0.474692 -0.853089
H26   H     H_    0.838074 0.668199 0.476509 0.241115
H27   H     H_    0.925069 0.713513 0.555303 0.238170
H28   H     H_    0.923523 0.715698 0.389115 0.238358
O11   O     O_3   0.912215 0.345323 0.492945 -0.642176
C37   C     C_3   0.911136 0.307973 0.376559 0.131436
H29   H     H_    0.941824 0.241463 0.386492 0.169032
H30   H     H_    0.945939 0.347268 0.302422 0.124692
C38   C     C_3   0.819406 0.296947 0.336089 -0.353964
H31   H     H_    0.783956 0.258059 0.408848 0.230801
H32   H     H_    0.789107 0.363400 0.322568 0.224717
C39   C     C_3   0.813987 0.249762 0.216244 -0.970405
H33   H     H_    0.846139 0.289520 0.141010 0.268807
H34   H     H_    0.746625 0.241613 0.191009 0.276302
H35   H     H_    0.843891 0.182957 0.226877 0.263251
O12   O     O_3   0.088704 0.344913 0.493769 -0.641492
C40   C     C_3   0.087086 0.305163 0.614810 0.135382
H36   H     H_    0.059691 0.237638 0.610545 0.169783
H37   H     H_    0.047780 0.341337 0.681383 0.127262
C41   C     C_3   0.177440 0.296968 0.663984 -0.364849
H38   H     H_    0.217592 0.262117 0.598023 0.235214
H39   H     H_    0.203792 0.364353 0.673780 0.216924
C42   C     C_3   0.180316 0.246024 0.788907 -0.972300
H40   H     H_    0.142164 0.281014 0.857021 0.266184
H41   H     H_    0.246681 0.241498 0.821590 0.277216
H42   H     H_    0.155510 0.177671 0.781810 0.265032
O13   O     O_3   0.381515 0.097244 0.358457 -0.636772
C43   C     C_3   0.311170 0.121511 0.429997 0.095133
H43   H     H_    0.289373 0.188060 0.393546 0.179885
H44   H     H_    0.326078 0.128377 0.529146 0.117647
C44   C     C_3   0.239184 0.055030 0.417455 -0.355107
H45   H     H_    0.225563 0.047939 0.318526 0.237347
H46   H     H_    0.258465 0.989058 0.459088 0.212909
C45   C     C_3   0.158959 0.085302 0.481097 -0.963678
H47   H     H_    0.170744 0.091535 0.580601 0.266371
H48   H     H_    0.108195 0.035670 0.470657 0.264489
H49   H     H_    0.137236 0.150331 0.439192 0.282966
O14   O     O_3   0.617913 0.084511 0.642094 -0.635723
C46   C     C_3   0.689326 0.111950 0.571333 0.090027
H50   H     H_    0.710235 0.176758 0.604171 0.176372
H51   H     H_    0.676181 0.123578 0.470983 0.118768
C47   C     C_3   0.761280 0.044432 0.591190 -0.348689
H52   H     H_    0.773414 0.032966 0.691236 0.237993
H53   H     H_    0.742795 0.980271 0.553883 0.213789
C48   C     C_3   0.842403 0.076981 0.527761 -0.966010
H54   H     H_    0.832235 0.087042 0.427196 0.267556
H55   H     H_    0.893189 0.026688 0.544189 0.265143
H56   H     H_    0.863173 0.140435 0.564923 0.279731

loop_
_geom_bond_atom_site_label_1
_geom_bond_atom_site_label_2
_ccdc_geom_bond_type
O13   C43   S    
C27   H3    S    
C19   C23   S    
C13   C27   S    
C42   H40   S    
C1    O3    A    
C7    C8    A    
C28   H7    S    
C30   H11   S    
C45   H47   S    
C30   C31   S    
C44   H46   S    
O4    Zn2   S    
C19   C21   A    
O7    Zn2   S    
C3    C7    A    
C39   H34   S    
O2    Zn1   S    
C1    O1    A    
C47   H52   S    
C43   C44   S    
C2    O2    A    
C16   O10   S    
C23   C26   T    
C11   O7    A    
C4    H2    S    
C20   C24   S    
O1    Zn1   S    
C29   H10   S    
C31   H14   S    
C12   O6    A    
C32   H16   S    
C41   H39   S    
C46   C47   S    
C2    O4    A    
C48   H55   S    
C21   C22   A    
C1    C25   S    
C27   H4    S    
C41   H38   S    
C37   C38   S    
O14   C46   S    
C42   H41   S    
C29   H9    S    
C14   C28   S    
C30   H12   S    
C44   C45   S    
O3    Zn2   S    
C34   H20   S    
C29   C30   S    
C33   C34   S    
C24   C25   T    
C37   H30   S    
C40   H36   S    
C35   H24   S    
C39   H33   S    
C4    C5    A    
C6    C8    A    
C28   H8    S    
C41   C42   S    
C28   H6    S    
O10   C32   S    
C34   H21   S    
C33   H19   S    
C32   C33   S    
O5    Zn1   S    
C36   H26   S    
C5    C9    S    
C40   H37   S    
C11   C16   S    
C38   H31   S    
C12   C15   S    
C21   O11   S    
C32   H17   S    
C17   C18   A    
C22   O12   S    
C2    C26   S    
C43   H44   S    
C36   H27   S    
C9    N2    T    
C4    C6    A    
C38   H32   S    
C20   C22   A    
C13   C15   D    
C27   H5    S    
C14   C16   D    
C31   H13   S    
C42   H42   S    
C46   H50   S    
C48   H56   S    
C18   C35   S    
C47   C48   S    
C6    O14   S    
O6    Zn1   S    
C37   H29   S    
C3    C5    A    
C39   H35   S    
C35   H25   S    
C48   H54   S    
C45   H49   S    
C44   H45   S    
C31   H15   S    
C34   H22   S    
C33   H18   S    
C3    H1    S    
C35   H23   S    
C40   C41   S    
O8    Zn2   S    
C10   N1    T    
O12   C40   S    
C45   H48   S    
N1    Zn2   S    
C11   O5    A    
C17   C19   A    
C47   H53   S    
N2    Zn1   S    
C18   C20   A    
C15   O9    S    
C12   O8    A    
C43   H43   S    
C36   H28   S    
O11   C37   S    
C38   C39   S    
C8    C10   S    
O9    C29   S    
C7    O13   S    
C17   C36   S    
C13   C14   S    
C46   H51   S    
