data_mof_unit_36267.cif
_audit_creation_date              2012-12-11T14:50:36-0500
_audit_creation_method            fapswitch 2.2
_symmetry_space_group_name_H-M    P1
_symmetry_Int_Tables_number       1
_space_group_crystal_system       triclinic
_cell_length_a                    10.849473
_cell_length_b                    11.018226
_cell_length_c                    18.89183
_cell_angle_alpha                 90.123345
_cell_angle_beta                  89.718433
_cell_angle_gamma                 60.551143
_cell_volume                      1966.52286214

loop_
_atom_site_label
_atom_site_type_symbol
_atom_type_description
_atom_site_fract_x
_atom_site_fract_y
_atom_site_fract_z
_atom_type_partial_charge
C1    C     C_R   0.230037 0.649032 0.608013 0.579966
C2    C     C_3   0.619293 0.587076 0.802988 -0.103595
C3    C     C_3   0.702466 0.667429 0.812509 0.070569
C4    C     C_3   0.680472 0.633518 0.676796 0.075868
C5    C     C_3   0.843084 0.553044 0.698371 -0.145951
C6    C     C_3   0.601064 0.572796 0.722343 0.120839
C7    C     C_R   0.789974 0.139078 0.704571 -0.177333
C8    C     C_R   0.812846 0.105582 0.776247 -0.171300
C9    C     C_R   0.706487 0.101498 0.816087 0.000097
C10   C     C_R   0.578700 0.131507 0.784028 -0.129088
C11   C     C_R   0.553304 0.162754 0.714250 -0.007083
C12   C     C_R   0.655101 0.617275 0.601597 0.572838
C13   C     C_R   0.659913 0.170907 0.673524 0.039800
C14   C     C_R   0.176833 0.563028 0.719335 -0.108844
C15   C     C_R   0.184046 0.562265 0.793371 -0.004655
C16   C     C_R   0.158910 0.684801 0.829192 0.042347
C17   C     C_R   0.141053 0.799890 0.789350 -0.138600
C18   C     C_R   0.143028 0.795763 0.716015 -0.132374
C19   C     C_R   0.169587 0.673680 0.680216 0.035259
C20   C     C_R   0.741154 0.531645 0.273407 -0.126011
C21   C     C_R   0.738508 0.542378 0.200873 -0.128256
C22   C     C_R   0.653176 0.671043 0.168444 0.030391
C23   C     C_R   0.626404 0.229169 0.602908 0.558253
C24   C     C_R   0.557999 0.785498 0.209908 -0.130252
C25   C     C_R   0.554940 0.772243 0.283452 -0.129805
C26   C     C_R   0.650049 0.645775 0.315706 0.034923
C27   C     C_R   0.549747 0.149481 0.288777 -0.138671
C28   C     C_R   0.549510 0.141159 0.216201 -0.136913
C29   C     C_R   0.650262 0.156219 0.176271 0.036689
C30   C     C_R   0.747657 0.185499 0.209584 -0.152492
C31   C     C_R   0.745336 0.197487 0.282492 -0.134473
C32   C     C_R   0.645736 0.180559 0.322342 0.053866
C33   C     C_R   0.082267 0.803612 0.305414 0.231308
C34   C     C_R   0.220000 0.649110 0.402195 0.576692
C35   C     C_R   0.061271 0.815416 0.232957 -0.118017
C36   C     C_R   0.105578 0.696078 0.190488 0.004519
C37   C     C_R   0.157405 0.565290 0.221066 -0.156383
C38   C     C_R   0.179420 0.552179 0.293402 -0.178942
C39   C     C_R   0.149754 0.670124 0.334864 0.070058
C40   C     C_R   0.724185 0.051482 0.888621 0.542372
C41   C     C_R   0.723439 0.687276 0.888443 0.548508
C42   C     C_R   0.113600 0.709923 0.903868 0.531053
C43   C     C_R   0.674452 0.107027 0.104066 0.554087
C44   C     C_R   0.694392 0.690390 0.097358 0.545688
C45   C     C_R   0.640716 0.619884 0.390880 0.542657
C46   C     C_R   0.081252 0.716236 0.115477 0.557922
C47   C     C_R   0.617334 0.229556 0.394689 0.560888
C48   C     C_3   0.619945 0.811168 0.774625 0.103376
C49   C     C_3   0.622747 0.790844 0.692719 -0.135654
C50   C     C_3   0.851546 0.586960 0.776446 -0.252039
Cr1   Cr    Cr6+3 0.392930 0.397900 0.502230 1.005406
Cr2   Cr    Cr6+3 0.398240 0.708600 0.501260 1.046460
Cr3   Cr    Cr6+3 0.708800 0.393470 0.496460 1.018512
Cr4   Cr    Cr6+3 0.937620 0.938540 0.007640 1.013721
Cr5   Cr    Cr6+3 0.625150 0.937450 0.994520 1.032594
Cr6   Cr    Cr6+3 0.937990 0.625080 0.001190 1.002542
H1    H     H_    0.672633 0.871983 0.788272 0.139482
H2    H     H_    0.645432 0.461057 0.708419 0.176086
H3    H     H_    0.919568 0.489642 0.805603 0.161534
H4    H     H_    0.872757 0.141551 0.673517 0.118752
H5    H     H_    0.911339 0.084501 0.800308 0.120992
H6    H     H_    0.496916 0.123984 0.813173 0.158143
H7    H     H_    0.181934 0.475499 0.692080 0.100649
H8    H     H_    0.125088 0.894453 0.814902 0.138062
H9    H     H_    0.134817 0.884818 0.687701 0.126114
H10   H     H_    0.814466 0.432119 0.296135 0.128958
H11   H     H_    0.812157 0.451523 0.170583 0.129074
H12   H     H_    0.491231 0.885993 0.186039 0.123790
H13   H     H_    0.480647 0.860604 0.314958 0.126134
H14   H     H_    0.470570 0.137427 0.318298 0.126544
H15   H     H_    0.474241 0.116642 0.191809 0.126317
H16   H     H_    0.827741 0.195074 0.179533 0.113459
H17   H     H_    0.818812 0.223403 0.307513 0.119582
H18   H     H_    0.512945 0.851973 0.672397 0.154966
H19   H     H_    0.011335 0.918407 0.209769 0.129054
H20   H     H_    0.186127 0.473493 0.188945 0.133240
H21   H     H_    0.230352 0.448339 0.315651 0.145261
H22   H     H_    0.903427 0.652151 0.780108 0.112311
H23   H     H_    0.902507 0.592468 0.666893 0.141691
H24   H     H_    0.512983 0.649725 0.828026 0.205388
O1    O     O_R   0.507430 0.255570 0.581420 -0.532546
O2    O     O_R   0.524460 0.695920 0.424060 -0.507439
O3    O     O_R   0.736530 0.504260 0.414810 -0.530627
O4    O     O_R   0.691460 0.277160 0.422180 -0.501185
O5    O     O_3   0.499990 0.499990 0.499980 -0.250089
O6    O     O_R   0.089490 0.825610 0.930610 -0.525043
O7    O     O_R   0.818370 0.054540 0.929880 -0.501223
O8    O     O_R   0.605870 0.077310 0.915530 -0.524851
O9    O     O_R   0.646440 0.806700 0.917570 -0.469335
O10   O     O_R   0.837200 0.593290 0.915250 -0.543620
O11   O     O_R   0.065330 0.635370 0.931590 -0.508376
O12   O     O_R   0.280190 0.527390 0.578910 -0.511259
O13   O     O_R   0.068300 0.828790 0.091860 -0.525592
O14   O     O_R   0.798730 0.057480 0.079370 -0.507812
O15   O     O_R   0.584680 0.080480 0.076790 -0.524931
O16   O     O_R   0.626790 0.809640 0.067050 -0.504606
O17   O     O_R   0.816010 0.596460 0.076500 -0.522362
O18   O     O_R   0.045680 0.638310 0.081070 -0.498243
O19   O     O_3   0.833590 0.833690 0.001120 -0.272864
O20   O     O_R   0.260310 0.739740 0.584580 -0.503624
O21   O     O_R   0.532250 0.695150 0.573830 -0.482202
O22   O     O_R   0.744930 0.503430 0.576380 -0.541818
O23   O     O_R   0.699250 0.276390 0.571950 -0.506513
O24   O     O_R   0.499020 0.256400 0.419850 -0.534211
O25   O     O_R   0.272400 0.528160 0.429140 -0.533238
O26   O     O_R   0.251910 0.740570 0.423020 -0.457441
C51   C     C_3   0.929998 0.392777 0.686628 -0.408056
H25   H     H_    0.876318 0.338603 0.708627 0.130557
H26   H     H_    0.957781 0.363557 0.630345 0.171173
H27   H     H_    0.034350 0.349747 0.713086 0.101344
C52   C     C_3   0.411883 0.182121 0.687105 -0.382043
H28   H     H_    0.347962 0.286126 0.665311 0.179469
H29   H     H_    0.425791 0.105298 0.645671 0.133737
H30   H     H_    0.343312 0.175391 0.728688 0.067216
C53   C     C_3   0.230790 0.426691 0.831081 -0.377122
H31   H     H_    0.259384 0.428614 0.887101 0.159582
H32   H     H_    0.150625 0.392760 0.827278 0.118840
H33   H     H_    0.328823 0.348330 0.805627 0.133374
O27   O     O_3   0.480005 0.881266 0.800859 -0.734749
H34   H     H_    0.427897 0.969714 0.775040 0.313200
O28   O     O_3   0.044768 0.919389 0.347607 -0.685906
H35   H     H_    0.019266 0.001071 0.317001 0.308862
C54   C     C_3   0.711292 0.845780 0.652680 -0.449129
H36   H     H_    0.794010 0.847262 0.686494 0.136053
H37   H     H_    0.764312 0.783006 0.604731 0.127190
H38   H     H_    0.643481 0.949574 0.630843 0.148936
C55   C     C_3   0.684058 0.445564 0.841069 -0.436214
H39   H     H_    0.793534 0.373695 0.823060 0.139391
H40   H     H_    0.684723 0.460191 0.899182 0.156472
H41   H     H_    0.618127 0.395929 0.830907 0.158498
O29   O     O_3   0.457228 0.635097 0.705331 -0.699659
H42   H     H_    0.412053 0.734564 0.719128 0.351116

loop_
_geom_bond_atom_site_label_1
_geom_bond_atom_site_label_2
_ccdc_geom_bond_type
C41   O9    A    
C7    C8    A    
C6    H2    S    
C52   H28   S    
Cr6   O18   S    
Cr1   O5    S    
C48   H1    S    
C2    C6    S    
C18   H9    S    
C35   H19   S    
C29   C30   A    
Cr3   O4    S    
C50   H3    S    
C40   O7    A    
C20   H10   S    
C36   C37   A    
C18   C19   A    
C17   H8    S    
Cr4   O7    S    
C31   H17   S    
C53   H31   S    
C49   C54   S    
C3    C48   S    
C43   O14   A    
C13   C23   S    
C42   O11   A    
Cr5   O8    S    
Cr4   O13   S    
C26   C45   S    
Cr6   O11   S    
C22   C44   S    
C45   O2    A    
C32   C47   S    
C16   C17   A    
C53   H32   S    
C43   O15   A    
C51   H25   S    
C36   C46   S    
C42   O6    A    
C5    H23   S    
C9    C10   A    
Cr1   O1    S    
C8    H5    S    
C2    C55   S    
Cr6   O10   S    
C41   O10   A    
C46   O18   A    
Cr2   O26   S    
C21   C22   A    
C21   H11   S    
C33   O28   S    
C51   H26   S    
C10   H6    S    
Cr6   O17   S    
C50   H22   S    
C1    O20   A    
C3    C50   S    
C48   O27   S    
C38   C39   A    
C23   O23   A    
Cr2   O21   S    
C1    C19   S    
C15   C16   A    
C11   C52   S    
C34   C39   S    
C34   O26   A    
C54   H36   S    
C2    H24   S    
C24   C25   A    
C4    C6    S    
Cr4   O6    S    
C8    C9    A    
C54   H38   S    
Cr1   O24   S    
Cr2   O20   S    
C9    C40   S    
C35   C36   A    
C55   H40   S    
C12   O22   A    
C37   C38   A    
C44   O16   A    
Cr1   O12   S    
C44   O17   A    
C31   C32   A    
C7    C13   A    
Cr3   O22   S    
Cr1   O25   S    
C53   H33   S    
C17   C18   A    
C52   H29   S    
C33   C39   A    
C47   O4    A    
Cr2   O2    S    
O28   H35   S    
C27   H14   S    
Cr5   O15   S    
C48   C49   S    
C37   H20   S    
Cr2   O5    S    
C1    O12   A    
C51   H27   S    
C22   C24   A    
C5    C50   S    
C28   H15   S    
C25   H13   S    
C55   H39   S    
C28   C29   A    
C16   C42   S    
C7    H4    S    
C5    C51   S    
C3    C41   S    
C47   O24   A    
C23   O1    A    
C27   C32   A    
C14   C15   A    
C34   O25   A    
C14   C19   A    
C6    O29   S    
Cr5   O16   S    
C30   H16   S    
O27   H34   S    
C38   H21   S    
C4    C49   S    
Cr3   O3    S    
C40   O8    A    
C2    C3    S    
C25   C26   A    
C55   H41   S    
C12   O21   A    
Cr5   O9    S    
C11   C13   A    
C30   C31   A    
C46   O13   A    
C20   C26   A    
Cr3   O23   S    
C14   H7    S    
C33   C35   A    
C52   H30   S    
C15   C53   S    
Cr4   O19   S    
Cr4   O14   S    
C45   O3    A    
C54   H37   S    
C10   C11   A    
C24   H12   S    
C4    C5    S    
C20   C21   A    
Cr5   O19   S    
C27   C28   A    
C49   H18   S    
Cr3   O5    S    
Cr6   O19   S    
C4    C12   S    
C29   C43   S    
O29   H42   S    
