data_mof_unit_30982.cif
_audit_creation_date              2013-03-05T15:50:42-0500
_audit_creation_method            fapswitch 2.2
_symmetry_space_group_name_H-M    P1
_symmetry_Int_Tables_number       1
_space_group_crystal_system       triclinic
_cell_length_a                    15.084112
_cell_length_b                    10.763373
_cell_length_c                    9.619438
_cell_angle_alpha                 90.027943
_cell_angle_beta                  89.267569
_cell_angle_gamma                 94.466579
_cell_volume                      1556.90210965

loop_
_atom_site_label
_atom_site_type_symbol
_atom_site_description
_atom_site_fract_x
_atom_site_fract_y
_atom_site_fract_z
_atom_type_partial_charge
O1    O     O_R   0.499990 0.319640 0.618810 -0.589981
O2    O     O_R   0.500000 0.319660 0.381240 -0.582837
C1    C     C_R   0.486173 0.262266 0.499878 0.776336
O3    O     O_R   0.370250 0.499960 0.618800 -0.548043
O4    O     O_R   0.370260 0.499980 0.381230 -0.609987
C2    C     C_R   0.328550 0.497563 0.501081 0.807580
Cu1   Cu    Cu3+1 0.499990 0.499990 0.640660 1.000456
Cu2   Cu    Cu3+1 0.500010 0.500010 0.359340 0.956700
O5    O     O_R   0.500000 0.680340 0.618760 -0.517719
O6    O     O_R   0.500010 0.680360 0.381190 -0.551191
O7    O     O_R   0.629740 0.500020 0.618770 -0.541149
O8    O     O_R   0.629750 0.500040 0.381200 -0.588479
C3    C     C_R   0.488786 0.735820 0.501086 0.865211
C4    C     C_R   0.670909 0.495699 0.499470 0.858419
C5    C     C_R   0.816084 0.498925 0.374766 -0.281760
C6    C     C_R   0.767181 0.486508 0.499214 -0.084765
C7    C     C_R   0.810516 0.464028 0.623806 -0.208728
C8    C     C_R   0.902560 0.458770 0.625106 0.074926
C9    C     C_R   0.952069 0.478892 0.501034 0.097857
C10   C     C_R   0.908366 0.498957 0.375072 0.137521
C11   C     C_R   0.945477 0.433359 0.748490 -0.309669
C12   C     C_R   0.037963 0.428860 0.750970 0.274260
C13   C     C_R   0.089117 0.457226 0.628480 -0.047451
C14   C     C_R   0.045148 0.479810 0.502759 -0.068914
C15   C     C_R   0.094026 0.504636 0.378355 0.127951
C16   C     C_R   0.050020 0.525045 0.254069 -0.180816
C17   C     C_R   0.957603 0.520622 0.251943 -0.230575
C18   C     C_R   0.182679 0.465585 0.627957 0.560863
C19   C     C_R   0.231078 0.491352 0.503538 -0.187250
C20   C     C_R   0.186297 0.509512 0.379634 -0.320847
H1    H     H_    0.782587 0.509833 0.277878 0.158822
H2    H     H_    0.772702 0.449734 0.719801 0.153392
H3    H     H_    0.906880 0.414519 0.843114 0.146189
H4    H     H_    0.223335 0.529094 0.283698 0.188345
H5    H     H_    0.087338 0.545331 0.158808 0.150080
H6    H     H_    0.924788 0.536403 0.154658 0.138202
C21   C     C_R   0.397456 0.120510 0.737804 -0.250009
H7    H     H_    0.382383 0.216595 0.733716 0.177953
C22   C     C_R   0.370992 0.055049 0.857850 0.638217
C23   C     C_R   0.376485 0.927196 0.863412 -0.220324
H8    H     H_    0.352899 0.875750 0.955095 0.170808
C24   C     C_R   0.406818 0.863859 0.748081 -0.234467
H9    H     H_    0.398927 0.763860 0.755096 0.200886
C25   C     C_R   0.437812 0.928639 0.626081 0.112205
C26   C     C_R   0.434353 0.060228 0.622275 -0.005844
C27   C     C_R   0.460922 0.126210 0.498599 -0.167365
C28   C     C_R   0.462161 0.058499 0.372303 0.239429
H10   H     H_    0.466785 0.879876 0.280010 0.186631
C29   C     C_R   0.465114 0.930197 0.377127 -0.229553
C30   C     C_R   0.465765 0.866797 0.503803 -0.162786
H11   H     H_    0.377105 0.395055 0.130831 0.155284
C31   C     C_R   0.649615 0.620940 0.135826 0.304384
C32   C     C_R   0.729435 0.634198 0.059403 -0.398845
H12   H     H_    0.790142 0.670900 0.108703 0.179062
C33   C     C_R   0.725515 0.644156 0.917474 -0.308397
H13   H     H_    0.782996 0.684333 0.860052 0.192374
C34   C     C_R   0.643746 0.627277 0.854090 0.656413
C35   C     C_R   0.570448 0.562083 0.923417 0.027731
C36   C     C_R   0.571727 0.560682 0.072716 0.108568
N1    N     N_R   0.500860 0.501210 0.147910 -0.191046
C37   C     C_R   0.432484 0.442620 0.075146 -0.042021
H14   H     H_    0.377227 0.395126 0.874366 0.200516
C38   C     C_R   0.432665 0.442362 0.927663 -0.017539
N2    N     N_R   0.500890 0.501290 0.852040 -0.206923
F1    F     F_    0.335227 0.115112 0.966428 -0.693460
N3    N     N_2   0.643997 0.707428 0.246271 -0.343378
H15   H     H_    0.695692 0.705254 0.315245 0.250058
C39   C     C_3   0.637990 0.833979 0.198565 -0.697060
H16   H     H_    0.630653 0.896199 0.289152 0.230766
H17   H     H_    0.580469 0.837937 0.128290 0.227416
H18   H     H_    0.699604 0.868449 0.141545 0.224371
F2    F     F_    0.636247 0.694721 0.737704 -0.648694
N4    N     N_2   0.078130 0.394268 0.876885 -0.370072
H19   H     H_    0.045328 0.422180 0.964791 0.231842
C40   C     C_3   0.094791 0.263793 0.883983 -0.542174
H20   H     H_    0.030887 0.204808 0.884932 0.186884
H21   H     H_    0.131147 0.246188 0.980850 0.240120
H22   H     H_    0.136144 0.237172 0.793953 0.249002
F3    F     F_    0.226899 0.450884 0.748258 -0.664669
N5    N     N_2   0.450610 0.114894 0.240311 -0.385076
H23   H     H_    0.408587 0.185905 0.238751 0.285409
C41   C     C_3   0.529193 0.133950 0.152747 -0.588144
H24   H     H_    0.513515 0.187172 0.058495 0.233515
H25   H     H_    0.551358 0.043355 0.118322 0.210509
H26   H     H_    0.583870 0.186754 0.208922 0.224546

loop_
_geom_bond_atom_site_label_1
_geom_bond_atom_site_label_2
_geom_bond_distance
_ccdc_geom_bond_type
N3    C39   1.447437 S    
C33   H13   1.083268 S    
C8    C11   1.396465 A    
N4    C40   1.447599 S    
N4    H19   1.030693 S    
C9    C10   1.411466 A    
H11   C37   1.081219 S    
Cu1   Cu2   2.706137 S    
C28   C29   1.385958 A    
C32   H12   1.083536 S    
C31   C32   1.400418 A    
Cu1   O7    1.965754 S    
C16   C17   1.391537 A    
H14   C38   1.079412 S    
C18   C19   1.410233 A    
O4    C2    1.305613 A    
O7    C4    1.300385 A    
C11   H3    1.084818 S    
C5    C6    1.399044 A    
C8    C9    1.407600 A    
C37   C38   1.418668 A    
C18   F3    1.358481 S    
O5    C3    1.299164 A    
C6    C7    1.402563 A    
C13   C14   1.416838 A    
C19   C20   1.398728 A    
C23   C24   1.392753 A    
N3    H15   1.031936 S    
C36   N1    1.396332 A    
C11   C12   1.400186 A    
C22   F1    1.356148 S    
C24   C25   1.420566 A    
C28   N5    1.426117 S    
O3    Cu1   1.970925 S    
C32   C33   1.371922 A    
C35   N2    1.382577 A    
C5    C10   1.392003 A    
C20   H4    1.084835 S    
C14   C15   1.412152 A    
O3    C2    1.301646 A    
C22   C23   1.386145 A    
C39   H16   1.108405 S    
C35   C36   1.436652 A    
C26   C27   1.422906 A    
C3    C30   1.478053 S    
N1    C37   1.366789 A    
O1    C1    1.311117 A    
C40   H20   1.112112 S    
C21   H7    1.076895 S    
C31   C36   1.438293 A    
Cu2   O8    1.970924 S    
C7    C8    1.394165 A    
C13   C18   1.407113 A    
C40   H21   1.111001 S    
N5    C41   1.446851 S    
H10   C29   1.080636 S    
O8    C4    1.305601 A    
C29   C30   1.397429 A    
C41   H25   1.104491 S    
C33   C34   1.382136 A    
C7    H2    1.083848 S    
C4    C6    1.463186 S    
C24   H9    1.075685 S    
C21   C26   1.416166 A    
C31   N3    1.418280 S    
C25   C26   1.421865 A    
C25   C30   1.426414 A    
C15   C20   1.388938 A    
Cu1   O5    1.952661 S    
C27   C28   1.417084 A    
C23   H8    1.082957 S    
O1    Cu1   1.952418 S    
O2    Cu2   1.952663 S    
N5    H23   1.030499 S    
O6    C3    1.313487 A    
O4    Cu2   1.965754 S    
C5    H1    1.076626 S    
C10   C17   1.399876 A    
C17   H6    1.083836 S    
C41   H26   1.110552 S    
C1    C27   1.484247 S    
O2    C1    1.304628 A    
C15   C16   1.400539 A    
C21   C22   1.390859 A    
Cu2   N1    2.033756 S    
C34   C35   1.421372 A    
C39   H18   1.111639 S    
C9    C14   1.403587 A    
C34   F2    1.345373 S    
C40   H22   1.111310 S    
Cu1   N2    2.033609 S    
C38   N2    1.367550 A    
C16   H5    1.082645 S    
C2    C19   1.466479 S    
Cu2   O6    1.952418 S    
C41   H24   1.110491 S    
C39   H17   1.110130 S    
C12   C13   1.420338 A    
C12   N4    1.423774 S    
