data_mof_unit_5977.cif
_audit_creation_date              2012-10-26T19:40:35-0400
_audit_creation_method            fapswitch 2.2
_symmetry_space_group_name_H-M    P1
_symmetry_Int_Tables_number       1
_space_group_crystal_system       triclinic
_cell_length_a                    9.682866
_cell_length_b                    10.95041
_cell_length_c                    13.362709
_cell_angle_alpha                 90.214847
_cell_angle_beta                  72.556798
_cell_angle_gamma                 90.593743
_cell_volume                      1351.63803601

loop_
_atom_site_label
_atom_site_type_symbol
_atom_type_description
_atom_site_fract_x
_atom_site_fract_y
_atom_site_fract_z
_atom_type_partial_charge
C1    C     C_R   0.500108 0.734641 0.502084 0.580033
C2    C     C_R   0.374467 0.485558 0.816008 -0.003586
C3    C     C_2   0.603984 0.068311 0.505283 -0.141439
C4    C     C_R   0.422445 0.493930 0.700441 0.528728
C5    C     C_2   0.506278 0.135138 0.476982 0.192105
C6    C     C_2   0.617752 0.935814 0.489163 0.239275
C7    C     C_2   0.497175 0.866232 0.513240 -0.007933
C8    C     C_2   0.052305 0.566260 0.563877 0.000393
C9    C     C_2   0.897692 0.569623 0.561211 0.014591
C10   C     C_R   0.501026 0.265547 0.495584 0.577425
C11   C     C_R   0.577405 0.496911 0.299718 0.566349
C12   C     C_R   0.426633 0.460798 0.983206 0.048214
C13   C     C_R   0.772327 0.368184 0.034139 0.229144
C14   C     C_R   0.620293 0.473272 0.186714 -0.040021
C15   C     C_R   0.236230 0.528096 0.870532 -0.136379
C16   C     C_R   0.187901 0.525976 0.979281 -0.044171
C17   C     C_R   0.279832 0.490860 0.036501 0.247730
C18   C     C_R   0.465973 0.441803 0.873215 -0.000848
C19   C     C_R   0.535377 0.446338 0.034041 0.018988
C20   C     C_R   0.667027 0.386382 0.981763 0.054771
C21   C     C_R   0.690473 0.346999 0.878437 -0.104665
C22   C     C_R   0.592997 0.375946 0.824537 -0.124558
C23   C     C_R   0.520959 0.497562 0.132666 -0.091295
C24   C     C_R   0.746968 0.409867 0.136872 -0.080411
Cl1   Cl    Cl    0.397248 0.076737 0.401948 -0.553075
Cl2   Cl    Cl    0.935382 0.290397 0.975829 -0.589547
Cl3   Cl    Cl    0.194075 0.461329 0.170921 -0.593467
Cu1   Cu    Cu3+1 0.361370 0.499980 0.499980 1.038180
Cu2   Cu    Cu3+1 0.638630 0.500020 0.500020 1.004014
H1    H     H_    0.824366 0.389854 0.178536 0.195416
H2    H     H_    0.076839 0.550221 0.019412 0.173068
H3    H     H_    0.616774 0.341876 0.745305 0.152089
H4    H     H_    0.678773 0.112046 0.541134 0.111652
H5    H     H_    0.827188 0.949852 0.441169 0.342735
H6    H     H_    0.391195 0.907019 0.545016 0.113302
H7    H     H_    0.080559 0.623057 0.621630 0.136170
H8    H     H_    0.128664 0.450438 0.443840 0.248478
H9    H     H_    0.825186 0.632687 0.613975 0.153198
H10   H     H_    0.912516 0.438369 0.453554 0.229720
H11   H     H_    0.786587 0.297144 0.836927 0.180302
H12   H     H_    0.433292 0.558601 0.168663 0.193531
H13   H     H_    0.163346 0.560340 0.828927 0.142516
N1    N     N_2   0.152660 0.501340 0.501130 -0.331481
N2    N     N_2   0.846520 0.501370 0.501160 -0.336246
O1    O     O_R   0.382960 0.678040 0.499980 -0.503189
O2    O     O_R   0.617100 0.678080 0.500020 -0.429440
O3    O     O_R   0.325800 0.499940 0.650950 -0.505793
O4    O     O_R   0.559930 0.499980 0.650990 -0.521968
O5    O     O_R   0.382900 0.321920 0.499980 -0.446122
O6    O     O_R   0.617040 0.321960 0.500020 -0.533565
O7    O     O_R   0.440070 0.500020 0.349010 -0.463534
O8    O     O_R   0.674200 0.500060 0.349050 -0.482368
O9    O     O_3   0.753327 0.883555 0.454697 -0.647018

loop_
_geom_bond_atom_site_label_1
_geom_bond_atom_site_label_2
_ccdc_geom_bond_type
C12   C17   A    
H8    N1    S    
C2    C4    S    
Cu1   O3    S    
C6    C7    D    
C2    C18   A    
Cu1   O5    S    
Cu1   N1    S    
C19   C23   A    
C19   C20   A    
C23   H12   S    
C8    N1    D    
Cu2   O2    S    
C3    C6    S    
C8    C9    S    
C5    C10   S    
C18   C22   A    
C21   C22   A    
C16   H2    S    
C2    C15   A    
C1    O1    A    
H10   N2    S    
C21   H11   S    
C22   H3    S    
C5    Cl1   S    
C12   C19   A    
Cu1   Cu2   S    
C11   C14   S    
C14   C23   A    
Cu2   O6    S    
Cu2   N2    S    
C4    O4    A    
C13   Cl2   S    
Cu1   O7    S    
C24   H1    S    
C1    O2    A    
C11   O7    A    
C3    H4    S    
Cu2   O4    S    
C14   C24   A    
C15   C16   A    
C10   O6    A    
C20   C21   A    
C13   C24   A    
H5    O9    S    
C8    H7    S    
C12   C18   A    
Cu1   O1    S    
C9    H9    S    
C9    N2    D    
C11   O8    A    
C6    O9    S    
C13   C20   A    
C1    C7    S    
C10   O5    A    
C7    H6    S    
Cu2   O8    S    
C15   H13   S    
C16   C17   A    
C3    C5    D    
C4    O3    A    
C17   Cl3   S    
