data_mof_unit_46223.cif
_audit_creation_date              2012-12-11T17:43:20-0500
_audit_creation_method            fapswitch 2.2
_symmetry_space_group_name_H-M    P1
_symmetry_Int_Tables_number       1
_space_group_crystal_system       triclinic
_cell_length_a                    15.058859
_cell_length_b                    15.013313
_cell_length_c                    17.202931
_cell_angle_alpha                 108.646271
_cell_angle_beta                  105.668154
_cell_angle_gamma                 109.080334
_cell_volume                      3163.33790094

loop_
_atom_site_label
_atom_site_type_symbol
_atom_type_description
_atom_site_fract_x
_atom_site_fract_y
_atom_site_fract_z
_atom_type_partial_charge
C1    C     C_R   0.091503 0.278102 0.022399 -0.037562
C2    C     C_R   0.918306 0.714550 0.922755 -0.062929
C3    C     C_R   0.028004 0.467963 0.728173 0.013629
C4    C     C_R   0.971777 0.428572 0.255126 0.009299
C5    C     C_R   0.673325 0.215529 0.745286 -0.003181
C6    C     C_R   0.264509 0.806693 0.269054 0.010758
C7    C     C_R   0.361555 0.574493 0.066658 -0.039266
C8    C     C_R   0.701261 0.530910 0.021718 -0.058719
C9    C     C_R   0.923786 0.889904 0.873864 -0.165241
C10   C     C_R   0.104967 0.077226 0.958171 -0.100941
C11   C     C_R   0.015665 0.894296 0.926297 0.046085
C12   C     C_R   0.010019 0.077982 0.924131 0.067731
C13   C     C_R   0.109520 0.986946 0.960019 0.153012
C14   C     C_R   0.919968 0.980013 0.870061 0.152723
C15   C     C_R   0.816355 0.982925 0.729557 0.506660
C16   C     C_R   0.279874 0.056853 0.090482 0.463671
C17   C     C_R   0.628793 0.903115 0.670802 0.377086
C18   C     C_R   0.414787 0.013960 0.064681 0.435971
C19   C     C_R   0.549249 0.704543 0.372771 -0.243973
C20   C     C_R   0.471957 0.380458 0.722384 -0.250991
C21   C     C_R   0.548562 0.694286 0.288758 0.439053
C22   C     C_R   0.492405 0.411411 0.813696 0.433770
C23   C     C_R   0.936862 0.449681 0.737508 -0.053456
C24   C     C_R   0.062574 0.486616 0.254400 -0.063925
C25   C     C_R   0.530140 0.596858 0.223612 -0.234787
C26   C     C_R   0.533369 0.519060 0.873346 -0.238141
C27   C     C_R   0.509948 0.509851 0.243422 0.410663
C28   C     C_R   0.553831 0.594509 0.839965 0.415600
C29   C     C_R   0.510365 0.521234 0.327392 -0.261083
C30   C     C_R   0.534061 0.562501 0.748696 -0.261920
C31   C     C_R   0.530861 0.618382 0.392234 0.521542
C32   C     C_R   0.492334 0.455681 0.689844 0.538676
C33   C     C_R   0.619488 0.576176 0.122517 -0.071722
C34   C     C_R   0.465639 0.568902 0.984215 -0.069331
C35   C     C_R   0.621502 0.555188 0.037756 0.087397
C36   C     C_R   0.458847 0.582266 0.066219 0.092421
C37   C     C_R   0.543933 0.551769 0.967793 0.174841
C38   C     C_R   0.536111 0.586491 0.136772 0.180383
C39   C     C_R   0.719949 0.950942 0.662264 -0.344249
C40   C     C_R   0.379346 0.065012 0.123387 -0.349521
C41   C     C_R   0.960385 0.430337 0.335352 -0.151162
C42   C     C_R   0.033075 0.451913 0.643086 -0.138832
C43   C     C_R   0.053254 0.353458 0.513868 -0.129472
C44   C     C_R   0.934267 0.521580 0.462929 -0.115761
C45   C     C_R   0.724652 0.212094 0.822391 -0.154859
C46   C     C_R   0.234764 0.798452 0.183782 -0.122644
C47   C     C_R   0.061900 0.376561 0.601175 0.488877
C48   C     C_R   0.922982 0.498073 0.375732 0.458770
C49   C     C_R   0.998293 0.506685 0.600242 0.470451
C50   C     C_R   0.002061 0.379627 0.378847 0.495080
C51   C     C_R   0.981596 0.477459 0.510391 -0.101758
C52   C     C_R   0.011924 0.402193 0.467089 -0.113085
C53   C     C_R   0.585567 0.132274 0.666757 -0.020264
C54   C     C_R   0.338870 0.902472 0.346686 -0.010326
C55   C     C_R   0.517321 0.026923 0.423376 -0.030939
C56   C     C_R   0.401675 0.028263 0.589904 -0.000194
C57   C     C_R   0.432389 0.955248 0.344180 -0.177548
C58   C     C_R   0.489640 0.094113 0.669784 -0.146581
C59   C     C_R   0.323998 0.930349 0.425994 0.500992
C60   C     C_R   0.596725 0.105885 0.585590 0.454916
C61   C     C_R   0.410069 0.002904 0.507070 -0.025377
C62   C     C_R   0.508626 0.046165 0.505386 -0.005909
C63   C     C_R   0.633737 0.888312 0.747936 0.489869
C64   C     C_R   0.350036 0.953849 0.971990 0.496444
C65   C     C_R   0.729628 0.918471 0.814693 -0.384460
C66   C     C_R   0.250356 0.945090 0.938767 -0.340161
C67   C     C_R   0.304407 0.608047 0.017669 0.508618
C68   C     C_R   0.729739 0.458430 0.040247 0.511174
C69   C     C_R   0.821657 0.964940 0.805920 -0.158374
C70   C     C_R   0.214276 0.995721 0.997504 -0.154013
C71   C     C_R   0.728360 0.310763 0.749338 0.493803
C72   C     C_R   0.237925 0.706476 0.263853 0.501354
C73   C     C_R   0.295509 0.501962 0.082286 -0.176575
C74   C     C_R   0.746830 0.560394 0.969314 -0.157117
C75   C     C_R   0.108792 0.538190 0.811331 0.514285
C76   C     C_R   0.892279 0.394003 0.174613 0.570163
C77   C     C_R   0.918637 0.194308 0.948199 -0.025293
C78   C     C_R   0.088764 0.796763 0.001721 -0.055578
C79   C     C_R   0.006891 0.179925 0.959427 0.059539
C80   C     C_R   0.007940 0.806737 0.950848 0.081227
H1    H     H_    0.172299 0.296937 0.049146 0.127615
H2    H     H_    0.842195 0.688451 0.872747 0.118912
H3    H     H_    0.589945 0.062617 0.419356 0.219088
H4    H     H_    0.328058 0.998136 0.593790 0.207048
H5    H     H_    0.839265 0.136465 0.909089 0.117940
H6    H     H_    0.170000 0.842793 0.024854 0.112549
N1    N     N_R   0.055660 0.348550 0.045620 -0.055801
N2    N     N_R   0.944340 0.651450 0.954380 -0.051842
N3    N     N_R   0.960830 0.507850 0.823700 -0.074544
N4    N     N_R   0.039170 0.492150 0.176300 -0.089943
N5    N     N_R   0.811290 0.303410 0.871650 -0.072918
N6    N     N_R   0.188710 0.696590 0.128350 -0.072857
N7    N     N_R   0.205200 0.552990 0.997670 -0.104216
N8    N     N_R   0.794800 0.447010 0.002330 -0.101953
N9    N     N_R   0.814800 0.361830 0.823700 -0.093606
N10   N     N_R   0.185200 0.638170 0.176300 -0.102820
N11   N     N_R   0.201680 0.494570 0.045620 -0.077641
N12   N     N_R   0.798320 0.505430 0.954380 -0.074849
N13   N     N_R   0.068420 0.560530 0.871650 -0.105156
N14   N     N_R   0.931580 0.439470 0.128350 -0.119662
N15   N     N_R   0.948070 0.295860 0.997670 -0.053070
N16   N     N_R   0.051930 0.704140 0.002330 -0.054902
Ni1   Ni    Ni4+2 0.119340 0.493420 0.109960 0.262783
Ni2   Ni    Ni4+2 0.880660 0.506580 0.890040 0.274662
Ni3   Ni    Ni4+2 0.872590 0.372590 0.000000 0.306776
Ni4   Ni    Ni4+2 0.127410 0.627410 0.000000 0.288560
Cl1   Cl    Cl    0.927908 0.038108 0.712710 -0.493926
Cl2   Cl    Cl    0.238433 0.120919 0.167656 -0.539795
Cl3   Cl    Cl    0.533918 0.631506 0.498075 -0.452611
Cl4   Cl    Cl    0.465182 0.415895 0.574966 -0.432202
H7    H     H_    0.564723 0.779727 0.423104 0.228698
H8    H     H_    0.439733 0.297726 0.676524 0.208694
Cl5   Cl    Cl    0.573776 0.805609 0.268163 -0.529790
Cl6   Cl    Cl    0.461953 0.313106 0.850462 -0.560029
Cl7   Cl    Cl    0.479775 0.384239 0.163286 -0.510771
Cl8   Cl    Cl    0.605250 0.729819 0.911607 -0.497845
H9    H     H_    0.494925 0.454378 0.342362 0.236816
H10   H     H_    0.550242 0.620591 0.723315 0.234575
H11   H     H_    0.680527 0.579746 0.176126 0.193493
H12   H     H_    0.404062 0.561675 0.928528 0.184085
Cl9   Cl    Cl    0.044086 0.291433 0.322629 -0.506605
Cl10  Cl    Cl    0.978295 0.613814 0.661036 -0.589889
Cl11  Cl    Cl    0.869835 0.563235 0.322541 -0.563224
Cl12  Cl    Cl    0.107134 0.308743 0.655853 -0.491343
H13   H     H_    0.076754 0.295663 0.482820 0.230515
H14   H     H_    0.906810 0.575875 0.493028 0.230357
H15   H     H_    0.860364 0.402818 0.683668 0.212820
H16   H     H_    0.138489 0.509758 0.302262 0.217177
H17   H     H_    0.715659 0.960330 0.601786 0.247679
H18   H     H_    0.429242 0.111074 0.194890 0.230773
Cl13  Cl    Cl    0.722180 0.145996 0.585553 -0.625377
Cl14  Cl    Cl    0.199541 0.868013 0.422517 -0.523896
H19   H     H_    0.482945 0.117332 0.733572 0.207481
H20   H     H_    0.441956 0.934215 0.281581 0.208276
Cl15  Cl    Cl    0.509080 0.857657 0.582246 -0.506423
Cl16  Cl    Cl    0.540493 0.026622 0.109038 -0.352029
Cl17  Cl    Cl    0.520537 0.828015 0.760431 -0.371725
Cl18  Cl    Cl    0.391812 0.888897 0.896037 -0.323853
H21   H     H_    0.732587 0.903695 0.872761 0.251560
H22   H     H_    0.200749 0.898651 0.867173 0.237151
H23   H     H_    0.695661 0.153158 0.844442 0.159854
H24   H     H_    0.252571 0.861751 0.164599 0.146695
Cl19  Cl    Cl    0.357573 0.739320 0.033899 -0.531212
Cl20  Cl    Cl    0.661998 0.371646 0.075107 -0.454094
Cl21  Cl    Cl    0.678837 0.370160 0.687693 -0.644134
Cl22  Cl    Cl    0.299617 0.679381 0.349287 -0.581989
H25   H     H_    0.315793 0.466192 0.125173 0.164528
H26   H     H_    0.740343 0.614349 0.941785 0.156314
Cl23  Cl    Cl    0.236263 0.604936 0.826219 -0.507719
Cl24  Cl    Cl    0.793536 0.263891 0.122201 -0.458921
H27   H     H_    0.853043 0.816790 0.837113 0.152583
H28   H     H_    0.176799 0.148591 0.988837 0.159813

loop_
_geom_bond_atom_site_label_1
_geom_bond_atom_site_label_2
_ccdc_geom_bond_type
C1    N1    A    
C63   C65   A    
N8    Ni3   S    
C27   C29   A    
C34   C37   A    
C7    C36   S    
N5    Ni3   S    
C77   N15   A    
C67   Cl19  S    
C43   H13   S    
C48   Cl11  S    
C46   H24   S    
C64   Cl18  S    
C6    C72   A    
C44   H14   S    
N14   Ni3   S    
C32   Cl4   S    
C73   H25   S    
C5    C53   S    
C35   C37   A    
C6    C46   A    
C4    C24   A    
C78   C80   A    
C43   C52   A    
C71   N9    A    
C13   C70   S    
N8    N12   A    
C1    H1    S    
C12   C79   S    
N6    N10   A    
C3    C42   S    
C7    C67   A    
C60   C62   A    
C17   C39   A    
C15   Cl1   S    
N4    N14   A    
C18   C40   A    
C21   C25   A    
C28   Cl8   S    
C10   H28   S    
N1    N15   A    
C3    C23   A    
C24   H16   S    
C49   C51   A    
C17   Cl15  S    
C50   C52   A    
C23   N3    A    
C18   Cl16  S    
C3    C75   A    
C78   H6    S    
C19   C31   A    
C20   H8    S    
C4    C41   S    
C45   H23   S    
C63   Cl17  S    
C50   Cl9   S    
C6    C54   S    
C60   Cl13  S    
C75   N13   A    
N2    Ni2   S    
C53   C60   A    
C56   H4    S    
C54   C59   A    
C77   C79   A    
C58   H19   S    
N15   Ni3   S    
C15   C69   A    
C59   Cl14  S    
C59   C61   A    
C51   C52   A    
C16   C70   A    
C7    C73   A    
C39   H17   S    
C5    C45   A    
C68   N8    A    
C8    C35   S    
C64   C66   A    
C73   N11   A    
C9    C14   A    
C25   C38   S    
C76   Cl24  S    
C8    C74   A    
C31   Cl3   S    
C66   H22   S    
C2    N2    A    
C9    C11   A    
C15   C39   A    
N11   Ni1   S    
C10   C12   A    
C16   C40   A    
N1    Ni1   S    
C44   C51   A    
C21   Cl5   S    
C71   Cl21  S    
C12   C14   A    
C8    C68   A    
C55   C57   A    
N3    Ni2   S    
C1    C79   A    
C14   C69   S    
C57   H20   S    
C2    H2    S    
C76   N14   A    
C55   H3    S    
N7    N11   A    
C41   C50   A    
N9    Ni2   S    
C23   H15   S    
C20   C32   A    
N7    Ni4   S    
N6    Ni4   S    
C65   C69   A    
N13   Ni4   S    
C40   H18   S    
C9    H27   S    
C74   N12   A    
C19   C21   A    
C20   C22   A    
N3    N13   A    
C10   C13   A    
C24   N4    A    
C68   Cl20  S    
N2    N16   A    
C53   C58   A    
C26   C37   S    
C33   H11   S    
C19   H7    S    
C25   C27   A    
C30   H10   S    
C74   H26   S    
C26   C28   A    
C33   C38   A    
C36   C38   A    
C5    C71   A    
C17   C63   A    
C30   C32   A    
C11   C13   A    
C18   C64   A    
C47   Cl12  S    
C66   C70   A    
C29   H9    S    
C75   Cl23  S    
C72   Cl22  S    
C49   Cl10  S    
C28   C30   A    
C33   C35   A    
C41   C48   A    
C56   C58   A    
N16   Ni4   S    
C34   C36   A    
C42   C47   A    
C61   C62   A    
C45   N5    A    
C65   H21   S    
N4    Ni1   S    
C4    C76   A    
C2    C80   A    
C11   C80   S    
C16   Cl2   S    
C42   C49   A    
C77   H5    S    
C72   N10   A    
C22   Cl6   S    
C46   N6    A    
C55   C62   A    
C34   H12   S    
C29   C31   A    
C22   C26   A    
N10   Ni1   S    
C67   N7    A    
N5    N9    A    
C56   C61   A    
C78   N16   A    
C43   C47   A    
N12   Ni2   S    
C44   C48   A    
C54   C57   A    
C27   Cl7   S    
