data_mof_unit_19790.cif
_audit_creation_date              2012-12-10T19:35:19-0500
_audit_creation_method            fapswitch 2.2
_symmetry_space_group_name_H-M    P1
_symmetry_Int_Tables_number       1
_space_group_crystal_system       triclinic
_cell_length_a                    30.579415
_cell_length_b                    30.589908
_cell_length_c                    22.437187
_cell_angle_alpha                 89.996999
_cell_angle_beta                  89.988875
_cell_angle_gamma                 89.998122
_cell_volume                      20988.2264939

loop_
_atom_site_label
_atom_site_type_symbol
_atom_type_description
_atom_site_fract_x
_atom_site_fract_y
_atom_site_fract_z
_atom_type_partial_charge
C1    C     C_R   0.617340 0.119813 0.251402 -0.031503
C2    C     C_R   0.618693 0.881321 0.250041 -0.020570
C3    C     C_R   0.361674 0.131712 0.303989 0.208677
C4    C     C_R   0.896323 0.336799 0.753065 0.203203
C5    C     C_R   0.141489 0.627240 0.300625 0.194387
C6    C     C_R   0.337294 0.107796 0.737888 0.205093
C7    C     C_R   0.642254 0.871424 0.302841 0.208976
C8    C     C_R   0.892466 0.660146 0.230460 0.193321
C9    C     C_R   0.143460 0.375614 0.698731 0.203288
C10   C     C_R   0.336467 0.894591 0.262935 0.206761
C11   C     C_R   0.641833 0.129753 0.699211 0.207117
C12   C     C_R   0.105693 0.337246 0.252813 0.202812
C13   C     C_R   0.883110 0.381056 0.751122 -0.022499
C14   C     C_R   0.857443 0.625479 0.698214 0.203428
C15   C     C_R   0.661284 0.110740 0.267080 0.205768
C16   C     C_R   0.363126 0.868252 0.693057 0.207437
C17   C     C_R   0.636334 0.197001 0.242963 0.116653
C18   C     C_R   0.335368 0.828322 0.798329 0.103794
C19   C     C_R   0.194137 0.361260 0.251829 0.094616
C20   C     C_R   0.844254 0.676685 0.800272 0.120411
C21   C     C_R   0.356084 0.807271 0.237524 0.116496
C22   C     C_R   0.668451 0.164422 0.808540 0.105882
C23   C     C_R   0.807977 0.640362 0.271454 0.102704
C24   C     C_R   0.116968 0.618420 0.249048 -0.006518
C25   C     C_R   0.155453 0.322975 0.799794 0.121611
C26   C     C_R   0.360465 0.195241 0.756417 0.112051
C27   C     C_R   0.664251 0.828837 0.196767 0.094288
C28   C     C_R   0.807378 0.357963 0.746176 0.121135
C29   C     C_R   0.152542 0.678540 0.198077 0.109383
C30   C     C_R   0.640458 0.805491 0.763347 0.118861
C31   C     C_R   0.331965 0.166317 0.196218 0.103105
C32   C     C_R   0.196204 0.634801 0.742047 0.108791
C33   C     C_R   0.840962 0.325898 0.200369 0.110919
C34   C     C_R   0.142279 0.692539 0.751407 0.120608
C35   C     C_R   0.618601 0.881456 0.750002 -0.030929
C36   C     C_R   0.821132 0.347368 0.301007 0.119807
C37   C     C_R   0.694624 0.859694 0.736664 0.118798
C38   C     C_R   0.333131 0.167509 0.303839 0.102698
C39   C     C_R   0.864799 0.304107 0.759224 0.109677
C40   C     C_R   0.174162 0.659283 0.298862 0.111062
C41   C     C_R   0.304864 0.139805 0.743470 0.112586
C42   C     C_R   0.671187 0.835857 0.303443 0.094416
C43   C     C_R   0.859623 0.692002 0.228732 0.102497
C44   C     C_R   0.177514 0.345167 0.700315 0.121603
C45   C     C_R   0.302792 0.863990 0.256464 0.115917
C46   C     C_R   0.381534 0.118328 0.250025 -0.021539
C47   C     C_R   0.671721 0.164452 0.700994 0.102150
C48   C     C_R   0.138042 0.305260 0.247839 0.106218
C49   C     C_R   0.823272 0.655773 0.699902 0.120466
C50   C     C_R   0.692923 0.143616 0.262158 0.116641
C51   C     C_R   0.336259 0.831214 0.690757 0.108436
C52   C     C_R   0.680505 0.187183 0.252425 -0.022018
C53   C     C_R   0.320027 0.812663 0.743422 -0.031338
C54   C     C_R   0.182418 0.316907 0.250062 -0.055869
C55   C     C_R   0.817415 0.682603 0.750097 -0.034457
C56   C     C_R   0.312504 0.819816 0.246986 -0.022579
C57   C     C_R   0.119073 0.616794 0.748728 -0.023414
C58   C     C_R   0.687103 0.180272 0.755759 -0.032304
C59   C     C_R   0.817509 0.682484 0.250142 -0.034268
C60   C     C_R   0.182808 0.317727 0.749993 -0.032728
C61   C     C_R   0.316294 0.183935 0.749947 -0.041352
C62   C     C_R   0.684070 0.815997 0.250128 -0.032783
C63   C     C_R   0.820276 0.314184 0.753272 -0.038450
C64   C     C_R   0.179116 0.685898 0.248206 -0.025310
C65   C     C_R   0.683927 0.816235 0.750009 -0.016706
C66   C     C_R   0.316045 0.183289 0.250034 -0.038916
C67   C     C_R   0.186135 0.679429 0.746025 -0.039301
C68   C     C_R   0.881629 0.382933 0.250842 -0.011099
C69   C     C_R   0.814111 0.320842 0.250774 -0.027639
C70   C     C_R   0.779394 0.287128 0.251519 -0.029502
C71   C     C_R   0.221324 0.712513 0.743999 -0.044737
C72   C     C_R   0.281705 0.217550 0.250037 -0.049738
C73   C     C_R   0.718199 0.782027 0.750053 -0.025066
C74   C     C_R   0.212584 0.720881 0.247333 -0.029009
C75   C     C_R   0.787082 0.279088 0.755084 -0.044470
C76   C     C_R   0.718305 0.781732 0.250177 -0.043443
C77   C     C_R   0.282086 0.218243 0.749961 -0.030679
C78   C     C_R   0.217013 0.283578 0.749901 -0.031116
C79   C     C_R   0.742717 0.226518 0.301038 0.234220
C80   C     C_R   0.783349 0.716645 0.250184 -0.046858
C81   C     C_R   0.722416 0.213493 0.757564 -0.037694
C82   C     C_R   0.277234 0.786616 0.246683 -0.024549
C83   C     C_R   0.783282 0.716870 0.750099 -0.035074
C84   C     C_R   0.216577 0.282677 0.250034 -0.051737
C85   C     C_R   0.286912 0.777214 0.741427 -0.036317
C86   C     C_R   0.713819 0.222348 0.252453 -0.024125
C87   C     C_3   0.713724 0.222751 0.393932 0.017738
C88   C     C_3   0.701029 0.191060 0.443573 -0.277003
C89   C     C_3   0.678748 0.214545 0.495287 -0.475740
C90   C     C_R   0.248716 0.781919 0.706821 0.235404
C91   C     C_3   0.211573 0.846869 0.701696 0.030802
C92   C     C_3   0.177964 0.862553 0.656029 -0.249643
C93   C     C_3   0.148347 0.897884 0.681960 -0.490347
C94   C     C_3   0.183977 0.273554 0.377931 0.010986
C95   C     C_3   0.214682 0.256590 0.426552 -0.263942
C96   C     C_3   0.212597 0.285821 0.481677 -0.482625
C97   C     C_3   0.846806 0.772361 0.672960 0.022770
C98   C     C_3   0.880742 0.770977 0.623067 -0.262641
C99   C     C_3   0.921299 0.797534 0.639042 -0.492746
C100  C     C_3   0.271076 0.793424 0.391076 0.031109
C101  C     C_R   0.214134 0.247300 0.290614 0.250836
C102  C     C_3   0.251176 0.812028 0.448242 -0.268487
C103  C     C_3   0.276997 0.798253 0.503276 -0.483803
C104  C     C_3   0.785218 0.136822 0.734706 0.002527
C105  C     C_3   0.835180 0.139188 0.738969 -0.244731
C106  C     C_3   0.853429 0.101543 0.775984 -0.491025
C107  C     C_3   0.826906 0.743373 0.367893 0.013415
C108  C     C_3   0.808814 0.774821 0.414991 -0.256834
C109  C     C_3   0.810404 0.754489 0.477068 -0.494385
C110  C     C_3   0.152874 0.227995 0.669506 0.024757
C111  C     C_3   0.120361 0.231664 0.618073 -0.263033
C112  C     C_R   0.382541 0.880566 0.747857 -0.021833
C113  C     C_R   0.780626 0.746995 0.702634 0.226124
C114  C     C_3   0.080646 0.202385 0.627938 -0.492901
C115  C     C_3   0.280293 0.204758 0.611453 0.028333
C116  C     C_3   0.264126 0.186007 0.552379 -0.269995
C117  C     C_3   0.296611 0.194316 0.502072 -0.484855
C118  C     C_3   0.782119 0.859599 0.251384 0.003997
C119  C     C_3   0.831450 0.857097 0.239889 -0.244177
C120  C     C_3   0.845951 0.891577 0.194907 -0.491169
C121  C     C_3   0.819621 0.260701 0.627513 0.015889
C122  C     C_3   0.805358 0.229872 0.577445 -0.256598
C123  C     C_3   0.803307 0.253568 0.517680 -0.492849
C124  C     C_R   0.247907 0.783211 0.294979 0.226221
C125  C     C_3   0.150241 0.781167 0.326747 0.022558
C126  C     C_3   0.116622 0.779649 0.377044 -0.264846
C127  C     C_3   0.081108 0.814108 0.368459 -0.490625
C128  C     C_3   0.718193 0.778029 0.606436 0.020290
C129  C     C_3   0.702786 0.808747 0.557098 -0.276144
C130  C     C_3   0.682255 0.783662 0.505448 -0.478841
C131  C     C_3   0.219231 0.142133 0.281302 0.004941
C132  C     C_3   0.169158 0.143714 0.281763 -0.244783
C133  C     C_3   0.149648 0.104796 0.248594 -0.492055
C134  C     C_3   0.195822 0.728880 0.611390 0.017491
C135  C     C_R   0.761257 0.207321 0.724448 0.250586
C136  C     C_3   0.159188 0.733948 0.565697 -0.273778
C137  C     C_3   0.170061 0.710335 0.507680 -0.478041
C138  C     C_3   0.843494 0.231183 0.328084 0.023334
C139  C     C_3   0.878058 0.233743 0.377093 -0.263399
C140  C     C_3   0.918572 0.207103 0.361156 -0.491745
C141  C     C_3   0.237330 0.682105 0.872757 0.017585
C142  C     C_3   0.267376 0.694134 0.924729 -0.259216
C143  C     C_3   0.241915 0.697760 0.983014 -0.487968
C144  C     C_3   0.719131 0.349132 0.171730 0.022364
C145  C     C_3   0.720998 0.382791 0.121531 -0.264561
C146  C     C_R   0.790426 0.756466 0.280398 0.246295
C147  C     C_3   0.686575 0.418371 0.129866 -0.490958
C148  C     C_3   0.722071 0.782072 0.893716 0.020261
C149  C     C_3   0.691292 0.797478 0.943002 -0.276121
C150  C     C_3   0.716329 0.818002 0.994702 -0.478894
C151  C     C_3   0.357149 0.279939 0.218870 0.004371
C152  C     C_3   0.355858 0.329991 0.218014 -0.243944
C153  C     C_3   0.394705 0.349408 0.251459 -0.491584
C154  C     C_3   0.768062 0.306987 0.886409 0.017688
C155  C     C_3   0.765916 0.346179 0.928436 -0.272239
C156  C     C_3   0.787725 0.336185 0.988052 -0.482463
C157  C     C_R   0.218429 0.252351 0.703810 0.235526
C158  C     C_3   0.268832 0.657231 0.170316 0.023489
C159  C     C_3   0.267288 0.623371 0.120345 -0.261603
C160  C     C_3   0.293281 0.582488 0.136518 -0.489065
C161  C     C_3   0.295709 0.219596 0.888102 0.028162
C162  C     C_3   0.313963 0.235638 0.947525 -0.269622
C163  C     C_3   0.305706 0.202800 0.997411 -0.485094
C164  C     C_3   0.640346 0.718025 0.249025 0.003911
C165  C     C_3   0.642792 0.668713 0.260553 -0.244160
C166  C     C_3   0.608294 0.654281 0.305568 -0.491039
C167  C     C_3   0.756564 0.673192 0.132430 0.013353
C168  C     C_R   0.251569 0.220703 0.702869 0.235255
C169  C     C_3   0.725174 0.691510 0.085422 -0.256755
C170  C     C_3   0.745528 0.690030 0.023348 -0.494569
C171  C     C_3   0.272542 0.347984 0.829129 0.024423
C172  C     C_3   0.268414 0.381206 0.879642 -0.263068
C173  C     C_3   0.297052 0.421217 0.868583 -0.491683
C174  C     C_3   0.277168 0.787221 0.105431 0.017466
C175  C     C_3   0.308686 0.798983 0.055156 -0.276642
C176  C     C_3   0.285248 0.821690 0.003758 -0.475233
C177  C     C_3   0.650696 0.286241 0.790099 0.028089
C178  C     C_3   0.631984 0.321572 0.830935 -0.250020
C179  C     C_R   0.759810 0.790295 0.275163 0.247176
C180  C     C_3   0.596360 0.347919 0.799725 -0.489203
C181  C     C_3   0.225388 0.314554 0.121882 0.012171
C182  C     C_3   0.242538 0.283936 0.073283 -0.263792
C183  C     C_3   0.213055 0.285494 0.018376 -0.481312
C184  C     C_3   0.726958 0.653857 0.827378 0.022804
C185  C     C_3   0.727800 0.620016 0.877383 -0.262545
C186  C     C_3   0.700048 0.580172 0.861903 -0.493286
C187  C     C_3   0.707339 0.228265 0.107918 0.030628
C188  C     C_3   0.687891 0.247262 0.050733 -0.267178
C189  C     C_3   0.702693 0.221947 0.995767 -0.484608
C190  C     C_R   0.791225 0.241669 0.718669 0.245738
C191  C     C_3   0.363226 0.714572 0.767308 0.001942
C192  C     C_3   0.360708 0.664588 0.764143 -0.244660
C193  C     C_3   0.398681 0.645749 0.728288 -0.491106
C194  C     C_3   0.559971 0.168880 0.156488 0.046132
C195  C     C_3   0.567079 0.212244 0.124007 -0.278917
C196  C     C_3   0.567765 0.205339 0.056809 -0.509225
C197  C     C_3   0.425393 0.838943 0.863674 0.033978
C198  C     C_3   0.411167 0.795568 0.892004 -0.282286
C199  C     C_3   0.450108 0.765635 0.903348 -0.505531
C200  C     C_3   0.188233 0.444105 0.181710 0.035880
C201  C     C_R   0.214059 0.752150 0.293429 0.229416
C202  C     C_3   0.191157 0.493184 0.169789 -0.245735
C203  C     C_3   0.205056 0.502269 0.105616 -0.510075
C204  C     C_3   0.877939 0.604281 0.889714 0.036690
C205  C     C_3   0.857620 0.626531 0.944224 -0.265374
C206  C     C_3   0.839335 0.592977 0.988010 -0.499371
C207  C     C_3   0.435700 0.831322 0.153873 0.042241
C208  C     C_3   0.425939 0.788939 0.120225 -0.278139
C209  C     C_3   0.430942 0.795489 0.053254 -0.507714
C210  C     C_3   0.575180 0.159384 0.866350 0.034394
C211  C     C_3   0.591546 0.201468 0.896147 -0.282799
C212  C     C_R   0.745903 0.776910 0.700338 0.232853
C213  C     C_3   0.554454 0.233764 0.906692 -0.508872
C214  C     C_3   0.808909 0.541735 0.247966 0.017794
C215  C     C_3   0.807582 0.493875 0.267544 -0.226488
C216  C     C_3   0.786940 0.464906 0.219881 -0.487781
C217  C     C_3   0.118449 0.394979 0.889105 0.037316
C218  C     C_3   0.139863 0.373562 0.943343 -0.268977
C219  C     C_3   0.157029 0.407763 0.987062 -0.506250
C220  C     C_3   0.440678 0.170088 0.839047 0.045714
C221  C     C_3   0.433574 0.213312 0.871768 -0.278150
C222  C     C_3   0.434071 0.206123 0.938933 -0.509866
C223  C     C_R   0.117599 0.381803 0.249979 -0.015414
C224  C     C_R   0.243886 0.212748 0.285575 0.252023
C225  C     C_3   0.571111 0.834748 0.139919 0.032681
C226  C     C_3   0.586366 0.790392 0.115420 -0.280679
C227  C     C_3   0.548088 0.759757 0.103561 -0.504807
C228  C     C_3   0.818054 0.451395 0.804997 0.045564
C229  C     C_3   0.769294 0.454297 0.819795 -0.270636
C230  C     C_3   0.762007 0.476261 0.880082 -0.509652
C231  C     C_3   0.123131 0.613041 0.104636 0.024647
C232  C     C_3   0.094024 0.600680 0.051898 -0.242061
C233  C     C_3   0.119259 0.574617 0.005137 -0.489766
C234  C     C_3   0.565046 0.833657 0.851320 0.042956
C235  C     C_R   0.218179 0.747881 0.704118 0.232338
C236  C     C_3   0.573420 0.791113 0.885345 -0.279411
C237  C     C_3   0.570276 0.798257 0.952472 -0.507833
C238  C     C_3   0.423216 0.157936 0.133031 0.036566
C239  C     C_3   0.407927 0.198715 0.099241 -0.284599
C240  C     C_3   0.444882 0.231583 0.091208 -0.506184
C241  C     C_3   0.179934 0.545709 0.809602 0.044798
C242  C     C_3   0.228309 0.544299 0.827023 -0.272610
C243  C     C_3   0.234175 0.525459 0.889523 -0.506063
C244  C     C_3   0.875137 0.388635 0.106397 0.023324
C245  C     C_3   0.905420 0.400045 0.054459 -0.242023
C246  C     C_R   0.777231 0.256627 0.298600 0.227573
C247  C     C_3   0.882613 0.429184 0.008769 -0.488707
C248  C     C_3   0.049821 0.681074 0.690300 0.046436
C249  C     C_3   0.047447 0.729545 0.673760 -0.270635
C250  C     C_3   0.026053 0.735855 0.612886 -0.509596
C251  C     C_3   0.894915 0.379833 0.390124 0.038631
C252  C     C_3   0.872708 0.361582 0.445993 -0.263895
C253  C     C_3   0.906144 0.342642 0.489465 -0.505280
C254  C     C_3   0.666375 0.935007 0.648674 0.042836
C255  C     C_3   0.708921 0.926556 0.614649 -0.279442
C256  C     C_3   0.701787 0.929740 0.547530 -0.507848
C257  C     C_R   0.258242 0.708979 0.781465 0.245763
C258  C     C_3   0.342113 0.076425 0.367066 0.036658
C259  C     C_3   0.301168 0.091498 0.400701 -0.284677
C260  C     C_3   0.268641 0.054280 0.409010 -0.506412
C261  C     C_3   0.955129 0.319218 0.694369 0.044340
C262  C     C_3   0.956906 0.270580 0.678506 -0.272723
C263  C     C_3   0.976517 0.263707 0.616641 -0.507136
C264  C     C_3   0.111207 0.625873 0.393104 0.023414
C265  C     C_3   0.100814 0.596528 0.446398 -0.242484
C266  C     C_3   0.072141 0.620027 0.492011 -0.490749
C267  C     C_3   0.329867 0.059402 0.661014 0.045900
C268  C     C_R   0.748168 0.285447 0.205408 0.228976
C269  C     C_3   0.286673 0.066567 0.628225 -0.278080
C270  C     C_3   0.293928 0.066047 0.561071 -0.509878
C271  C     C_3   0.665146 0.929018 0.360140 0.032874
C272  C     C_3   0.709516 0.913852 0.384715 -0.280685
C273  C     C_3   0.740069 0.952184 0.396612 -0.504809
C274  C     C_3   0.958322 0.691047 0.251719 0.017269
C275  C     C_3   0.006162 0.692253 0.231967 -0.226603
C276  C     C_3   0.035239 0.713034 0.279394 -0.487231
C277  C     C_3   0.106091 0.382256 0.610559 0.037244
C278  C     C_3   0.128310 0.361780 0.556244 -0.268225
C279  C     C_R   0.723279 0.754376 0.799807 0.232041
C280  C     C_3   0.094770 0.344681 0.511574 -0.506621
C281  C     C_3   0.330931 0.939857 0.343602 0.045611
C282  C     C_3   0.287498 0.932413 0.375853 -0.278909
C283  C     C_3   0.294260 0.931254 0.443062 -0.508767
C284  C     C_3   0.661498 0.074117 0.636562 0.034134
C285  C     C_3   0.704993 0.088412 0.608562 -0.282111
C286  C     C_3   0.734897 0.049504 0.596920 -0.505330
C287  C     C_3   0.048505 0.319802 0.314592 0.045710
C288  C     C_3   0.045896 0.271419 0.331628 -0.270806
C289  C     C_3   0.026000 0.265588 0.393521 -0.506559
C290  C     C_R   0.286501 0.255330 0.214480 0.251555
C291  C     C_3   0.895537 0.622035 0.610294 0.037102
C292  C     C_3   0.873235 0.641880 0.555508 -0.264874
C293  C     C_3   0.906742 0.660167 0.511641 -0.499080
C294  C     C_3   0.668637 0.064447 0.346410 0.042134
C295  C     C_3   0.711081 0.074193 0.379963 -0.278309
C296  C     C_3   0.704552 0.069481 0.446986 -0.507846
C297  C     C_3   0.341377 0.924667 0.633126 0.034337
C298  C     C_3   0.299135 0.908377 0.603663 -0.283087
C299  C     C_3   0.266905 0.945554 0.593278 -0.508640
C300  C     C_R   0.751058 0.282806 0.793808 0.234940
C301  C     C_R   0.243106 0.723241 0.200272 0.228009
C302  C     C_R   0.279761 0.248830 0.796992 0.236031
C303  C     C_R   0.882238 0.617733 0.750039 -0.015300
C304  C     C_R   0.709698 0.740239 0.225226 0.247045
C305  C     C_R   0.743508 0.709605 0.219982 0.246361
C306  C     C_R   0.248282 0.282115 0.795946 0.236485
C307  C     C_R   0.273158 0.757802 0.198008 0.233856
C308  C     C_R   0.717214 0.252097 0.791155 0.235315
C309  C     C_R   0.251923 0.285020 0.209373 0.251410
C310  C     C_R   0.753155 0.719624 0.797556 0.226156
C311  C     C_R   0.717196 0.251519 0.203993 0.225972
C312  C     C_R   0.292682 0.738817 0.775623 0.251563
C313  C     C_R   0.000024 0.500003 0.409916 0.507621
C314  C     C_R   0.380096 0.882746 0.248523 -0.031458
C315  C     C_R   0.000034 0.500005 0.590082 0.509973
C316  C     C_R   0.499997 0.000003 0.409919 0.515318
C317  C     C_R   0.500002 0.999999 0.590081 0.515653
C318  C     C_R   0.500001 0.999999 0.909914 0.515472
C319  C     C_R   0.499997 0.000001 0.090086 0.515241
C320  C     C_R   0.999998 0.499997 0.909924 0.508386
C321  C     C_R   0.000003 0.499997 0.090079 0.501988
C322  C     C_R   0.916059 0.583936 0.249996 0.589664
C323  C     C_R   0.083947 0.416053 0.750035 0.585787
C324  C     C_R   0.584064 0.084451 0.250244 0.550521
C325  C     C_R   0.619398 0.117543 0.751852 -0.021595
C326  C     C_R   0.415866 0.915698 0.749798 0.565073
C327  C     C_R   0.083867 0.415836 0.249801 0.575792
C328  C     C_R   0.916033 0.583953 0.750003 0.586295
C329  C     C_R   0.415540 0.915940 0.249771 0.550568
C330  C     C_R   0.584307 0.084144 0.750161 0.564684
C331  C     C_R   0.084153 0.583915 0.749910 0.573522
C332  C     C_R   0.915951 0.416149 0.250171 0.580197
C333  C     C_R   0.415764 0.084241 0.749995 0.552960
C334  C     C_R   0.584295 0.915708 0.250006 0.558967
C335  C     C_R   0.916077 0.415868 0.750082 0.575602
C336  C     C_R   0.882283 0.617690 0.250003 -0.000034
C337  C     C_R   0.083899 0.583988 0.249943 0.584093
C338  C     C_R   0.584258 0.915753 0.749997 0.548570
C339  C     C_R   0.415802 0.084186 0.250017 0.567671
C340  C     C_1   0.000006 0.499994 0.026702 -0.045993
C341  C     C_1   1.000000 0.499995 0.973305 -0.044352
C342  C     C_1   0.499998 0.000002 0.026701 -0.024115
C343  C     C_1   0.499999 0.999999 0.973299 -0.024234
C344  C     C_1   0.500003 0.000000 0.526700 -0.024244
C345  C     C_1   0.499996 0.000002 0.473300 -0.024162
C346  C     C_1   0.000069 0.500020 0.526698 -0.041270
C347  C     C_R   0.117805 0.382367 0.750038 -0.015926
C348  C     C_1   0.000065 0.500017 0.473298 -0.041631
C349  C     C_R   0.605595 0.163420 0.236822 0.206674
C350  C     C_R   0.370009 0.858263 0.800426 0.206812
C351  C     C_R   0.162063 0.393596 0.246703 0.195453
C352  C     C_R   0.874510 0.642485 0.801909 0.203679
C353  C     C_R   0.389091 0.838800 0.232856 0.205858
C354  C     C_R   0.631536 0.137363 0.806460 0.207607
C355  C     C_R   0.839816 0.607508 0.269570 0.193541
C356  C     C_R   0.124860 0.356892 0.801442 0.203010
C357  C     C_R   0.392389 0.162739 0.762033 0.205106
C358  C     C_R   0.381493 0.118578 0.749962 -0.033328
C359  C     C_R   0.628648 0.857737 0.197282 0.209029
C360  C     C_R   0.838197 0.391559 0.749823 0.203292
C361  C     C_R   0.123285 0.643334 0.197107 0.179068
C362  C     C_R   0.608783 0.838254 0.768706 0.206343
C363  C     C_R   0.367996 0.138057 0.196063 0.208658
C364  C     C_R   0.163355 0.603479 0.748500 0.203382
C365  C     C_R   0.873026 0.358560 0.199039 0.196786
C366  C     C_R   0.108661 0.661735 0.747986 0.203696
C367  C     C_R   0.856363 0.376429 0.302562 0.189146
C368  C     C_R   0.661811 0.891316 0.731302 0.206250
F1    F     F_    0.622986 0.239276 0.239329 -0.157205
F2    F     F_    0.678941 0.812559 0.144117 -0.174611
F3    F     F_    0.764859 0.368115 0.735441 -0.156008
F4    F     F_    0.154513 0.705803 0.150350 -0.155789
F5    F     F_    0.628691 0.763071 0.771371 -0.157739
F6    F     F_    0.312992 0.177669 0.143750 -0.167075
F7    F     F_    0.237872 0.621552 0.731373 -0.158788
F8    F     F_    0.836685 0.298686 0.152871 -0.155206
F9    F     F_    0.132063 0.735265 0.760259 -0.156879
F10   F     F_    0.793584 0.345309 0.348413 -0.156557
F11   F     F_    0.737046 0.871506 0.728642 -0.157550
F12   F     F_    0.317308 0.813953 0.850073 -0.167055
F13   F     F_    0.321647 0.186408 0.356305 -0.167108
F14   F     F_    0.877731 0.262600 0.771552 -0.158852
F15   F     F_    0.201412 0.663850 0.346277 -0.155698
F16   F     F_    0.262127 0.127730 0.742036 -0.154500
F17   F     F_    0.687448 0.821235 0.356131 -0.174472
F18   F     F_    0.868614 0.731903 0.205143 -0.163794
F19   F     F_    0.205686 0.342704 0.653628 -0.154822
F20   F     F_    0.260533 0.877470 0.259832 -0.157209
F21   F     F_    0.686336 0.182092 0.649110 -0.168397
F22   F     F_    0.126077 0.262893 0.240009 -0.160134
F23   F     F_    0.236633 0.373327 0.258218 -0.158884
F24   F     F_    0.795560 0.658643 0.652768 -0.156097
F25   F     F_    0.735884 0.132951 0.267354 -0.157760
F26   F     F_    0.325289 0.814122 0.636914 -0.161317
F27   F     F_    0.841456 0.704391 0.847418 -0.156144
F28   F     F_    0.366631 0.764294 0.232331 -0.157978
F29   F     F_    0.685398 0.175923 0.862257 -0.163338
F30   F     F_    0.768069 0.631362 0.295062 -0.163568
F31   F     F_    0.158209 0.294968 0.846622 -0.154387
F32   F     F_    0.372662 0.237931 0.757856 -0.154580
H1    H     H_    0.683022 0.236650 0.374771 0.126996
H2    H     H_    0.195044 0.875762 0.616272 0.160583
H3    H     H_    0.226366 0.743046 0.592382 0.150169
H4    H     H_    0.128454 0.720162 0.584242 0.162771
H5    H     H_    0.153943 0.769235 0.556216 0.161946
H6    H     H_    0.200550 0.723616 0.487830 0.170428
H7    H     H_    0.142914 0.715096 0.475578 0.142219
H8    H     H_    0.174143 0.674748 0.515821 0.155265
H9    H     H_    0.858398 0.242837 0.285592 0.130500
H10   H     H_    0.833094 0.196463 0.322854 0.161854
H11   H     H_    0.887733 0.268394 0.383946 0.163367
H12   H     H_    0.864111 0.221018 0.419385 0.169433
H13   H     H_    0.157576 0.834456 0.641443 0.197361
H14   H     H_    0.909628 0.172413 0.353067 0.151032
H15   H     H_    0.942208 0.208372 0.398649 0.142961
H16   H     H_    0.934488 0.220709 0.320688 0.155104
H17   H     H_    0.220007 0.651187 0.883692 0.135505
H18   H     H_    0.211553 0.707733 0.867479 0.119203
H19   H     H_    0.293073 0.668684 0.929698 0.175891
H20   H     H_    0.283604 0.725905 0.915305 0.198637
H21   H     H_    0.216828 0.723907 0.979763 0.153362
H22   H     H_    0.264784 0.705970 0.019721 0.176320
H23   H     H_    0.225670 0.666226 0.993689 0.147118
H24   H     H_    0.130454 0.885131 0.721390 0.155947
H25   H     H_    0.727343 0.365742 0.214541 0.122302
H26   H     H_    0.685264 0.335792 0.174293 0.174702
H27   H     H_    0.754029 0.397975 0.120473 0.155354
H28   H     H_    0.715181 0.366219 0.078164 0.168563
H29   H     H_    0.653247 0.404057 0.127200 0.149678
H30   H     H_    0.690081 0.443277 0.094181 0.142982
H31   H     H_    0.690624 0.434604 0.173761 0.146278
H32   H     H_    0.738967 0.811394 0.875007 0.124603
H33   H     H_    0.746859 0.759548 0.913127 0.178585
H34   H     H_    0.668464 0.822149 0.924226 0.162974
H35   H     H_    0.124148 0.908200 0.647856 0.143416
H36   H     H_    0.671906 0.769347 0.959933 0.174459
H37   H     H_    0.738224 0.793489 0.015754 0.150692
H38   H     H_    0.692774 0.829914 0.028661 0.182154
H39   H     H_    0.736102 0.846146 0.978813 0.152598
H40   H     H_    0.389212 0.269092 0.200991 0.141095
H41   H     H_    0.355642 0.267745 0.265741 0.122359
H42   H     H_    0.356434 0.341705 0.171120 0.189619
H43   H     H_    0.325213 0.341597 0.239361 0.201588
H44   H     H_    0.394459 0.338480 0.298676 0.154936
H45   H     H_    0.392665 0.385640 0.250407 0.153330
H46   H     H_    0.167983 0.926832 0.695288 0.149845
H47   H     H_    0.425887 0.339202 0.230190 0.148384
H48   H     H_    0.803118 0.298537 0.878928 0.130557
H49   H     H_    0.751200 0.278797 0.907802 0.153541
H50   H     H_    0.782812 0.374415 0.907477 0.162341
H51   H     H_    0.731170 0.355201 0.936288 0.165675
H52   H     H_    0.771254 0.308290 0.010379 0.170526
H53   H     H_    0.785375 0.365305 0.017349 0.135850
H54   H     H_    0.822824 0.328200 0.981373 0.156939
H55   H     H_    0.256696 0.641686 0.212117 0.129415
H56   H     H_    0.303406 0.667822 0.176701 0.161201
H57   H     H_    0.150873 0.278110 0.397386 0.139500
H58   H     H_    0.232734 0.614126 0.111608 0.155100
H59   H     H_    0.281146 0.637775 0.079003 0.168198
H60   H     H_    0.327960 0.591035 0.145524 0.150864
H61   H     H_    0.292219 0.558992 0.098834 0.144534
H62   H     H_    0.279003 0.566560 0.176534 0.153026
H63   H     H_    0.308551 0.186300 0.878574 0.134220
H64   H     H_    0.259313 0.217870 0.892211 0.139052
H65   H     H_    0.349596 0.241404 0.943504 0.172390
H66   H     H_    0.298600 0.267434 0.958927 0.178055
H67   H     H_    0.270255 0.195577 0.001504 0.153874
H68   H     H_    0.195073 0.306449 0.363187 0.123249
H69   H     H_    0.317424 0.216726 0.040162 0.179419
H70   H     H_    0.323650 0.171913 0.988521 0.158744
H71   H     H_    0.606546 0.726257 0.234811 0.140428
H72   H     H_    0.646187 0.736418 0.291256 0.124373
H73   H     H_    0.637681 0.650796 0.218019 0.189480
H74   H     H_    0.675605 0.660150 0.278271 0.199491
H75   H     H_    0.613165 0.671462 0.348680 0.153126
H76   H     H_    0.611103 0.618534 0.313266 0.153586
H77   H     H_    0.574979 0.661466 0.288438 0.150014
H78   H     H_    0.765540 0.639249 0.119734 0.139504
H79   H     H_    0.205221 0.222726 0.439018 0.188790
H80   H     H_    0.787650 0.692324 0.132414 0.124006
H81   H     H_    0.694492 0.672028 0.085428 0.184441
H82   H     H_    0.716914 0.725968 0.096305 0.193901
H83   H     H_    0.775323 0.710764 0.021680 0.154577
H84   H     H_    0.721669 0.702467 0.990159 0.166115
H85   H     H_    0.754358 0.655936 0.011379 0.145328
H86   H     H_    0.261600 0.363759 0.786873 0.128281
H87   H     H_    0.307483 0.338092 0.824863 0.170168
H88   H     H_    0.233773 0.391821 0.883553 0.159669
H89   H     H_    0.278287 0.365637 0.922355 0.171184
H90   H     H_    0.248750 0.256099 0.409317 0.171985
H91   H     H_    0.331857 0.411407 0.863891 0.150934
H92   H     H_    0.294221 0.443976 0.906915 0.143136
H93   H     H_    0.286354 0.438471 0.827524 0.154212
H94   H     H_    0.264198 0.818277 0.124704 0.127506
H95   H     H_    0.249490 0.767857 0.086935 0.171452
H96   H     H_    0.334121 0.821303 0.073058 0.162036
H97   H     H_    0.324847 0.768891 0.038191 0.175941
H98   H     H_    0.260528 0.799535 0.983709 0.151251
H99   H     H_    0.309429 0.830710 0.968956 0.184138
H100  H     H_    0.268868 0.851924 0.019680 0.155765
H101  H     H_    0.217669 0.320624 0.469329 0.154980
H102  H     H_    0.623667 0.265299 0.773272 0.130707
H103  H     H_    0.666015 0.302722 0.750764 0.136668
H104  H     H_    0.618089 0.306216 0.871546 0.162353
H105  H     H_    0.658691 0.343981 0.844933 0.196466
H106  H     H_    0.609734 0.364136 0.759344 0.155867
H107  H     H_    0.583751 0.373432 0.830448 0.144563
H108  H     H_    0.568819 0.326238 0.786732 0.150662
H109  H     H_    0.220439 0.347565 0.102356 0.135687
H110  H     H_    0.192630 0.303156 0.136841 0.122987
H111  H     H_    0.276239 0.293791 0.060518 0.188475
H112  H     H_    0.733710 0.249762 0.412998 0.172351
H113  H     H_    0.238406 0.276452 0.513894 0.165928
H114  H     H_    0.243535 0.249935 0.090676 0.172227
H115  H     H_    0.178404 0.279688 0.030975 0.155404
H116  H     H_    0.222852 0.259944 0.986012 0.165095
H117  H     H_    0.216008 0.317878 0.996477 0.155609
H118  H     H_    0.739040 0.638085 0.785706 0.130100
H119  H     H_    0.692547 0.664908 0.820720 0.160285
H120  H     H_    0.762047 0.609371 0.885413 0.161918
H121  H     H_    0.714905 0.635021 0.918878 0.170834
H122  H     H_    0.665699 0.590077 0.853127 0.151253
H123  H     H_    0.700312 0.556943 0.899908 0.142430
H124  H     H_    0.180299 0.282114 0.503646 0.154811
H125  H     H_    0.713453 0.563413 0.821950 0.153982
H126  H     H_    0.699778 0.192750 0.110556 0.132735
H127  H     H_    0.743628 0.232331 0.105743 0.151974
H128  H     H_    0.651694 0.246374 0.053205 0.169170
H129  H     H_    0.698023 0.281997 0.046285 0.175705
H130  H     H_    0.738891 0.222775 0.991855 0.144444
H131  H     H_    0.688231 0.237040 0.955301 0.186014
H132  H     H_    0.691549 0.187443 0.998496 0.164813
H133  H     H_    0.395743 0.723816 0.785366 0.141102
H134  H     H_    0.361491 0.728924 0.721614 0.122539
H135  H     H_    0.862295 0.759957 0.714646 0.130306
H136  H     H_    0.361514 0.650835 0.809992 0.189529
H137  H     H_    0.329558 0.654629 0.742614 0.196442
H138  H     H_    0.398178 0.658732 0.682053 0.154016
H139  H     H_    0.395751 0.609594 0.726451 0.153060
H140  H     H_    0.430341 0.654251 0.749615 0.148905
H141  H     H_    0.526262 0.157445 0.146633 0.154436
H142  H     H_    0.582443 0.143422 0.137973 0.130937
H143  H     H_    0.540617 0.235491 0.136032 0.166274
H144  H     H_    0.598809 0.226823 0.136997 0.215796
H145  H     H_    0.596880 0.185700 0.044224 0.152158
H146  H     H_    0.836342 0.806935 0.679689 0.159282
H147  H     H_    0.569561 0.237564 0.034288 0.149252
H148  H     H_    0.538043 0.187804 0.041618 0.141353
H149  H     H_    0.448456 0.855446 0.894620 0.158291
H150  H     H_    0.444094 0.832447 0.821837 0.142105
H151  H     H_    0.393567 0.802021 0.934329 0.175274
H152  H     H_    0.388810 0.777992 0.861804 0.212880
H153  H     H_    0.467347 0.758445 0.860889 0.152056
H154  H     H_    0.438562 0.734338 0.922860 0.152792
H155  H     H_    0.473089 0.781189 0.934957 0.147629
H156  H     H_    0.164884 0.429709 0.148800 0.124146
H157  H     H_    0.890511 0.736533 0.614649 0.162630
H158  H     H_    0.221126 0.429362 0.174769 0.154664
H159  H     H_    0.158711 0.508381 0.177771 0.205958
H160  H     H_    0.215176 0.508229 0.200787 0.171450
H161  H     H_    0.238170 0.488704 0.097142 0.149093
H162  H     H_    0.205841 0.538052 0.097700 0.135267
H163  H     H_    0.181482 0.487365 0.073918 0.145812
H164  H     H_    0.903357 0.580957 0.905275 0.172354
H165  H     H_    0.852512 0.584283 0.866431 0.112554
H166  H     H_    0.882827 0.646573 0.967173 0.191845
H167  H     H_    0.830645 0.648412 0.929860 0.193697
H168  H     H_    0.866162 0.784521 0.581676 0.170223
H169  H     H_    0.813314 0.573197 0.966410 0.135017
H170  H     H_    0.825083 0.610087 0.027101 0.144459
H171  H     H_    0.865745 0.570921 0.003886 0.159296
H172  H     H_    0.470316 0.840338 0.145458 0.154015
H173  H     H_    0.415512 0.858563 0.135226 0.128637
H174  H     H_    0.448521 0.762802 0.135457 0.172650
H175  H     H_    0.391937 0.778241 0.129054 0.211825
H176  H     H_    0.406838 0.819821 0.037018 0.147638
H177  H     H_    0.425208 0.763933 0.030160 0.155158
H178  H     H_    0.464098 0.807628 0.042140 0.139141
H179  H     H_    0.912278 0.832026 0.648450 0.151133
H180  H     H_    0.550139 0.144303 0.895764 0.156302
H181  H     H_    0.558279 0.167454 0.823629 0.136088
H182  H     H_    0.607742 0.193436 0.938998 0.179704
H183  H     H_    0.615527 0.217881 0.867062 0.214726
H184  H     H_    0.539272 0.243248 0.863639 0.151945
H185  H     H_    0.567353 0.263601 0.928611 0.142909
H186  H     H_    0.529525 0.219153 0.936231 0.150138
H187  H     H_    0.826088 0.543634 0.204142 0.139306
H188  H     H_    0.774797 0.553799 0.242441 0.152210
H189  H     H_    0.841384 0.482288 0.276472 0.209281
H190  H     H_    0.944536 0.797041 0.601039 0.142520
H191  H     H_    0.788406 0.490997 0.309451 0.185032
H192  H     H_    0.753089 0.475970 0.210396 0.141318
H193  H     H_    0.785847 0.430544 0.235737 0.153451
H194  H     H_    0.806461 0.466169 0.178184 0.137212
H195  H     H_    0.091712 0.416717 0.904829 0.171752
H196  H     H_    0.142819 0.416473 0.866211 0.116265
H197  H     H_    0.115669 0.352396 0.966458 0.187596
H198  H     H_    0.167541 0.352903 0.928295 0.189525
H199  H     H_    0.182004 0.428723 0.965229 0.137915
H200  H     H_    0.172331 0.391204 0.025839 0.135197
H201  H     H_    0.937713 0.783310 0.678730 0.154184
H202  H     H_    0.129819 0.428610 0.003461 0.156388
H203  H     H_    0.474985 0.159591 0.846670 0.154040
H204  H     H_    0.419601 0.144144 0.859291 0.132093
H205  H     H_    0.459531 0.236904 0.859043 0.165261
H206  H     H_    0.401487 0.227540 0.859633 0.214182
H207  H     H_    0.405402 0.186075 0.952033 0.148239
H208  H     H_    0.432421 0.238177 0.961931 0.151656
H209  H     H_    0.464010 0.188548 0.953121 0.140221
H210  H     H_    0.546980 0.848765 0.108231 0.155254
H211  H     H_    0.553514 0.830007 0.183030 0.139806
H212  H     H_    0.306396 0.801970 0.388933 0.133108
H213  H     H_    0.605331 0.795334 0.073772 0.182622
H214  H     H_    0.607600 0.774046 0.148388 0.208643
H215  H     H_    0.528823 0.754730 0.144957 0.153425
H216  H     H_    0.560613 0.727599 0.088209 0.154708
H217  H     H_    0.526800 0.773380 0.068335 0.146754
H218  H     H_    0.831917 0.484980 0.805905 0.173539
H219  H     H_    0.835338 0.432584 0.840684 0.116446
H220  H     H_    0.752208 0.473407 0.784681 0.183243
H221  H     H_    0.754963 0.420985 0.821267 0.198588
H222  H     H_    0.778755 0.457672 0.915970 0.139673
H223  H     H_    0.678142 0.166345 0.425106 0.162084
H224  H     H_    0.268027 0.757033 0.392846 0.149459
H225  H     H_    0.726468 0.477220 0.890098 0.148474
H226  H     H_    0.774780 0.510262 0.879352 0.144632
H227  H     H_    0.137011 0.582506 0.124091 0.136450
H228  H     H_    0.150335 0.633985 0.088049 0.150064
H229  H     H_    0.066029 0.580752 0.068015 0.191225
H230  H     H_    0.080872 0.630898 0.031022 0.178357
H231  H     H_    0.147482 0.593874 0.988288 0.132375
H232  H     H_    0.097361 0.566857 0.967098 0.164674
H233  H     H_    0.131283 0.543455 0.024504 0.148890
H234  H     H_    0.531323 0.844812 0.861755 0.157422
H235  H     H_    0.250556 0.848231 0.445848 0.169276
H236  H     H_    0.587464 0.859847 0.867905 0.124654
H237  H     H_    0.549194 0.766056 0.871470 0.173380
H238  H     H_    0.606606 0.778640 0.875198 0.211394
H239  H     H_    0.595918 0.821415 0.967566 0.152645
H240  H     H_    0.575036 0.766548 0.975605 0.152976
H241  H     H_    0.537927 0.811867 0.964887 0.139999
H242  H     H_    0.448185 0.141034 0.105401 0.158120
H243  H     H_    0.440073 0.167685 0.175172 0.136017
H244  H     H_    0.394878 0.188908 0.055184 0.171343
H245  H     H_    0.381586 0.215317 0.124025 0.214894
H246  H     H_    0.216872 0.800457 0.452558 0.176833
H247  H     H_    0.458541 0.241179 0.135162 0.147331
H248  H     H_    0.432160 0.261368 0.068875 0.151991
H249  H     H_    0.471049 0.217337 0.063250 0.149273
H250  H     H_    0.166507 0.512025 0.812878 0.172960
H251  H     H_    0.161436 0.565884 0.842661 0.117293
H252  H     H_    0.246618 0.523823 0.794582 0.183071
H253  H     H_    0.242131 0.577830 0.826380 0.199352
H254  H     H_    0.216589 0.545856 0.922771 0.142546
H255  H     H_    0.269458 0.525081 0.901157 0.150324
H256  H     H_    0.221440 0.491470 0.891481 0.142441
H257  H     H_    0.278087 0.762057 0.506787 0.144058
H258  H     H_    0.862640 0.419654 0.126174 0.136382
H259  H     H_    0.847058 0.369338 0.089034 0.148462
H260  H     H_    0.934740 0.417374 0.071742 0.193100
H261  H     H_    0.916383 0.369459 0.032270 0.175840
H262  H     H_    0.853575 0.412333 0.989942 0.136414
H263  H     H_    0.905569 0.436791 0.971835 0.165652
H264  H     H_    0.872181 0.460380 0.029765 0.150158
H265  H     H_    0.016167 0.667383 0.688835 0.172973
H266  H     H_    0.069120 0.663042 0.655796 0.117210
H267  H     H_    0.028166 0.747439 0.707948 0.182816
H268  H     H_    0.260994 0.811645 0.543787 0.188807
H269  H     H_    0.080902 0.743564 0.672318 0.197945
H270  H     H_    0.044802 0.718256 0.577913 0.139311
H271  H     H_    0.025478 0.771183 0.601586 0.147747
H272  H     H_    0.991923 0.723401 0.613536 0.144320
H273  H     H_    0.919296 0.404763 0.404032 0.172805
H274  H     H_    0.913702 0.353186 0.367504 0.114501
H275  H     H_    0.854195 0.388097 0.468593 0.188804
H276  H     H_    0.849360 0.335427 0.433185 0.192676
H277  H     H_    0.924249 0.315211 0.468389 0.135422
H278  H     H_    0.889102 0.330139 0.529711 0.138431
H279  H     H_    0.310894 0.811195 0.500936 0.163987
H280  H     H_    0.929748 0.368252 0.503512 0.157940
H281  H     H_    0.655255 0.968721 0.638206 0.157194
H282  H     H_    0.640147 0.912618 0.632119 0.124816
H283  H     H_    0.734040 0.950705 0.628551 0.173526
H284  H     H_    0.721326 0.893351 0.624767 0.211321
H285  H     H_    0.678598 0.904134 0.532414 0.152668
H286  H     H_    0.733506 0.924966 0.524391 0.153087
H287  H     H_    0.688203 0.962098 0.535152 0.140025
H288  H     H_    0.359142 0.051618 0.394807 0.158221
H289  H     H_    0.332519 0.059448 0.324952 0.136690
H290  H     H_    0.776056 0.104166 0.717064 0.141072
H291  H     H_    0.310829 0.104842 0.444656 0.171765
H292  H     H_    0.284319 0.117547 0.375662 0.214260
H293  H     H_    0.259095 0.040453 0.365135 0.147560
H294  H     H_    0.238765 0.066778 0.431378 0.151818
H295  H     H_    0.283184 0.028309 0.437021 0.149109
H296  H     H_    0.988847 0.332657 0.691735 0.173278
H297  H     H_    0.935484 0.337101 0.660114 0.119201
H298  H     H_    0.977046 0.252913 0.711974 0.183404
H299  H     H_    0.923409 0.256651 0.678814 0.200133
H300  H     H_    0.956283 0.280378 0.582373 0.145381
H301  H     H_    0.770314 0.139099 0.780032 0.123306
H302  H     H_    0.977404 0.228226 0.606313 0.150900
H303  H     H_    0.010387 0.276796 0.614876 0.143441
H304  H     H_    0.079792 0.637291 0.373292 0.137959
H305  H     H_    0.130009 0.654695 0.409074 0.147125
H306  H     H_    0.083486 0.566744 0.430657 0.191023
H307  H     H_    0.131821 0.586288 0.468154 0.175814
H308  H     H_    0.088971 0.649644 0.509131 0.135389
H309  H     H_    0.065359 0.597834 0.530082 0.163992
H310  H     H_    0.040506 0.629673 0.471526 0.150139
H311  H     H_    0.340276 0.025062 0.653506 0.154008
H312  H     H_    0.849502 0.137848 0.693462 0.189126
H313  H     H_    0.355892 0.080366 0.640737 0.132249
H314  H     H_    0.263019 0.040657 0.640912 0.165196
H315  H     H_    0.272477 0.098664 0.640346 0.213963
H316  H     H_    0.314033 0.094677 0.547984 0.148317
H317  H     H_    0.261886 0.067730 0.538029 0.151553
H318  H     H_    0.311484 0.036095 0.546922 0.140312
H319  H     H_    0.651065 0.953154 0.391768 0.155363
H320  H     H_    0.669904 0.946574 0.317007 0.140102
H321  H     H_    0.704558 0.894900 0.426361 0.182761
H322  H     H_    0.725938 0.892632 0.351789 0.208231
H323  H     H_    0.844992 0.170515 0.760119 0.197037
H324  H     H_    0.745219 0.971341 0.355159 0.153509
H325  H     H_    0.772200 0.939744 0.412223 0.154636
H326  H     H_    0.726281 0.973544 0.431648 0.146732
H327  H     H_    0.956474 0.673962 0.295608 0.139423
H328  H     H_    0.946317 0.725176 0.257163 0.152454
H329  H     H_    0.017699 0.658417 0.223225 0.210501
H330  H     H_    0.008991 0.711264 0.189923 0.184611
H331  H     H_    0.024233 0.746927 0.288656 0.141175
H332  H     H_    0.069590 0.714011 0.263435 0.154618
H333  H     H_    0.034001 0.693696 0.321240 0.136750
H334  H     H_    0.730668 0.174004 0.460393 0.175463
H335  H     H_    0.839872 0.102585 0.821901 0.154100
H336  H     H_    0.084067 0.408818 0.595041 0.170998
H337  H     H_    0.084774 0.357344 0.632669 0.115481
H338  H     H_    0.149360 0.386521 0.534030 0.187558
H339  H     H_    0.149206 0.334208 0.571012 0.190754
H340  H     H_    0.074078 0.319049 0.532448 0.137192
H341  H     H_    0.111939 0.330250 0.472667 0.135674
H342  H     H_    0.073587 0.371745 0.495560 0.157840
H343  H     H_    0.342223 0.973543 0.353836 0.153791
H344  H     H_    0.356453 0.917403 0.361983 0.130859
H345  H     H_    0.264195 0.958881 0.364093 0.166099
H346  H     H_    0.889579 0.104360 0.778594 0.153155
H347  H     H_    0.273008 0.900755 0.362424 0.216368
H348  H     H_    0.313708 0.901947 0.455336 0.152116
H349  H     H_    0.261977 0.929490 0.465480 0.148760
H350  H     H_    0.311923 0.960781 0.458667 0.141468
H351  H     H_    0.645214 0.050942 0.605563 0.157974
H352  H     H_    0.667837 0.055552 0.678543 0.142152
H353  H     H_    0.698677 0.106243 0.566380 0.176223
H354  H     H_    0.722555 0.110542 0.639104 0.212094
H355  H     H_    0.741973 0.032037 0.639231 0.152395
H356  H     H_    0.766260 0.061108 0.577638 0.152840
H357  H     H_    0.845067 0.069703 0.755083 0.149077
H358  H     H_    0.719379 0.026731 0.565002 0.147504
H359  H     H_    0.015191 0.334097 0.318235 0.173698
H360  H     H_    0.069332 0.337650 0.347571 0.113703
H361  H     H_    0.025523 0.253659 0.298513 0.183544
H362  H     H_    0.079181 0.256967 0.331692 0.196553
H363  H     H_    0.046313 0.282448 0.427484 0.145835
H364  H     H_    0.024631 0.230262 0.404715 0.149305
H365  H     H_    0.992279 0.279094 0.394749 0.142397
H366  H     H_    0.919065 0.596696 0.595067 0.173042
H367  H     H_    0.915329 0.647727 0.633362 0.111892
H368  H     H_    0.860850 0.734256 0.380441 0.139575
H369  H     H_    0.853421 0.616404 0.532748 0.192802
H370  H     H_    0.851109 0.668751 0.569531 0.193236
H371  H     H_    0.926325 0.686419 0.533046 0.134454
H372  H     H_    0.889586 0.674106 0.472381 0.144801
H373  H     H_    0.929006 0.633837 0.496062 0.159914
H374  H     H_    0.659502 0.029908 0.355084 0.154024
H375  H     H_    0.641457 0.084793 0.364922 0.128273
H376  H     H_    0.737142 0.051472 0.364866 0.172673
H377  H     H_    0.721904 0.108105 0.370865 0.211773
H378  H     H_    0.680368 0.093783 0.463110 0.148162
H379  H     H_    0.807635 0.712378 0.367975 0.123956
H380  H     H_    0.736167 0.075124 0.469997 0.154839
H381  H     H_    0.692252 0.036435 0.458342 0.139323
H382  H     H_    0.356479 0.949561 0.603511 0.156380
H383  H     H_    0.333443 0.941710 0.675784 0.137076
H384  H     H_    0.306962 0.892099 0.560804 0.179709
H385  H     H_    0.282793 0.884494 0.632953 0.214344
H386  H     H_    0.257722 0.960890 0.636351 0.151982
H387  H     H_    0.236876 0.932758 0.571743 0.143153
H388  H     H_    0.281461 0.970332 0.563464 0.149721
H389  H     H_    0.828403 0.805429 0.414873 0.184398
H390  H     H_    0.774343 0.783189 0.404278 0.193813
H391  H     H_    0.789575 0.724768 0.478857 0.154541
H392  H     H_    0.798131 0.778387 0.510319 0.166676
H393  H     H_    0.844516 0.745560 0.488860 0.145352
H394  H     H_    0.701411 0.238596 0.515787 0.151166
H395  H     H_    0.136408 0.238884 0.711296 0.127874
H396  H     H_    0.163034 0.193167 0.674167 0.171173
H397  H     H_    0.109284 0.266137 0.613897 0.159095
H398  H     H_    0.136732 0.222066 0.575795 0.170878
H399  H     H_    0.090927 0.167713 0.632423 0.151186
H400  H     H_    0.058281 0.205132 0.589153 0.143067
H401  H     H_    0.062772 0.212543 0.668766 0.153837
H402  H     H_    0.313798 0.192356 0.620774 0.134377
H403  H     H_    0.281569 0.241134 0.606988 0.140168
H404  H     H_    0.258760 0.150358 0.556824 0.172344
H405  H     H_    0.669142 0.190285 0.529685 0.183310
H406  H     H_    0.232088 0.200940 0.541142 0.177294
H407  H     H_    0.303444 0.229804 0.497544 0.153749
H408  H     H_    0.282560 0.182214 0.459595 0.179630
H409  H     H_    0.327738 0.176741 0.510816 0.159060
H410  H     H_    0.773917 0.893397 0.265595 0.140387
H411  H     H_    0.763733 0.853778 0.209140 0.124312
H412  H     H_    0.849360 0.862173 0.282438 0.189465
H413  H     H_    0.839985 0.824291 0.222153 0.199514
H414  H     H_    0.828777 0.886741 0.151781 0.153088
H415  H     H_    0.881710 0.888727 0.187230 0.153458
H416  H     H_    0.648900 0.231715 0.479544 0.155635
H417  H     H_    0.838796 0.924885 0.212055 0.149968
H418  H     H_    0.851323 0.275934 0.615044 0.135777
H419  H     H_    0.795589 0.288034 0.631976 0.119104
H420  H     H_    0.828975 0.202358 0.573993 0.179776
H421  H     H_    0.772563 0.216206 0.587865 0.198160
H422  H     H_    0.778845 0.280379 0.519343 0.152517
H423  H     H_    0.793695 0.230112 0.482322 0.173460
H424  H     H_    0.835812 0.267344 0.506166 0.149059
H425  H     H_    0.133576 0.772744 0.284055 0.122565
H426  H     H_    0.163613 0.814997 0.323807 0.174790
H427  H     H_    0.229815 0.875444 0.719554 0.130105
H428  H     H_    0.101354 0.746674 0.378468 0.154542
H429  H     H_    0.133256 0.785665 0.420318 0.166956
H430  H     H_    0.095509 0.847400 0.370833 0.149537
H431  H     H_    0.056202 0.810828 0.404198 0.142902
H432  H     H_    0.064839 0.809906 0.324615 0.146188
H433  H     H_    0.688855 0.761177 0.625195 0.124465
H434  H     H_    0.740703 0.753213 0.587055 0.178763
H435  H     H_    0.678104 0.831586 0.575833 0.162856
H436  H     H_    0.730927 0.828106 0.540126 0.174612
H437  H     H_    0.706782 0.761765 0.484416 0.150648
H438  H     H_    0.193623 0.831570 0.739816 0.139510
H439  H     H_    0.670322 0.807172 0.471461 0.182146
H440  H     H_    0.654113 0.763899 0.521381 0.152639
H441  H     H_    0.229815 0.110077 0.299462 0.141204
H442  H     H_    0.231651 0.143424 0.234529 0.122415
H443  H     H_    0.157235 0.143489 0.328570 0.189625
H444  H     H_    0.157803 0.174278 0.259984 0.200051
H445  H     H_    0.160791 0.104689 0.201466 0.155071
H446  H     H_    0.113412 0.107062 0.249330 0.152323
H447  H     H_    0.159572 0.073695 0.270291 0.148501
H448  H     H_    0.200889 0.693377 0.620198 0.132979
O1    O     O_3   0.000000 0.500000 0.250000 -0.438961
O2    O     O_R   0.000000 0.463680 0.618090 -0.551446
O3    O     O_3   0.898788 0.364051 0.148891 -0.547101
O4    O     O_3   0.065634 0.675797 0.749339 -0.543820
O5    O     O_3   0.863692 0.401024 0.353346 -0.565794
O6    O     O_3   0.673129 0.932594 0.711201 -0.542796
O7    O     O_3   0.371626 0.111617 0.357580 -0.541521
O8    O     O_3   0.940140 0.325368 0.753685 -0.540059
O9    O     O_3   0.135956 0.601884 0.351139 -0.548956
O10   O     O_3   0.324932 0.065588 0.723346 -0.541444
O11   O     O_3   0.634879 0.893962 0.355411 -0.543089
O12   O     O_3   0.933540 0.669166 0.207759 -0.556429
O13   O     O_R   0.536320 0.000000 0.381910 -0.542209
O14   O     O_3   0.137831 0.401354 0.648588 -0.550528
O15   O     O_3   0.325847 0.936576 0.280866 -0.541106
O16   O     O_3   0.632778 0.110090 0.645023 -0.544589
O17   O     O_3   0.062218 0.324656 0.254507 -0.540988
O18   O     O_3   0.864202 0.601046 0.647134 -0.549928
O19   O     O_3   0.674334 0.069231 0.283969 -0.544391
O20   O     O_3   0.372234 0.890388 0.640684 -0.540208
O21   O     O_R   0.463680 0.000000 0.618090 -0.543260
O22   O     O_R   0.500000 0.963680 0.881910 -0.545288
O23   O     O_R   0.500000 0.036320 0.118090 -0.545391
O24   O     O_R   0.963680 0.500000 0.881910 -0.553080
O25   O     O_R   0.036320 0.500000 0.118090 -0.549404
O26   O     O_R   0.500000 0.036320 0.881910 -0.543083
O27   O     O_R   0.500000 0.963680 0.118090 -0.542236
O28   O     O_R   0.036320 0.500000 0.881910 -0.555017
O29   O     O_3   1.000000 0.500000 0.750000 -0.434212
O30   O     O_R   0.963680 0.500000 0.118090 -0.543786
O31   O     O_R   0.948950 0.587490 0.284490 -0.543402
O32   O     O_R   0.051050 0.412510 0.715510 -0.552582
O33   O     O_R   0.587490 0.051050 0.284490 -0.534141
O34   O     O_R   0.412510 0.948950 0.715510 -0.529554
O35   O     O_R   0.051050 0.412510 0.284490 -0.542660
O36   O     O_R   0.948950 0.587490 0.715510 -0.549607
O37   O     O_R   0.412510 0.948950 0.284490 -0.534424
O38   O     O_R   0.587490 0.051050 0.715510 -0.529564
O39   O     O_R   0.051050 0.587490 0.715510 -0.542664
O40   O     O_3   0.500000 0.000000 0.250000 -0.445467
O41   O     O_R   0.948950 0.412510 0.284490 -0.548545
O42   O     O_R   0.412510 0.051050 0.715510 -0.538193
O43   O     O_R   0.587490 0.948950 0.284490 -0.525982
O44   O     O_R   0.948950 0.412510 0.715510 -0.540244
O45   O     O_R   0.051050 0.587490 0.284490 -0.550730
O46   O     O_R   0.587490 0.948950 0.715510 -0.531538
O47   O     O_R   0.412510 0.051050 0.284490 -0.530395
O48   O     O_R   0.448950 0.087490 0.784490 -0.537935
O49   O     O_R   0.551050 0.912510 0.215510 -0.525929
O50   O     O_R   0.087490 0.551050 0.784490 -0.540977
O51   O     O_3   0.500000 0.000000 0.750000 -0.444936
O52   O     O_R   0.912510 0.448950 0.215510 -0.549475
O53   O     O_R   0.551050 0.912510 0.784490 -0.531501
O54   O     O_R   0.448950 0.087490 0.215510 -0.530300
O55   O     O_R   0.912510 0.448950 0.784490 -0.543873
O56   O     O_R   0.087490 0.551050 0.215510 -0.545209
O57   O     O_R   0.551050 0.087490 0.215510 -0.534891
O58   O     O_R   0.448950 0.912510 0.784490 -0.529971
O59   O     O_R   0.912510 0.551050 0.215510 -0.543691
O60   O     O_R   0.087490 0.448950 0.784490 -0.551771
O61   O     O_R   0.448950 0.912510 0.215510 -0.534471
O62   O     O_R   0.000000 0.463680 0.381910 -0.554072
O63   O     O_R   0.551050 0.087490 0.784490 -0.528817
O64   O     O_R   0.087490 0.448950 0.215510 -0.522977
O65   O     O_R   0.912510 0.551050 0.784490 -0.550592
O66   O     O_3   0.738127 0.199924 0.350460 -0.554592
O67   O     O_3   0.241877 0.818952 0.672903 -0.569075
O68   O     O_3   0.179911 0.243018 0.330813 -0.547827
O69   O     O_3   0.810740 0.746164 0.656649 -0.555254
O70   O     O_3   0.249730 0.812627 0.341714 -0.564098
O71   O     O_3   0.769180 0.168637 0.694362 -0.560369
O72   O     O_3   0.828836 0.764034 0.311436 -0.548496
O73   O     O_R   1.000000 0.536320 0.618090 -0.553904
O74   O     O_3   0.189340 0.254600 0.656722 -0.550640
O75   O     O_3   0.251872 0.190509 0.657075 -0.555804
O76   O     O_3   0.769928 0.831015 0.298217 -0.560908
O77   O     O_3   0.826493 0.236615 0.680583 -0.551728
O78   O     O_3   0.183817 0.750892 0.339251 -0.554001
O79   O     O_3   0.740216 0.802735 0.650350 -0.554385
O80   O     O_3   0.236752 0.175185 0.318559 -0.555026
O81   O     O_3   0.183815 0.750809 0.664267 -0.552818
O82   O     O_3   0.807500 0.257477 0.344385 -0.553671
O83   O     O_3   0.262705 0.674497 0.820972 -0.550860
O84   O     O_R   0.463680 0.000000 0.381910 -0.545462
O85   O     O_3   0.749420 0.315534 0.159421 -0.553968
O86   O     O_3   0.697391 0.760088 0.849743 -0.554910
O87   O     O_3   0.324095 0.262488 0.181542 -0.554971
O88   O     O_3   0.747337 0.317963 0.832227 -0.549226
O89   O     O_3   0.242358 0.693142 0.154302 -0.552562
O90   O     O_3   0.309873 0.248416 0.842896 -0.554733
O91   O     O_3   0.668956 0.730154 0.202181 -0.561124
O92   O     O_3   0.735912 0.671230 0.188899 -0.548400
O93   O     O_3   0.246324 0.311411 0.842815 -0.549619
O94   O     O_3   0.299832 0.762460 0.148667 -0.554529
O95   O     O_R   0.536320 0.000000 0.618090 -0.545005
O96   O     O_3   0.679577 0.259639 0.823516 -0.567551
O97   O     O_3   0.256047 0.318998 0.168796 -0.543570
O98   O     O_3   0.753847 0.689459 0.843458 -0.555486
O99   O     O_3   0.687839 0.249434 0.157206 -0.564007
O100  O     O_3   0.331037 0.731229 0.806650 -0.558948
O101  O     O_3   0.563557 0.174130 0.219165 -0.541312
O102  O     O_3   0.389319 0.867473 0.854803 -0.544734
O103  O     O_3   0.174109 0.437014 0.241028 -0.536272
O104  O     O_3   0.898939 0.635668 0.852979 -0.550609
O105  O     O_3   0.430643 0.825632 0.216271 -0.544505
O106  O     O_R   1.000000 0.536320 0.381910 -0.542962
O107  O     O_3   0.609382 0.128432 0.858878 -0.540211
O108  O     O_3   0.830753 0.566402 0.292084 -0.555337
O109  O     O_3   0.099439 0.362660 0.851884 -0.550275
O110  O     O_3   0.434619 0.174989 0.776687 -0.541574
O111  O     O_3   0.606136 0.865054 0.144676 -0.543116
O112  O     O_3   0.824298 0.434573 0.746661 -0.543810
O113  O     O_3   0.097784 0.635768 0.147240 -0.564039
O114  O     O_3   0.567496 0.826896 0.788793 -0.542681
O115  O     O_3   0.388174 0.128235 0.142476 -0.541419
O116  O     O_3   0.174738 0.559664 0.749654 -0.538832
Zn1   Zn    Zn3+2 0.948160 0.500000 0.200440 0.943474
Zn2   Zn    Zn3+2 0.551840 0.000000 0.299560 0.947315
Zn3   Zn    Zn3+2 0.000000 0.551840 0.700440 0.940299
Zn4   Zn    Zn3+2 0.000000 0.448160 0.299560 0.938627
Zn5   Zn    Zn3+2 0.551840 0.000000 0.700440 0.946451
Zn6   Zn    Zn3+2 0.448160 0.000000 0.299560 0.946187
Zn7   Zn    Zn3+2 0.000000 0.448160 0.700440 0.942780
Zn8   Zn    Zn3+2 0.000000 0.551840 0.299560 0.944442
Zn9   Zn    Zn3+2 0.051840 0.500000 0.799560 0.939194
Zn10  Zn    Zn3+2 0.500000 0.051840 0.200440 0.945967
Zn11  Zn    Zn3+2 0.500000 0.948160 0.799560 0.946150
Zn12  Zn    Zn3+2 0.051840 0.500000 0.200440 0.948876
Zn13  Zn    Zn3+2 0.948160 0.500000 0.799560 0.940001
Zn14  Zn    Zn3+2 0.500000 0.948160 0.200440 0.947205
Zn15  Zn    Zn3+2 0.500000 0.051840 0.799560 0.946353
Zn16  Zn    Zn3+2 0.448160 0.000000 0.700440 0.946072

loop_
_geom_bond_atom_site_label_1
_geom_bond_atom_site_label_2
_ccdc_geom_bond_type
C82   C307  A    
C174  O94   S    
C168  O75   S    
C357  C358  A    
C28   F3    S    
C368  O6    S    
C236  H237  S    
C244  H259  S    
C73   C212  A    
C356  O109  S    
C41   C61   A    
C197  O102  S    
C259  H292  S    
C7    O11   S    
C80   C305  A    
O1    Zn4   S    
C158  H55   S    
C256  H285  S    
C162  H65   S    
C167  H78   S    
C329  O61   A    
C326  O34   A    
C77   C168  A    
C353  O105  S    
C314  C353  A    
C24   C337  S    
C143  H23   S    
C282  C283  S    
C228  O112  S    
C181  H109  S    
C283  H348  S    
C279  C310  A    
O39   Zn3   S    
C296  H380  S    
C138  H9    S    
C284  C285  S    
C264  H304  S    
C193  H140  S    
C183  H115  S    
C286  H355  S    
C245  H260  S    
C98   H168  S    
C131  H441  S    
C276  H331  S    
C137  H6    S    
C132  H444  S    
C127  H430  S    
C32   F7    S    
C271  C272  S    
C360  O112  S    
C166  H76   S    
C108  C109  S    
C176  H98   S    
C274  C275  S    
C153  H47   S    
C7    C42   A    
O34   Zn16  S    
C75   C300  A    
C250  H272  S    
C110  C111  S    
C338  O46   A    
C159  H59   S    
C156  H54   S    
C293  H371  S    
C45   C56   A    
C272  C273  S    
C204  H164  S    
C76   C304  A    
C50   C52   A    
C120  H417  S    
C147  H29   S    
C158  O89   S    
C320  O28   A    
C278  H338  S    
C25   C60   A    
C322  O31   A    
C277  H337  S    
C120  H415  S    
C210  H180  S    
C33   C69   A    
C144  O85   S    
C234  H234  S    
C289  H365  S    
C97   H135  S    
C190  O77   S    
C233  H233  S    
C121  H419  S    
O60   Zn9   S    
C204  C205  S    
C163  H69   S    
C333  C358  S    
C234  C236  S    
C10   O15   S    
O29   Zn13  S    
C17   C52   A    
C27   C359  A    
C228  C229  S    
C253  H278  S    
O1    Zn8   S    
C267  H311  S    
O57   Zn10  S    
C260  H295  S    
O40   Zn14  S    
C131  O80   S    
C203  H161  S    
C85   C90   A    
C155  C156  S    
C125  H425  S    
C155  H51   S    
C202  C203  S    
C118  H410  S    
O44   Zn7   S    
C209  H177  S    
C191  C192  S    
C79   C246  A    
C99   H179  S    
C57   C364  A    
C331  O39   A    
C340  C341  T    
O95   Zn5   S    
C210  H181  S    
C207  H173  S    
O27   Zn14  S    
C342  C343  T    
C125  H426  S    
O63   Zn15  S    
C110  H395  S    
C280  H340  S    
C116  H404  S    
C271  H319  S    
C310  O98   S    
C200  O103  S    
C186  H123  S    
C248  O4    S    
C307  O94   S    
C215  C216  S    
C12   C223  A    
C202  H160  S    
C219  H200  S    
C198  H152  S    
C126  H429  S    
C148  O86   S    
C184  H118  S    
C175  C176  S    
O29   Zn7   S    
C276  H333  S    
C252  H275  S    
C254  H281  S    
C9    C347  A    
C323  C347  S    
C136  H5    S    
C89   H394  S    
C50   F25   S    
O106  Zn8   S    
C150  H38   S    
C299  H386  S    
C136  H4    S    
C296  H381  S    
C119  H413  S    
C44   F19   S    
C214  O108  S    
C334  O43   A    
C154  C155  S    
C333  O48   A    
C213  H186  S    
C318  O26   A    
C231  C232  S    
C192  H136  S    
C211  H183  S    
C174  H94   S    
C26   C357  A    
C142  H20   S    
C158  C159  S    
O29   Zn3   S    
C359  O111  S    
C298  C299  S    
C55   C83   S    
C144  H26   S    
C218  H198  S    
C253  H280  S    
C335  O55   A    
C269  H314  S    
C282  H345  S    
C337  O56   A    
O35   Zn4   S    
C208  H175  S    
C214  C215  S    
C220  H204  S    
C251  H274  S    
C143  H21   S    
C298  H385  S    
C255  H284  S    
C204  O104  S    
C154  H49   S    
C49   F24   S    
C177  O96   S    
C161  H63   S    
C113  C212  A    
C96   H113  S    
C59   C80   S    
C22   C58   A    
C291  H366  S    
C227  H215  S    
C285  H354  S    
C137  H8    S    
C70   C268  A    
C195  H144  S    
C275  H329  S    
C74   C201  A    
C292  H370  S    
C209  H176  S    
C302  C306  A    
C3    C46   A    
C124  C201  A    
C176  H100  S    
C219  H202  S    
C52   C86   S    
C250  H270  S    
C187  H127  S    
C39   F14   S    
C121  O77   S    
C170  H83   S    
C47   F21   S    
C332  O52   A    
C267  O10   S    
C25   F31   S    
C338  O53   A    
C26   F32   S    
O26   Zn15  S    
O52   Zn1   S    
C316  O84   A    
C111  H398  S    
C128  H434  S    
C90   C235  A    
C79   O66   S    
C189  H131  S    
C69   C70   S    
C179  O76   S    
C306  O93   S    
C321  O30   A    
C207  H172  S    
C271  O11   S    
C130  H439  S    
C28   C63   A    
C99   H201  S    
C202  H159  S    
C88   C89   S    
C290  C309  A    
C200  C202  S    
C280  H341  S    
C247  H264  S    
C163  H67   S    
C243  H256  S    
C159  H58   S    
C257  C312  A    
C264  O9    S    
C249  H267  S    
C100  O70   S    
C6    O10   S    
C40   F15   S    
O61   Zn14  S    
C367  O5    S    
C327  O64   A    
C68   C367  A    
C72   C224  A    
C36   F10   S    
C330  O63   A    
C191  H134  S    
C90   O67   S    
C95   C96   S    
O40   Zn6   S    
O43   Zn2   S    
C256  H286  S    
C57   C366  A    
C317  O95   A    
C16   C51   A    
C119  H412  S    
C76   C179  A    
O51   Zn11  S    
C128  C129  S    
C126  H428  S    
C97   C98   S    
C315  O73   A    
C264  H305  S    
C138  O82   S    
C316  C345  S    
C244  C245  S    
C13   C360  A    
C361  O113  S    
C362  O114  S    
C215  H191  S    
C249  C250  S    
C148  H33   S    
C165  H74   S    
C22   C354  A    
C161  O90   S    
C248  H265  S    
C129  H435  S    
C238  H242  S    
C34   F9    S    
C232  H230  S    
C270  H318  S    
C106  H335  S    
O1    Zn1   S    
C261  C262  S    
C18   C350  A    
C169  H81   S    
C223  C327  S    
C33   C365  A    
C277  O14   S    
C301  C307  A    
C328  O65   A    
C226  H213  S    
C117  H409  S    
C239  H244  S    
C228  H219  S    
C184  C185  S    
C283  H349  S    
C74   C301  A    
C241  C242  S    
C151  H41   S    
C72   C290  A    
C174  C175  S    
C281  H343  S    
C154  H48   S    
C333  O42   A    
C87   H1    S    
C222  H209  S    
C133  H446  S    
C182  C183  S    
C208  H174  S    
C43   F18   S    
C127  H431  S    
C322  O59   A    
C83   C310  A    
C61   C77   S    
C264  C265  S    
C37   C65   A    
C160  H60   S    
C219  H199  S    
O33   Zn2   S    
C185  H120  S    
C4    O8    S    
C153  H44   S    
C71   C235  A    
C347  C356  A    
C111  C114  S    
C291  O18   S    
C42   C62   A    
C237  H240  S    
C43   C59   A    
C259  C260  S    
C272  H322  S    
C175  H96   S    
C35   C362  A    
C277  C278  S    
C222  H208  S    
C262  H299  S    
C177  H103  S    
C178  H105  S    
C139  H12   S    
C352  O104  S    
C182  H114  S    
O23   Zn10  S    
C120  H414  S    
C84   C309  A    
C109  H391  S    
C297  H383  S    
C85   C312  A    
C221  H205  S    
C93   H35   S    
C86   C311  A    
C330  O38   A    
C139  C140  S    
C66   C72   S    
C230  H222  S    
C329  O37   A    
C46   C339  S    
C27   F2    S    
C357  O110  S    
C65   C73   S    
C91   C92   S    
C8    C336  A    
C108  H390  S    
C97   O69   S    
C24   C361  A    
C207  O105  S    
C21   F28   S    
C260  H294  S    
C217  C218  S    
C49   C55   A    
C92   H2    S    
C366  O4    S    
C195  C196  S    
C18   F12   S    
C258  O7    S    
C51   C53   A    
C315  C346  S    
C181  O97   S    
C96   H124  S    
C23   C355  A    
C241  H251  S    
C135  C190  A    
C221  C222  S    
C317  C344  S    
C113  O69   S    
C130  H437  S    
C213  H184  S    
C346  C348  T    
C274  H327  S    
C16   C112  A    
C273  H324  S    
C247  H262  S    
C11   C325  A    
C231  H228  S    
C172  H88   S    
C243  H254  S    
C327  O35   A    
C144  C145  S    
C249  H269  S    
C93   H46   S    
O29   Zn9   S    
C167  O92   S    
O84   Zn6   S    
C107  H368  S    
C32   C67   A    
C1    C15   A    
C19   C54   A    
O55   Zn13  S    
C281  O15   S    
C244  O3    S    
C295  H376  S    
C294  H374  S    
C140  H15   S    
O51   Zn15  S    
C180  H107  S    
C88   H334  S    
C299  H387  S    
C290  O87   S    
C214  H188  S    
C320  C341  S    
C194  H142  S    
C1    C324  S    
C101  C224  A    
C129  C130  S    
C312  O100  S    
C48   F22   S    
C238  O115  S    
C321  O25   A    
C215  H189  S    
C37   C368  A    
C141  H18   S    
C199  H153  S    
C337  O45   A    
C160  H61   S    
C125  O78   S    
O62   Zn4   S    
C339  O47   A    
C136  C137  S    
C326  O58   A    
C270  H316  S    
C305  O92   S    
C158  H56   S    
O59   Zn1   S    
C23   F30   S    
C118  O76   S    
C77   C302  A    
C200  H158  S    
C71   C257  A    
C335  O44   A    
C261  H296  S    
C105  H323  S    
C138  H10   S    
C53   C85   S    
C258  C259  S    
C193  H139  S    
O50   Zn9   S    
C286  H356  S    
C30   C362  A    
C291  H367  S    
C276  H332  S    
C41   F16   S    
C351  O103  S    
C63   C75   S    
C259  H291  S    
C240  H249  S    
C166  H77   S    
C80   C146  A    
C279  O86   S    
C147  H31   S    
C79   C86   A    
C164  H71   S    
C237  H241  S    
C197  C198  S    
O47   Zn6   S    
C197  H149  S    
C29   C64   A    
C30   C65   A    
C234  O114  S    
C141  H17   S    
C240  H247  S    
C3    O7    S    
C269  H315  S    
C103  H268  S    
C152  C153  S    
C257  O83   S    
C226  C227  S    
C10   C45   A    
C100  H212  S    
C252  C253  S    
C278  H339  S    
C350  O102  S    
C133  H445  S    
C287  H360  S    
C183  H117  S    
C319  O27   A    
C288  H361  S    
C102  H235  S    
C314  C329  S    
O64   Zn12  S    
C289  H364  S    
C87   C88   S    
C265  H306  S    
C233  H232  S    
C103  H279  S    
C121  H418  S    
C110  O74   S    
C313  C348  S    
C266  H308  S    
C220  H203  S    
C83   C113  A    
C25   C356  A    
C11   C47   A    
C275  C276  S    
C8    C43   A    
C12   C48   A    
C46   C363  A    
C184  H119  S    
C36   C367  A    
C54   C84   S    
C161  C162  S    
C199  H154  S    
C220  C221  S    
C251  C252  S    
O45   Zn8   S    
C94   H57   S    
C181  C182  S    
C36   C69   A    
C12   O17   S    
C118  H411  S    
C117  H407  S    
C178  H104  S    
C332  O41   A    
C2    C359  A    
C92   C93   S    
C164  C165  S    
C225  H211  S    
C26   C61   A    
C141  O83   S    
C216  H193  S    
C267  H313  S    
C294  C295  S    
C151  O87   S    
C114  H399  S    
C110  H396  S    
C273  H326  S    
C98   C99   S    
C266  H309  S    
C194  H141  S    
C38   F13   S    
C157  C168  A    
C320  O24   A    
C297  C298  S    
C196  H147  S    
C82   C124  A    
C175  H97   S    
C124  O70   S    
C104  C105  S    
C339  O54   A    
C29   F4    S    
C254  O6    S    
C18   C53   A    
C88   H223  S    
C2    C334  S    
C105  H312  S    
C2    C7    A    
C31   F6    S    
C208  C209  S    
C252  H276  S    
O40   Zn2   S    
C151  C152  S    
C150  H39   S    
C30   F5    S    
C226  H214  S    
C364  O116  S    
C230  H225  S    
C213  H185  S    
C68   C365  A    
C236  H238  S    
C325  C354  A    
C194  C195  S    
O46   Zn5   S    
C174  H95   S    
O30   Zn1   S    
C122  H420  S    
C186  H125  S    
C62   C76   S    
C281  H344  S    
O24   Zn13  S    
C229  H220  S    
C135  O71   S    
C22   F29   S    
C363  O115  S    
C355  O108  S    
C145  C147  S    
C194  O101  S    
C81   C135  A    
O65   Zn13  S    
O21   Zn16  S    
C298  H384  S    
C251  H273  S    
C293  H373  S    
C181  H110  S    
C255  H283  S    
C207  C208  S    
C51   F26   S    
C93   H24   S    
C45   F20   S    
C319  O23   A    
C183  H116  S    
C32   C364  A    
C58   C81   S    
C295  C296  S    
O36   Zn3   S    
C285  H353  S    
C137  H7    S    
C321  C340  S    
C195  H143  S    
C117  H408  S    
C205  C206  S    
C166  H75   S    
C122  H421  S    
C73   C279  A    
C156  H52   S    
C100  H224  S    
C11   O16   S    
C48   C54   A    
C23   C59   A    
C189  H130  S    
C102  H246  S    
C101  O68   S    
C94   H68   S    
C285  C286  S    
C87   O66   S    
C170  H84   S    
C253  H277  S    
C156  H53   S    
C293  H372  S    
C261  H297  S    
C60   C78   S    
C75   C190  A    
C115  H402  S    
C91   O67   S    
C242  C243  S    
C111  H397  S    
C297  O20   S    
C17   F1    S    
C325  C330  S    
C263  H302  S    
C206  H169  S    
C211  H182  S    
C56   C82   S    
C323  O60   A    
C121  C122  S    
C221  H206  S    
C95   H90   S    
C70   C246  A    
C130  H440  S    
C104  O71   S    
C1    C349  A    
C170  H85   S    
C10   C314  A    
O73   Zn3   S    
C280  H342  S    
C245  C247  S    
C336  C355  A    
C107  H379  S    
C125  C126  S    
C163  H70   S    
C173  H93   S    
O28   Zn9   S    
C188  H129  S    
C107  O72   S    
C108  H389  S    
C227  H217  S    
C14   C303  A    
C203  H163  S    
C248  C249  S    
C103  H257  S    
O25   Zn12  S    
C162  C163  S    
C182  H111  S    
C131  H442  S    
C203  H162  S    
C217  O109  S    
C238  C239  S    
C191  H133  S    
C114  H401  S    
C91   H427  S    
C106  H346  S    
C140  H14   S    
C209  H178  S    
C365  O3    S    
C180  H106  S    
C212  O79   S    
C294  O19   S    
C164  O91   S    
C301  O89   S    
C34   C67   A    
C21   C56   A    
C178  C180  S    
C119  C120  S    
C304  C305  A    
C8    O12   S    
C258  H289  S    
C322  C336  S    
C105  C106  S    
C328  O36   A    
C271  H320  S    
C173  H92   S    
C165  H73   S    
C274  O12   S    
C186  H122  S    
C254  C255  S    
C248  H266  S    
C171  H86   S    
C258  H288  S    
C238  H243  S    
C295  H377  S    
C184  O98   S    
C149  C150  S    
C188  H128  S    
C267  C269  S    
C263  H303  S    
C185  C186  S    
C152  H43   S    
C44   C60   A    
C126  C127  S    
C104  H301  S    
C9    O14   S    
C232  C233  S    
C205  H167  S    
C35   C338  S    
C146  C179  A    
C14   O18   S    
C150  H37   S    
C67   C71   S    
C287  O17   S    
C106  H357  S    
C94   C95   S    
O51   Zn5   S    
C5    O9    S    
C268  C311  A    
C138  C139  S    
C229  H221  S    
C173  H91   S    
C128  O79   S    
C177  C178  S    
C5    C40   A    
C198  H151  S    
C142  H19   S    
C64   C74   S    
C142  C143  S    
C162  H66   S    
C91   H438  S    
C112  C350  A    
C144  H25   S    
C237  H239  S    
C218  H197  S    
C95   H79   S    
C115  C116  S    
C31   C66   A    
C171  C172  S    
C143  H22   S    
C165  C166  S    
O49   Zn14  S    
C278  C280  S    
C21   C353  A    
C169  C170  S    
C317  O21   A    
C177  H102  S    
C139  H11   S    
C250  H271  S    
C206  H171  S    
C287  H359  S    
C354  O107  S    
C13   C335  S    
C227  H216  S    
C19   C351  A    
C297  H382  S    
C275  H330  S    
C292  H369  S    
C236  C237  S    
C244  H258  S    
C229  C230  S    
O1    Zn12  S    
C313  O62   A    
C176  H99   S    
C146  O72   S    
C87   H112  S    
C189  H132  S    
C220  O110  S    
O13   Zn2   S    
C251  O5    S    
O48   Zn15  S    
O2    Zn7   S    
C34   C366  A    
C199  H155  S    
O54   Zn10  S    
C14   C49   A    
C17   C349  A    
C204  H165  S    
C266  H310  S    
C96   H101  S    
C116  H406  S    
C269  C270  S    
C128  H433  S    
C300  O88   S    
C15   C50   A    
C4    C13   A    
C89   H405  S    
C118  C119  S    
C245  H261  S    
C344  C345  T    
C148  H32   S    
C89   H416  S    
C115  O75   S    
C241  H250  S    
O31   Zn8   S    
C31   C363  A    
C201  O78   S    
C274  H328  S    
C191  O100  S    
C159  C160  S    
C315  O2    A    
C15   O19   S    
C132  C133  S    
C6    C41   A    
C231  H227  S    
C303  C352  A    
C265  H307  S    
C123  H424  S    
C230  H226  S    
C192  C193  S    
C217  H196  S    
C286  H358  S    
O22   Zn11  S    
C262  H298  S    
C262  C263  S    
C331  O50   A    
C324  O33   A    
C316  O13   A    
C300  C308  A    
C291  C292  S    
C155  H50   S    
C161  H64   S    
C294  H375  S    
C140  H16   S    
C84   C101  A    
C180  H108  S    
C324  O57   A    
C102  C103  S    
C349  O101  S    
C145  H27   S    
C20   C55   A    
C149  H34   S    
C224  O80   S    
C205  H166  S    
C42   F17   S    
C6    C358  A    
C239  C240  S    
C241  O116  S    
C167  H80   S    
C147  H30   S    
C160  H62   S    
C38   C66   A    
C151  H40   S    
C129  H436  S    
C148  C149  S    
C3    C38   A    
C33   F8    S    
C167  C169  S    
C232  H229  S    
C270  H317  S    
C268  O85   S    
O56   Zn12  S    
C169  H82   S    
C246  O82   S    
C134  C136  S    
C281  C282  S    
C78   C306  A    
C192  H137  S    
C35   C368  A    
C302  O90   S    
C283  H350  S    
C188  C189  S    
C296  H378  S    
C282  H347  S    
O41   Zn4   S    
C193  H138  S    
C134  H3    S    
C277  H336  S    
C242  H252  S    
C255  C256  S    
C133  H447  S    
C304  O91   S    
C109  H393  S    
C323  O32   A    
C78   C157  A    
C228  H218  S    
C127  H432  S    
C4    C39   A    
C210  O107  S    
C107  C108  S    
C196  H145  S    
C100  C102  S    
C225  C226  S    
C313  O106  A    
C185  H121  S    
C217  H195  S    
C153  H45   S    
C172  H89   S    
C164  H72   S    
C171  O93   S    
C198  C199  S    
C240  H248  S    
C239  H245  S    
C200  H156  S    
C20   F27   S    
C112  C326  S    
C272  H321  S    
C211  C213  S    
C292  C293  S    
C319  C342  S    
C115  H403  S    
C222  H207  S    
C223  C351  A    
O42   Zn16  S    
O38   Zn5   S    
C68   C332  S    
C99   H190  S    
C19   F23   S    
O37   Zn6   S    
C242  H253  S    
C288  H362  S    
C206  H170  S    
C225  O111  S    
C109  H392  S    
C172  C173  S    
C123  H423  S    
C265  C266  S    
C234  H236  S    
C28   C360  A    
C289  H363  S    
C98   H157  S    
C308  O96   S    
C233  H231  S    
C9    C44   A    
C231  O113  S    
C57   C331  S    
C37   F11   S    
C311  O99   S    
C16   O20   S    
C187  H126  S    
C157  O74   S    
C309  O97   S    
C154  O88   S    
O58   Zn11  S    
C134  O81   S    
C254  H282  S    
C27   C62   A    
C261  O8    S    
C260  H293  S    
O53   Zn11  S    
C39   C63   A    
C318  C343  S    
C134  H448  S    
C284  H351  S    
C40   C64   A    
C284  O16   S    
O40   Zn10  S    
C288  C289  S    
C225  H210  S    
C20   C352  A    
C145  H28   S    
C216  H194  S    
C141  C142  S    
C47   C58   A    
C247  H263  S    
C29   C361  A    
C218  C219  S    
C5    C24   A    
C216  H192  S    
C273  H325  S    
C116  C117  S    
C197  H150  S    
C104  H290  S    
C187  O99   S    
C123  H422  S    
C243  H255  S    
C196  H148  S    
C94   O68   S    
C171  H87   S    
C303  C328  S    
C287  C288  S    
C235  O81   S    
C263  H300  S    
C187  C188  S    
C152  H42   S    
C210  C211  S    
C97   H146  S    
O51   Zn16  S    
C256  H287  S    
C299  H388  S    
O32   Zn7   S    
C114  H400  S    
C122  C123  S    
C132  H443  S    
C214  H187  S    
C149  H36   S    
C284  H352  S    
C131  C132  S    
C81   C308  A    
C334  O49   A    
C92   H13   S    
C318  O22   A    
