data_mof_unit_9609.cif
_audit_creation_date              2012-12-10T18:03:32-0500
_audit_creation_method            fapswitch 2.2
_symmetry_space_group_name_H-M    P1
_symmetry_Int_Tables_number       1
_space_group_crystal_system       triclinic
_cell_length_a                    10.918679
_cell_length_b                    9.620865
_cell_length_c                    19.590346
_cell_angle_alpha                 89.999954
_cell_angle_beta                  101.911074
_cell_angle_gamma                 90.0
_cell_volume                      2013.60112892

loop_
_atom_site_label
_atom_site_type_symbol
_atom_type_description
_atom_site_fract_x
_atom_site_fract_y
_atom_site_fract_z
_atom_type_partial_charge
C1    C     C_R   0.868929 0.494667 0.490256 -0.325438
C2    C     C_R   0.131071 0.494666 0.509744 -0.325438
C3    C     C_R   0.490332 0.616556 0.963854 -0.034980
C4    C     C_R   0.498909 0.365834 0.035507 -0.030739
C5    C     C_R   0.509667 0.616557 0.036146 -0.034979
C6    C     C_R   0.501094 0.365834 0.964494 -0.030739
C7    C     C_R   0.507772 0.491573 0.072743 0.156997
C8    C     C_R   0.492229 0.491573 0.927257 0.156996
C9    C     C_R   0.264071 0.499064 0.505194 0.901943
C10   C     C_R   0.735929 0.499064 0.494806 0.901943
C11   C     C_R   0.508469 0.499993 0.368710 0.915001
C12   C     C_R   0.491531 0.499993 0.631290 0.915001
C13   C     C_R   0.065297 0.366570 0.505687 0.257073
C14   C     C_R   0.935252 0.619641 0.489677 0.245416
C15   C     C_R   0.934702 0.366570 0.494313 0.257074
C16   C     C_R   0.064748 0.619641 0.510323 0.245416
C17   C     C_R   0.420964 0.389428 0.735176 0.210039
C18   C     C_R   0.477900 0.613958 0.251507 0.235490
C19   C     C_R   0.579036 0.389429 0.264824 0.210040
C20   C     C_R   0.522100 0.613958 0.748492 0.235489
C21   C     C_R   0.406730 0.399756 0.805130 0.334258
C22   C     C_R   0.448690 0.595634 0.179548 0.314402
C23   C     C_R   0.593271 0.399757 0.194870 0.334255
C24   C     C_R   0.551309 0.595635 0.820452 0.314402
C25   C     C_R   0.484914 0.493764 0.850595 -0.240656
C26   C     C_R   0.515086 0.493765 0.149405 -0.240657
C27   C     C_R   0.412935 0.076016 0.450374 0.348841
C28   C     C_R   0.589154 0.924608 0.548603 0.337942
C29   C     C_R   0.587065 0.076015 0.549626 0.348841
C30   C     C_R   0.410846 0.924608 0.451397 0.337942
C31   C     C_R   0.478005 0.500253 0.705411 -0.330856
C32   C     C_R   0.521995 0.500253 0.294588 -0.330858
Cu1   Cu    Cu3+1 0.500000 0.640660 0.500000 1.162845
Cu2   Cu    Cu3+1 0.500000 0.359340 0.500000 1.166380
H1    H     H_    0.477522 0.714942 0.936788 0.196110
H2    H     H_    0.494443 0.267595 0.061681 0.194485
H3    H     H_    0.522475 0.714943 0.063212 0.196110
H4    H     H_    0.505561 0.267595 0.938320 0.194487
N1    N     N_R   0.500000 0.852070 0.500000 -0.311319
N2    N     N_R   0.500000 0.147930 0.500000 -0.309845
O1    O     O_R   0.319640 0.618740 0.500000 -0.515211
O2    O     O_R   0.680360 0.381260 0.500000 -0.510184
O3    O     O_R   0.680360 0.618740 0.500000 -0.515211
O4    O     O_R   0.319640 0.381260 0.500000 -0.510183
O5    O     O_R   0.500020 0.618830 0.400190 -0.511787
O6    O     O_R   0.499980 0.381170 0.599810 -0.509814
O7    O     O_R   0.499980 0.618830 0.599810 -0.511787
O8    O     O_R   0.500020 0.381170 0.400190 -0.509814
S1    S     S_3+6 0.306321 0.166595 0.378513 0.141103
O9    O     O_2   0.355134 0.137696 0.313566 -0.214983
O10   O     O_2   0.176155 0.109365 0.369275 -0.169903
O11   O     O_3   0.279721 0.338062 0.377569 -0.512671
H5    H     H_    0.230255 0.358839 0.330315 0.365003
S2    S     S_3+6 0.718415 0.835713 0.608709 0.152788
O12   O     O_2   0.835841 0.865984 0.582976 -0.198781
O13   O     O_2   0.734721 0.893925 0.681003 -0.153209
O14   O     O_3   0.720123 0.664119 0.623112 -0.506070
H6    H     H_    0.804414 0.643476 0.651335 0.370442
S3    S     S_3+6 0.693679 0.166595 0.621487 0.141105
O15   O     O_2   0.644866 0.137696 0.686434 -0.214981
O16   O     O_2   0.823844 0.109365 0.630725 -0.169908
O17   O     O_3   0.720279 0.338062 0.622431 -0.512670
H7    H     H_    0.769742 0.358839 0.669685 0.365006
S4    S     S_3+6 0.281585 0.835713 0.391291 0.152789
O18   O     O_2   0.164159 0.865984 0.417024 -0.198779
O19   O     O_2   0.265279 0.893925 0.318998 -0.153209
O20   O     O_3   0.279876 0.664120 0.376888 -0.506070
H8    H     H_    0.195585 0.643476 0.348666 0.370440
Br1   Br    Br    0.147813 0.187564 0.524561 -0.206342
Br2   Br    Br    0.857985 0.782006 0.441134 -0.230016
Br3   Br    Br    0.852187 0.187564 0.475439 -0.206338
Br4   Br    Br    0.142015 0.782005 0.558866 -0.230019
Br5   Br    Br    0.356135 0.227120 0.682049 -0.230384
Br6   Br    Br    0.504682 0.802344 0.283903 -0.218025
Br7   Br    Br    0.643865 0.227121 0.317951 -0.230364
Br8   Br    Br    0.495316 0.802344 0.716096 -0.218025
S5    S     S_3+6 0.281304 0.308095 0.830819 0.079576
O21   O     O_2   0.321271 0.160960 0.849266 -0.228797
O22   O     O_2   0.242851 0.376511 0.892121 -0.243811
O23   O     O_3   0.156251 0.306221 0.764209 -0.456629
H9    H     H_    0.094857 0.244328 0.779774 0.406139
S6    S     S_3+6 0.317987 0.690041 0.132638 0.080051
O24   O     O_2   0.358993 0.831567 0.113742 -0.235810
O25   O     O_2   0.256384 0.613695 0.067630 -0.235317
O26   O     O_3   0.213527 0.709573 0.184149 -0.454874
H10   H     H_    0.147745 0.770963 0.157597 0.408147
S7    S     S_3+6 0.718700 0.308100 0.169182 0.079575
O27   O     O_2   0.678736 0.160964 0.150734 -0.228773
O28   O     O_2   0.757153 0.376519 0.107880 -0.243835
O29   O     O_3   0.843750 0.306226 0.235793 -0.456633
H11   H     H_    0.905168 0.244388 0.220215 0.406135
S8    S     S_3+6 0.682011 0.690044 0.867362 0.080053
O30   O     O_2   0.641004 0.831569 0.886258 -0.235806
O31   O     O_2   0.743616 0.613697 0.932370 -0.235318
O32   O     O_3   0.786471 0.709576 0.815851 -0.454870
H12   H     H_    0.852257 0.770960 0.842405 0.408146

loop_
_geom_bond_atom_site_label_1
_geom_bond_atom_site_label_2
_ccdc_geom_bond_type
S7    O27   D    
C4    H2    S    
C30   S4    S    
C10   O2    A    
Cu1   O5    S    
O32   H12   S    
Cu2   O2    S    
O14   H6    S    
S5    O21   D    
Cu1   N1    S    
C7    C26   S    
Cu2   N2    S    
C22   S6    S    
C28   C29   A    
C5    H3    S    
C4    C7    A    
C20   Br8   S    
C23   C26   A    
C2    C13   A    
C20   C24   A    
C9    O4    A    
C16   Br4   S    
C6    H4    S    
Cu2   O6    S    
C2    C16   A    
S3    O15   D    
C18   Br6   S    
C23   S7    S    
C27   C30   A    
C17   Br5   S    
C8    C25   S    
C14   Br2   S    
C11   O8    A    
C12   O7    A    
C19   C32   A    
C24   S8    S    
S5    O22   D    
S2    O13   D    
S3    O16   D    
O20   H8    S    
Cu1   O3    S    
S4    O20   S    
C29   S3    S    
Cu2   O4    S    
C24   C25   A    
C4    C6    A    
C3    C8    A    
C5    C7    A    
C28   S2    S    
C6    C8    A    
C28   N1    A    
S1    O10   D    
O26   H10   S    
S8    O32   S    
C17   C21   A    
S4    O19   D    
C19   C23   A    
O17   H7    S    
C3    H1    S    
C27   N2    A    
S1    O11   S    
S8    O31   D    
Cu1   Cu2   S    
C1    C15   A    
C12   O6    A    
C11   C32   S    
S6    O24   D    
S6    O25   D    
C13   C15   A    
C12   C31   S    
C17   C31   A    
C14   C16   A    
C11   O5    A    
Cu2   O8    S    
O11   H5    S    
S5    O23   S    
C21   C25   A    
S2    O12   D    
S3    O17   S    
C10   O3    A    
C18   C22   A    
C1    C10   S    
O23   H9    S    
C3    C5    A    
S6    O26   S    
C15   Br3   S    
C9    O1    A    
Cu1   O1    S    
S4    O18   D    
C19   Br7   S    
O29   H11   S    
C13   Br1   S    
Cu1   O7    S    
C29   N2    A    
S8    O30   D    
C30   N1    A    
C18   C32   A    
S1    O9    D    
C22   C26   A    
S7    O29   S    
C21   S5    S    
S7    O28   D    
C1    C14   A    
C2    C9    S    
S2    O14   S    
C27   S1    S    
C20   C31   A    
