data_mof_unit_13441.cif
_audit_creation_date              2013-03-05T16:04:33-0500
_audit_creation_method            fapswitch 2.2
_symmetry_space_group_name_H-M    P1
_symmetry_Int_Tables_number       1
_space_group_crystal_system       triclinic
_cell_length_a                    8.223932
_cell_length_b                    14.335545
_cell_length_c                    19.002517
_cell_angle_alpha                 98.305283
_cell_angle_beta                  92.395166
_cell_angle_gamma                 91.470572
_cell_volume                      2213.72246933

loop_
_atom_site_label
_atom_site_type_symbol
_atom_site_description
_atom_site_fract_x
_atom_site_fract_y
_atom_site_fract_z
_atom_type_partial_charge
P1    P     P_3+3 0.061800 0.409390 0.339760 0.458443
O1    O     O_2   0.887710 0.436190 0.327560 -0.363101
O2    O     O_3   0.135370 0.443490 0.416520 -0.402535
O3    O     O_3   0.634420 0.609440 0.364670 -0.359596
O4    O     O_2   0.748913 0.526731 0.244584 -0.375231
O5    O     O_3   0.046480 0.285899 0.324630 -0.575992
O6    O     O_3   0.683575 0.701976 0.246479 -0.480840
H1    H     H_    0.512305 0.772254 0.310202 0.043570
C1    C     C_3   0.626945 0.863719 0.244549 -0.526580
H2    H     H_    0.721326 0.888719 0.287159 0.245685
H3    H     H_    0.685676 0.857819 0.192504 0.223638
P2    P     P_3+3 0.622760 0.718740 0.547830 0.467805
P3    P     P_3+3 0.063691 0.778912 0.390303 0.543256
O7    O     O_2   0.795290 0.730930 0.525800 -0.342462
O8    O     O_3   0.044470 0.660110 0.398750 -0.310737
O9    O     O_2   0.933025 0.828813 0.437125 -0.343238
O10   O     O_3   0.673069 0.769135 0.635316 -0.655843
O11   O     O_3   0.000012 0.789746 0.303080 -0.486039
C2    C     C_3   0.123997 0.756879 0.258310 0.404214
H4    H     H_    0.165119 0.686452 0.268511 0.059481
H5    H     H_    0.227543 0.808858 0.266400 -0.012921
C3    C     C_3   0.061375 0.747269 0.181052 -0.875511
H6    H     H_    0.960356 0.693379 0.170922 0.279641
H7    H     H_    0.016973 0.816004 0.168885 0.251899
C4    C     C_3   0.049503 0.763605 0.647039 0.826300
H8    H     H_    0.935256 0.721758 0.636889 0.049085
C5    C     C_3   0.018712 0.852661 0.698592 -0.949226
H9    H     H_    0.136621 0.888749 0.718035 0.258319
H10   H     H_    0.941927 0.901763 0.672250 0.206915
H11   H     H_    0.954987 0.833752 0.744974 0.287650
Ba1   Ba    Ba6+2 0.843240 0.541620 0.463500 1.597102
C6    C     C_3   0.009040 0.251657 0.387545 0.439713
H12   H     H_    0.892422 0.279902 0.406396 0.087881
H13   H     H_    0.106294 0.271580 0.429536 0.133142
C7    C     C_3   0.994441 0.144464 0.372373 -0.992877
H14   H     H_    0.890525 0.122263 0.333850 0.274317
H15   H     H_    0.974418 0.114719 0.422096 0.231730
H16   H     H_    0.108362 0.115751 0.349755 0.256315
C8    C     C_3   0.567966 0.745104 0.685256 0.305325
H17   H     H_    0.447782 0.721867 0.659962 0.145204
C9    C     C_3   0.545413 0.836515 0.739662 -0.003446
H18   H     H_    0.610935 0.897681 0.722371 0.099022
H19   H     H_    0.414583 0.854152 0.738174 0.120851
P4    P     P_3+3 0.127890 0.590690 0.660240 0.525215
O12   O     O_2   0.301980 0.563840 0.672490 -0.326849
O13   O     O_3   0.054330 0.556590 0.583490 -0.366259
O14   O     O_3   0.555270 0.390630 0.635330 -0.380429
O15   O     O_3   0.169302 0.712665 0.676581 -0.594646
P5    P     P_3+3 0.135423 0.218088 0.604139 0.477710
O16   O     O_3   0.637720 0.384870 0.467990 -0.399352
O17   O     O_3   0.145220 0.339960 0.601250 -0.356894
O18   O     O_2   0.261639 0.173159 0.552938 -0.374505
O19   O     O_3   0.213406 0.196680 0.687391 -0.495930
Ba2   Ba    Ba6+2 0.346570 0.458460 0.536510 1.597014
P6    P     P_3+3 0.617597 0.595630 0.272351 0.463948
C10   C     C_3   0.558737 0.766706 0.255628 0.312789
H20   H     H_    0.458839 0.744425 0.215094 0.028664
O20   O     O_3   0.551980 0.615210 0.532020 -0.384292
C11   C     C_3   0.503681 0.304507 0.323763 0.441751
H21   H     H_    0.384431 0.328076 0.343624 0.091263
H22   H     H_    0.593724 0.364555 0.332908 0.124430
C12   C     C_3   0.483555 0.272267 0.244003 -0.998675
H23   H     H_    0.391280 0.213496 0.232829 0.271954
H24   H     H_    0.442964 0.331527 0.216633 0.218370
H25   H     H_    0.601466 0.248004 0.222801 0.267056
P7    P     P_3+3 0.573886 0.265862 0.449267 0.414412
O21   O     O_2   0.394410 0.269100 0.474240 -0.369910
O22   O     O_3   0.557750 0.229067 0.357216 -0.575762
H26   H     H_    0.161216 0.724746 0.145411 0.208502
C13   C     C_3   0.091271 0.206973 0.737291 0.420711
H27   H     H_    0.979860 0.164710 0.716450 0.035814
C14   C     C_3   0.153529 0.170204 0.805629 -0.587989
H28   H     H_    0.275951 0.202212 0.822849 0.247101
H29   H     H_    0.070437 0.191069 0.849475 0.180114
P8    P     P_3+3 0.566070 0.402757 0.727374 0.464626
C15   C     C_3   0.618474 0.225374 0.703464 0.523757
H30   H     H_    0.744076 0.251053 0.695442 -0.010900
O23   O     O_2   0.416640 0.457537 0.755088 -0.375298
O24   O     O_3   0.537343 0.290296 0.751356 -0.526797
H31   H     H_    0.549206 0.212256 0.651267 0.142189
H32   H     H_    0.695523 0.080948 0.695978 0.217990
C16   C     C_3   0.629802 0.132484 0.732958 -1.022645
H33   H     H_    0.505805 0.102924 0.738915 0.282806
H34   H     H_    0.696788 0.143775 0.785748 0.261633
C17   C     C_R   0.990635 0.448098 0.049665 -0.012315
C18   C     C_R   0.914708 0.393059 0.097554 -0.004550
C19   C     C_R   0.763428 0.434341 0.955779 -0.237904
C20   C     C_R   0.926333 0.457621 0.978893 0.070555
C21   C     C_R   0.707990 0.436686 0.885729 -0.135787
C22   C     C_R   0.809826 0.467722 0.835609 0.031321
C23   C     C_R   0.965725 0.505314 0.858755 -0.007643
C24   C     C_R   0.023738 0.500094 0.930931 0.052418
C25   C     C_R   0.760401 0.461692 0.763105 0.191944
C26   C     C_R   0.865145 0.493693 0.714190 -0.485497
C27   C     C_R   0.013345 0.542000 0.735390 0.205418
C28   C     C_R   0.061596 0.550425 0.810817 -0.184614
C29   C     C_R   0.144437 0.492188 0.073257 0.027402
C30   C     C_R   0.205181 0.494159 0.145412 0.015029
C31   C     C_R   0.113630 0.452152 0.195002 -0.056814
C32   C     C_R   0.974400 0.398014 0.168500 -0.060841
H35   H     H_    0.827016 0.484343 0.658361 0.169502
H36   H     H_    0.582564 0.414900 0.871948 0.173220
H37   H     H_    0.912092 0.355455 0.202192 0.165541
C33   C     C_R   0.197805 0.603326 0.842619 0.444729
C34   C     C_R   0.255473 0.596136 0.911609 -0.260116
C35   C     C_R   0.176829 0.540560 0.955256 -0.037786
C36   C     C_R   0.240479 0.533560 0.024881 0.098859
C37   C     C_R   0.401313 0.564559 0.046931 -0.213402
C38   C     C_R   0.360349 0.536369 0.167428 -0.011156
C39   C     C_R   0.458798 0.567003 0.116564 -0.189407
C40   C     C_R   0.414810 0.544971 0.239417 0.123499
C41   C     C_R   0.316754 0.510757 0.288985 -0.511702
C42   C     C_R   0.169559 0.461875 0.268426 0.265995
H38   H     H_    0.582274 0.593288 0.129538 0.179327
H39   H     H_    0.359902 0.517818 0.344134 0.175081
H40   H     H_    0.673175 0.417431 0.991521 0.139083
H41   H     H_    0.357692 0.642193 0.932062 0.184655
H42   H     H_    0.488054 0.585886 0.010801 0.151124
C43   C     C_R   0.701105 0.938557 0.535984 -0.136913
C44   C     C_R   0.516875 0.799532 0.493423 0.271182
C45   C     C_R   0.379350 0.763336 0.451069 -0.329682
C46   C     C_R   0.271075 0.823427 0.422123 0.226805
C47   C     C_R   0.313204 0.918568 0.425825 -0.303813
C48   C     C_R   0.459511 0.955169 0.461037 0.093458
C49   C     C_R   0.560403 0.897059 0.497531 0.005146
H43   H     H_    0.348219 0.688846 0.446326 0.171402
C50   C     C_R   0.643505 0.091076 0.499226 0.006390
C51   C     C_R   0.744834 0.033907 0.536073 0.072512
C52   C     C_R   0.687466 0.187381 0.500817 0.220026
C53   C     C_R   0.828162 0.225031 0.539164 -0.495673
C54   C     C_R   0.933578 0.167615 0.571428 0.218390
C55   C     C_R   0.891718 0.072236 0.570672 -0.327915
C56   C     C_R   0.502152 0.050365 0.461771 -0.138304
H44   H     H_    0.230209 0.964295 0.402418 0.141732
H45   H     H_    0.974538 0.028023 0.595761 0.175842
H46   H     H_    0.861752 0.298592 0.539527 0.167933
H47   H     H_    0.780326 0.897573 0.565031 0.178006
H48   H     H_    0.423037 0.091970 0.432736 0.168113
N1    N     N_3   0.639858 0.668154 0.717395 -0.124833
H49   H     H_    0.764257 0.682206 0.728368 0.119906
H50   H     H_    0.628598 0.607930 0.679353 0.133734
N2    N     N_R   0.600263 0.831473 0.813588 0.289882
O25   O     O_R   0.505203 0.860046 0.864991 -0.305805
O26   O     O_R   0.752090 0.818148 0.829700 -0.395255
N3    N     N_3   0.499895 0.933214 0.245749 -0.198167
H51   H     H_    0.444758 0.938700 0.294640 0.126012
H52   H     H_    0.411145 0.909634 0.205655 0.143670
N4    N     N_3   0.051183 0.306192 0.753798 -0.198742
H53   H     H_    0.961903 0.310652 0.791507 0.047866
H54   H     H_    0.154291 0.344618 0.777573 0.169726
N5    N     N_3   0.163262 0.067633 0.794953 -0.161353
H55   H     H_    0.232679 0.046943 0.750853 0.173847
H56   H     H_    0.045449 0.038478 0.783470 0.160914
N6    N     N_R   0.274269 0.673646 0.810155 0.246350
O27   O     O_R   0.431286 0.669654 0.809060 -0.402142
O28   O     O_R   0.208125 0.755885 0.815699 -0.372605
N7    N     N_3   0.793475 0.320100 0.074846 -0.215504
H57   H     H_    0.677477 0.346354 0.083241 0.118229
H58   H     H_    0.807758 0.289189 0.022333 0.130335
N8    N     N_R   0.108040 0.787322 0.580871 0.217388
O29   O     O_R   0.192090 0.865662 0.580041 -0.479368
O30   O     O_R   0.129299 0.716418 0.532179 -0.376898

loop_
_geom_bond_atom_site_label_1
_geom_bond_atom_site_label_2
_geom_bond_distance
_ccdc_geom_bond_type
P7    O22   1.750995 S    
C19   C20   1.408780 A    
N7    H57   1.044479 S    
C21   H36   1.080439 S    
C5    H10   1.114902 S    
C9    H18   1.113974 S    
O5    C6    1.399160 S    
C27   C28   1.458229 A    
C15   O24   1.406240 S    
O6    P6    1.748330 S    
O7    Ba1   2.843914 S    
H1    C10   1.112858 S    
N3    H51   1.044448 S    
C47   C48   1.403435 A    
C8    C9    1.567663 S    
C17   C18   1.438810 A    
P4    O12   1.509447 D    
P5    C54   1.840529 S    
O16   Ba2   2.921441 S    
C48   C56   1.398243 A    
Ba1   O20   2.922206 S    
C7    H15   1.107916 S    
N4    H54   1.048181 S    
O11   C2    1.402428 S    
C38   C40   1.408664 A    
O2    Ba2   2.787518 S    
C35   C36   1.420447 A    
C30   C31   1.420371 A    
P1    Ba1   3.404907 S    
C10   H20   1.110320 S    
P1    O1    1.509089 D    
O10   C8    1.383511 S    
C41   C42   1.395311 A    
C12   H24   1.109648 S    
C25   C26   1.409358 A    
C23   C28   1.440032 A    
P2    C44   1.868427 S    
C20   C24   1.428054 A    
C26   H35   1.082008 S    
P5    O17   1.755770 S    
Ba1   O13   2.786987 S    
P2    O10   1.742710 S    
C36   C37   1.411475 A    
C13   H27   1.111421 S    
C18   C32   1.406700 A    
C1    H2    1.111696 S    
C39   H38   1.080053 S    
C3    H26   1.110870 S    
N6    O28   1.303351 A    
C12   H25   1.110449 S    
P7    C52   1.842194 S    
P2    O20   1.563343 S    
C43   C51   1.404215 A    
P5    O18   1.541617 D    
P7    O21   1.568954 D    
C11   H21   1.108816 S    
N7    H58   1.044335 S    
C30   C38   1.418515 A    
C5    H11   1.106920 S    
C9    H19   1.111688 S    
C34   H41   1.078760 S    
P1    C42   1.884077 S    
O6    C10   1.400908 S    
O19   C13   1.405913 S    
C51   C55   1.410159 A    
C33   C34   1.394217 A    
N3    H52   1.045896 S    
P4    O13   1.561120 S    
C29   C30   1.435693 A    
N1    H49   1.044107 S    
C8    N1    1.461967 S    
C11   H22   1.110355 S    
C45   C46   1.404582 A    
C47   H44   1.084087 S    
P1    O5    1.752432 S    
C43   H47   1.075907 S    
C6    C7    1.522669 S    
C37   H42   1.078932 S    
C7    H16   1.110972 S    
P4    O15   1.753188 S    
C15   H30   1.111571 S    
C14   H29   1.112077 S    
C15   C16   1.521070 S    
C8    H17   1.102735 S    
C44   C49   1.424566 A    
Ba2   O21   2.844231 S    
C4    H8    1.096518 S    
C32   H37   1.081155 S    
H32   C16   1.110858 S    
C45   H43   1.081765 S    
O1    Ba1   2.840848 S    
P1    O2    1.561315 S    
C7    H14   1.110829 S    
C6    H13   1.107726 S    
C50   C52   1.413889 A    
C12   H23   1.110325 S    
C11   O22   1.403951 S    
C1    H3    1.111931 S    
C31   C32   1.400106 A    
N5    H55   1.045476 S    
C14   N5    1.459759 S    
O13   Ba2   2.922692 S    
C4    N8    1.447069 S    
N6    O27   1.294933 A    
C1    C10   1.532155 S    
N4    H53   1.043929 S    
O2    Ba1   2.921924 S    
O16   P7    1.753802 S    
C4    O15   1.388589 S    
C19   H40   1.073042 S    
O14   Ba2   2.785921 S    
P3    O11   1.746864 S    
C24   C35   1.404169 A    
P2    O7    1.508987 D    
O12   Ba2   2.841373 S    
C16   H33   1.110666 S    
C16   H34   1.112790 S    
P3    O8    1.737404 S    
P2    Ba1   3.406826 S    
N2    O26   1.298635 A    
C13   N4    1.460814 S    
Ba1   O16   2.790330 S    
C50   C51   1.417177 A    
C43   C49   1.412510 A    
C23   C24   1.446066 A    
C44   C45   1.403316 A    
P8    C25   1.844783 S    
C22   C25   1.409924 A    
C52   C53   1.394626 A    
Ba2   O20   2.789800 S    
C17   C20   1.450595 A    
C11   C12   1.520158 S    
C40   C41   1.398116 A    
P6    C40   1.849227 S    
C3    H6    1.111219 S    
O4    P6    1.540147 D    
C53   H46   1.082227 S    
C50   C56   1.405183 A    
C14   H28   1.112031 S    
C31   C42   1.436860 A    
C15   H31   1.112241 S    
O8    Ba1   2.787047 S    
C4    C5    1.526333 S    
C34   C35   1.396518 A    
O17   Ba2   2.787623 S    
C6    H12   1.103997 S    
C2    H4    1.113482 S    
C28   C33   1.400895 A    
C53   C54   1.393874 A    
C21   C22   1.405837 A    
O14   P8    1.730811 S    
C9    N2    1.469752 S    
O3    P6    1.736038 S    
P4    C27   1.944355 S    
C38   C39   1.397275 A    
N8    O29   1.305937 A    
P3    C46   1.851511 S    
N1    H50   1.042358 S    
C22   C23   1.405907 A    
C18   N7    1.433284 S    
C55   H45   1.084077 S    
P5    O19   1.753212 S    
C1    N3    1.460680 S    
C37   C39   1.381700 A    
C3    H7    1.111279 S    
N5    H56   1.047017 S    
Ba1   Ba2   4.553169 S    
C26   C27   1.400841 A    
P8    O23   1.545440 D    
O3    Ba1   2.786578 S    
C17   C29   1.424801 A    
C29   C36   1.419435 A    
P4    Ba2   3.405350 S    
C56   H48   1.080947 S    
C2    C3    1.521257 S    
P3    O9    1.547127 D    
C5    H9    1.110636 S    
C19   C21   1.394243 A    
N2    O25   1.302965 A    
C13   C14   1.543497 S    
C33   N6    1.404182 S    
C46   C47   1.389676 A    
P8    O24   1.750530 S    
C41   H39   1.082047 S    
C54   C55   1.399287 A    
N8    O30   1.292585 A    
C48   C49   1.420417 A    
C2    H5    1.107891 S    
