data_mof_unit_62888.cif
_audit_creation_date              2012-12-10T18:25:29-0500
_audit_creation_method            fapswitch 2.2
_symmetry_space_group_name_H-M    P1
_symmetry_Int_Tables_number       1
_space_group_crystal_system       triclinic
_cell_length_a                    25.737992
_cell_length_b                    25.750135
_cell_length_c                    18.200636
_cell_angle_alpha                 89.99966
_cell_angle_beta                  134.999735
_cell_angle_gamma                 90.000884
_cell_volume                      8529.5819616

loop_
_atom_site_label
_atom_site_type_symbol
_atom_type_description
_atom_site_fract_x
_atom_site_fract_y
_atom_site_fract_z
_atom_type_partial_charge
C1    C     C_R   0.108637 0.250028 0.499872 0.495437
C2    C     C_3   0.449315 0.749805 0.898131 0.071039
C3    C     C_R   0.749980 0.391307 0.499879 0.495057
C4    C     C_R   0.108741 0.249963 0.217413 0.501088
C5    C     C_R   0.108637 0.749938 0.217413 0.501003
C6    C     C_R   0.608744 0.749965 0.217413 0.501083
C7    C     C_R   0.608639 0.249936 0.217413 0.501086
C8    C     C_R   0.391258 0.249926 0.782591 0.493275
C9    C     C_R   0.391362 0.749976 0.782590 0.493320
C10   C     C_R   0.891256 0.749928 0.782591 0.493309
C11   C     C_R   0.891360 0.249974 0.782590 0.493245
C12   C     C_3   0.429999 0.209740 0.940403 -0.229019
C13   C     C_3   0.948842 0.749743 0.898132 0.071179
C14   C     C_3   0.485008 0.804325 0.939988 -0.235605
C15   C     C_3   0.929991 0.709748 0.940403 -0.229012
C16   C     C_3   0.985008 0.304320 0.939987 -0.235580
C17   C     C_3   0.489584 0.209739 0.059588 -0.230044
C18   C     C_3   0.545034 0.804324 0.060061 -0.233479
C19   C     C_3   0.989575 0.709747 0.059589 -0.229990
C20   C     C_3   0.045034 0.304319 0.060060 -0.233504
C21   C     C_3   0.454968 0.304249 0.939962 -0.234244
C22   C     C_3   0.415678 0.735045 0.939951 -0.233995
C23   C     C_3   0.954968 0.804254 0.939962 -0.234248
C24   C     C_3   0.949310 0.249801 0.898131 0.071057
C25   C     C_3   0.915671 0.235045 0.939948 -0.234004
C26   C     C_2   0.265114 0.445333 0.373240 0.226296
C27   C     C_2   0.265171 0.554678 0.373299 0.226398
C28   C     C_2   0.764462 0.945397 0.372557 0.226335
C29   C     C_2   0.764922 0.054736 0.373046 0.226491
C30   C     C_3   0.550702 0.249740 0.101878 0.068565
C31   C     C_3   0.551171 0.749802 0.101878 0.068474
C32   C     C_3   0.050698 0.749744 0.101879 0.068537
C33   C     C_3   0.051166 0.249799 0.101877 0.068544
C34   C     C_3   0.514988 0.304250 0.060024 -0.235353
C35   C     C_3   0.475699 0.735045 0.060013 -0.235272
C36   C     C_3   0.014989 0.804255 0.060025 -0.235355
C37   C     C_R   0.108746 0.750065 0.500090 0.495249
C38   C     C_3   0.975692 0.235047 0.060012 -0.235238
C39   C     C_3   0.584349 0.234999 0.060066 -0.233286
C40   C     C_3   0.570038 0.709828 0.059604 -0.229885
C41   C     C_3   0.084344 0.734997 0.060067 -0.233304
C42   C     C_3   0.070028 0.209820 0.059603 -0.229931
C43   C     C_3   0.524237 0.235037 0.608538 -0.237740
C44   C     C_3   0.524225 0.764965 0.608514 -0.237732
C45   C     C_3   0.010352 0.790273 0.580333 -0.229218
C46   C     C_3   0.024226 0.264965 0.608514 -0.237742
C47   C     C_3   0.584276 0.235035 0.608551 -0.234015
C48   C     C_R   0.608637 0.750028 0.499872 0.495420
C49   C     C_3   0.584265 0.764966 0.608527 -0.234014
C50   C     C_3   0.069960 0.790269 0.580355 -0.230085
C51   C     C_3   0.084265 0.264966 0.608528 -0.234028
C52   C     C_3   0.454930 0.304333 0.469951 -0.223116
C53   C     C_3   0.454927 0.695657 0.469950 -0.223120
C54   C     C_3   0.915619 0.765009 0.391309 -0.233476
C55   C     C_3   0.954927 0.195657 0.469950 -0.223144
C56   C     C_3   0.429916 0.209840 0.419450 -0.231834
C57   C     C_3   0.429901 0.790144 0.419417 -0.231807
C58   C     C_3   0.984964 0.695756 0.529986 -0.237073
C59   C     C_R   0.608641 0.249968 0.499880 0.495427
C60   C     C_3   0.929901 0.290145 0.419417 -0.231785
C61   C     C_3   0.448777 0.249804 0.499461 0.060431
C62   C     C_3   0.448768 0.750189 0.499443 0.060395
C63   C     C_3   0.949246 0.750263 0.500396 0.066042
C64   C     C_3   0.948768 0.250190 0.499443 0.060396
C65   C     C_R   0.391200 0.249958 0.499842 0.507121
C66   C     C_R   0.391196 0.750038 0.499833 0.507111
C67   C     C_R   0.891304 0.750059 0.500047 0.508220
C68   C     C_R   0.891196 0.250038 0.499833 0.507115
C69   C     C_3   0.550668 0.249808 0.499486 0.068563
C70   C     C_3   0.524326 0.235002 0.939996 -0.235691
C71   C     C_3   0.550659 0.750184 0.499470 0.068529
C72   C     C_3   0.051137 0.750263 0.500421 0.069933
C73   C     C_3   0.050659 0.250184 0.499470 0.068516
C74   C     C_3   0.514985 0.304334 0.469975 -0.238239
C75   C     C_3   0.514984 0.695655 0.469976 -0.238249
C76   C     C_3   0.975665 0.764997 0.391318 -0.237388
C77   C     C_3   0.014983 0.195656 0.469975 -0.238245
C78   C     C_3   0.489518 0.209842 0.419466 -0.229762
C79   C     C_3   0.489504 0.790142 0.419434 -0.229727
C80   C     C_3   0.045008 0.695756 0.530008 -0.233817
C81   C     C_3   0.510455 0.709829 0.940422 -0.229208
C82   C     C_3   0.989504 0.290143 0.419434 -0.229708
C83   C     C_3   0.180680 0.030006 0.470016 -0.233372
C84   C     C_3   0.180681 0.969992 0.470018 -0.233305
C85   C     C_3   0.680677 0.530006 0.470010 -0.233355
C86   C     C_3   0.680677 0.469991 0.470010 -0.233358
C87   C     C_3   0.319292 0.030007 0.608586 -0.234458
C88   C     C_3   0.319294 0.969993 0.608586 -0.234501
C89   C     C_3   0.819290 0.530007 0.608587 -0.234470
C90   C     C_3   0.819291 0.469993 0.608587 -0.234488
C91   C     C_3   0.249956 0.029788 0.419511 -0.229499
C92   C     C_3   0.024321 0.735001 0.939998 -0.235688
C93   C     C_3   0.249955 0.970213 0.419509 -0.229457
C94   C     C_3   0.749962 0.529788 0.419517 -0.229442
C95   C     C_3   0.749959 0.470212 0.419514 -0.229437
C96   C     C_3   0.249977 0.050928 0.499518 0.069922
C97   C     C_3   0.249977 0.949072 0.499518 0.069869
C98   C     C_3   0.749977 0.550928 0.499518 0.069864
C99   C     C_3   0.749976 0.449072 0.499517 0.069862
C100  C     C_3   0.249796 0.448991 0.497470 0.032389
C101  C     C_3   0.249796 0.551008 0.497470 0.032380
C102  C     C_3   0.749785 0.948991 0.497485 0.032415
C103  C     C_3   0.010447 0.209821 0.940422 -0.229212
C104  C     C_3   0.749791 0.051009 0.497490 0.032442
C105  C     C_3   0.169762 0.470256 0.416304 -0.245466
C106  C     C_3   0.169763 0.529742 0.416290 -0.245482
C107  C     C_3   0.669747 0.970256 0.416617 -0.245463
C108  C     C_3   0.669754 0.029743 0.416501 -0.245546
C109  C     C_3   0.287810 0.470040 0.605765 -0.259169
C110  C     C_3   0.287799 0.529959 0.605759 -0.259151
C111  C     C_3   0.788054 0.970041 0.605898 -0.259157
C112  C     C_3   0.787964 0.029959 0.605858 -0.259126
C113  C     C_R   0.249921 0.391225 0.499775 0.518878
C114  C     C_3   0.448846 0.249739 0.898132 0.071169
C115  C     C_R   0.249921 0.608774 0.499773 0.518940
C116  C     C_R   0.749920 0.891225 0.499786 0.519074
C117  C     C_R   0.749920 0.108775 0.499789 0.519003
C118  C     C_3   0.292725 0.469517 0.471744 -0.103694
C119  C     C_3   0.292739 0.530480 0.471767 -0.103722
C120  C     C_3   0.792452 0.969516 0.471336 -0.103788
C121  C     C_3   0.792569 0.030479 0.471522 -0.103808
C122  C     C_R   0.249980 0.108692 0.499880 0.495215
C123  C     C_R   0.249981 0.891308 0.499880 0.495165
C124  C     C_R   0.749981 0.608692 0.499880 0.495113
H1    H     H_    0.376063 0.219388 0.911930 0.126148
H2    H     H_    0.389908 0.695911 0.910953 0.102209
H3    H     H_    0.869712 0.455504 0.631120 0.102425
H4    H     H_    0.351074 0.456993 0.536339 0.151998
H5    H     H_    0.351092 0.542991 0.536391 0.151930
H6    H     H_    0.850806 0.956935 0.535659 0.151901
H7    H     H_    0.850954 0.042938 0.536088 0.151831
H8    H     H_    0.139351 0.456254 0.435165 0.133510
H9    H     H_    0.139336 0.543754 0.435119 0.133581
H10   H     H_    0.639552 0.956295 0.435849 0.133242
H11   H     H_    0.639418 0.043799 0.435452 0.133325
H12   H     H_    0.258720 0.455627 0.626474 0.111163
H13   H     H_    0.968769 0.833838 0.911365 0.127643
H14   H     H_    0.258687 0.544361 0.626440 0.111186
H15   H     H_    0.759189 0.955590 0.626940 0.111096
H16   H     H_    0.758932 0.044325 0.626686 0.111184
H17   H     H_    0.345451 0.455759 0.666574 0.124892
H18   H     H_    0.345433 0.544252 0.666581 0.124789
H19   H     H_    0.845727 0.955797 0.666490 0.124883
H20   H     H_    0.845587 0.044286 0.666568 0.124799
H21   H     H_    0.464103 0.219383 0.088035 0.125437
H22   H     H_    0.531227 0.833897 0.088664 0.128352
H23   H     H_    0.964095 0.719397 0.088035 0.125635
H24   H     H_    0.889898 0.195912 0.910951 0.102176
H25   H     H_    0.031229 0.333894 0.088663 0.128370
H26   H     H_    0.401307 0.315499 0.910951 0.102213
H27   H     H_    0.371784 0.763139 0.911331 0.128059
H28   H     H_    0.901309 0.815508 0.910951 0.102253
H29   H     H_    0.871777 0.263141 0.911326 0.128266
H30   H     H_    0.490316 0.315501 0.088998 0.103177
H31   H     H_    0.460409 0.763142 0.088608 0.127599
H32   H     H_    0.990319 0.815510 0.089000 0.103200
H33   H     H_    0.960405 0.263147 0.088606 0.127703
H34   H     H_    0.539606 0.263110 0.911403 0.128351
H35   H     H_    0.557390 0.333836 0.088641 0.127421
H36   H     H_    0.486555 0.670150 0.911958 0.125794
H37   H     H_    0.039604 0.763108 0.911407 0.128118
H38   H     H_    0.986541 0.170143 0.911956 0.125735
H39   H     H_    0.521122 0.195874 0.911005 0.103886
H40   H     H_    0.535930 0.719498 0.911975 0.126421
H41   H     H_    0.021114 0.695872 0.911007 0.103886
H42   H     H_    0.035923 0.219486 0.911976 0.126336
H43   H     H_    0.610133 0.195868 0.089067 0.114305
H44   H     H_    0.623971 0.719499 0.088081 0.128208
H45   H     H_    0.110122 0.695865 0.089067 0.114240
H46   H     H_    0.478914 0.695912 0.088999 0.103162
H47   H     H_    0.123962 0.219485 0.088081 0.128023
H48   H     H_    0.209083 0.451672 0.299029 0.087014
H49   H     H_    0.209144 0.548354 0.299071 0.087126
H50   H     H_    0.708375 0.951832 0.298531 0.086772
H51   H     H_    0.708838 0.048500 0.298875 0.087160
H52   H     H_    0.057394 0.833839 0.088642 0.127369
H53   H     H_    0.978904 0.195915 0.088999 0.103185
H54   H     H_    0.539521 0.263128 0.667715 0.128188
H55   H     H_    0.539513 0.736878 0.667699 0.128006
H56   H     H_    0.986413 0.829944 0.560919 0.149506
H57   H     H_    0.442594 0.833899 0.911367 0.128325
H58   H     H_    0.039513 0.236878 0.667699 0.127933
H59   H     H_    0.521006 0.195903 0.631074 0.102638
H60   H     H_    0.520989 0.804102 0.631037 0.102674
H61   H     H_    0.035817 0.780638 0.659733 0.123437
H62   H     H_    0.020990 0.304102 0.631037 0.102670
H63   H     H_    0.610036 0.195899 0.631080 0.102432
H64   H     H_    0.610019 0.804105 0.631044 0.102461
H65   H     H_    0.123888 0.780626 0.659761 0.126156
H66   H     H_    0.110019 0.304105 0.631044 0.102465
H67   H     H_    0.628176 0.263122 0.667739 0.128809
H68   H     H_    0.876055 0.719399 0.911929 0.126233
H69   H     H_    0.628167 0.736885 0.667724 0.128621
H70   H     H_    0.074502 0.829940 0.560969 0.132265
H71   H     H_    0.128167 0.236884 0.667724 0.128547
H72   H     H_    0.468714 0.333904 0.526155 0.150837
H73   H     H_    0.468714 0.666091 0.526163 0.150783
H74   H     H_    0.889845 0.804144 0.368753 0.138456
H75   H     H_    0.968714 0.166091 0.526162 0.150667
H76   H     H_    0.557402 0.333900 0.526208 0.133340
H77   H     H_    0.557404 0.666094 0.526218 0.133254
H78   H     H_    0.978875 0.804122 0.368732 0.110091
H79   H     H_    0.942597 0.333896 0.911367 0.128435
H80   H     H_    0.057403 0.166094 0.526217 0.133201
H81   H     H_    0.375994 0.219520 0.340066 0.128221
H82   H     H_    0.375980 0.780455 0.340037 0.128352
H83   H     H_    0.942570 0.666168 0.473797 0.127184
H84   H     H_    0.875980 0.280456 0.340037 0.128435
H85   H     H_    0.425462 0.170067 0.911945 0.126375
H86   H     H_    0.509676 0.815593 0.911014 0.103931
H87   H     H_    0.925451 0.670073 0.911947 0.126422
H88   H     H_    0.009677 0.315584 0.911013 0.103868
H89   H     H_    0.425342 0.170157 0.438759 0.125471
H90   H     H_    0.628237 0.263103 0.088692 0.129330
H91   H     H_    0.425321 0.829829 0.438711 0.125566
H92   H     H_    0.009616 0.684506 0.608291 0.101881
H93   H     H_    0.925321 0.329830 0.438712 0.125632
H94   H     H_    0.513406 0.170160 0.438784 0.125520
H95   H     H_    0.513385 0.829826 0.438737 0.125611
H96   H     H_    0.098659 0.684512 0.608326 0.102231
H97   H     H_    0.013385 0.329826 0.438738 0.125684
H98   H     H_    0.464064 0.219521 0.340088 0.126337
H99   H     H_    0.464052 0.780454 0.340060 0.126510
H100  H     H_    0.031229 0.666167 0.473835 0.127285
H101  H     H_    0.574595 0.670148 0.088055 0.125252
H102  H     H_    0.964052 0.280455 0.340061 0.126590
H103  H     H_    0.401281 0.315613 0.391658 0.138394
H104  H     H_    0.401279 0.684371 0.391660 0.138379
H105  H     H_    0.871729 0.736910 0.332151 0.127221
H106  H     H_    0.901279 0.184371 0.391660 0.138407
H107  H     H_    0.490343 0.315615 0.391689 0.108622
H108  H     H_    0.490343 0.684368 0.391693 0.108620
H109  H     H_    0.960396 0.736883 0.332182 0.128004
H110  H     H_    0.990343 0.184369 0.391692 0.108663
H111  H     H_    0.179213 0.044305 0.526241 0.131087
H112  H     H_    0.128235 0.763098 0.088694 0.129226
H113  H     H_    0.179217 0.955694 0.526246 0.131135
H114  H     H_    0.679207 0.544305 0.526232 0.131154
H115  H     H_    0.679208 0.455692 0.526233 0.131217
H116  H     H_    0.130246 0.044496 0.391724 0.105100
H117  H     H_    0.130247 0.955501 0.391727 0.105181
H118  H     H_    0.630245 0.544496 0.391717 0.105071
H119  H     H_    0.630245 0.455500 0.391718 0.105040
H120  H     H_    0.320784 0.044304 0.667769 0.128275
H121  H     H_    0.320790 0.955693 0.667771 0.128320
H122  H     H_    0.820779 0.544304 0.667768 0.128344
H123  H     H_    0.074579 0.170141 0.088053 0.125141
H124  H     H_    0.820783 0.455693 0.667769 0.128437
H125  H     H_    0.299315 0.044013 0.438829 0.125066
H126  H     H_    0.299312 0.955988 0.438824 0.125128
H127  H     H_    0.799324 0.544012 0.438843 0.125280
H128  H     H_    0.799318 0.455987 0.438833 0.125222
H129  H     H_    0.200583 0.044013 0.340128 0.125480
H130  H     H_    0.200579 0.955987 0.340126 0.125600
H131  H     H_    0.700591 0.544014 0.340133 0.125586
H132  H     H_    0.700585 0.455988 0.340129 0.125653
H133  H     H_    0.513510 0.170067 0.088057 0.127169
H134  H     H_    0.468766 0.333835 0.911365 0.127769
H135  H     H_    0.598693 0.815595 0.089083 0.114533
H136  H     H_    0.013497 0.670074 0.088058 0.127270
H137  H     H_    0.098694 0.315586 0.089081 0.114361
H138  H     H_    0.139422 0.455826 0.337047 0.114939
H139  H     H_    0.139440 0.544160 0.337033 0.114866
H140  H     H_    0.639187 0.955788 0.337301 0.115097
H141  H     H_    0.639344 0.044116 0.337185 0.114744
H142  H     H_    0.369712 0.044498 0.631117 0.102461
H143  H     H_    0.369713 0.955504 0.631114 0.102427
H144  H     H_    0.869712 0.544498 0.631122 0.102446
O1    O     O_3   0.249990 0.249990 0.500000 -0.427306
O2    O     O_R   0.249990 0.866860 0.561260 -0.551893
O3    O     O_R   0.749990 0.633140 0.561260 -0.551921
O4    O     O_R   0.749990 0.366860 0.561260 -0.551837
O5    O     O_R   0.102520 0.280640 0.438750 -0.556081
O6    O     O_R   0.102520 0.719360 0.438750 -0.554280
O7    O     O_R   0.602520 0.780640 0.438750 -0.556136
O8    O     O_R   0.602520 0.219360 0.438750 -0.556223
O9    O     O_R   0.336190 0.219350 0.438710 -0.553300
O10   O     O_R   0.336190 0.780650 0.438710 -0.553236
O11   O     O_R   0.836190 0.719350 0.438710 -0.551932
O12   O     O_3   0.249990 0.750010 0.500000 -0.427298
O13   O     O_R   0.836190 0.280650 0.438710 -0.553195
O14   O     O_R   0.163790 0.219360 0.561280 -0.551968
O15   O     O_R   0.163790 0.780640 0.561280 -0.553900
O16   O     O_R   0.663790 0.719360 0.561280 -0.551948
O17   O     O_R   0.663790 0.280640 0.561280 -0.551835
O18   O     O_R   0.397470 0.280620 0.561260 -0.539550
O19   O     O_R   0.397470 0.719380 0.561260 -0.539646
O20   O     O_R   0.897470 0.780620 0.561260 -0.541189
O21   O     O_R   0.897470 0.219380 0.561260 -0.539692
O22   O     O_R   0.188730 0.366850 0.438750 -0.553834
O23   O     O_3   0.749990 0.749990 0.500000 -0.427349
O24   O     O_R   0.188730 0.633150 0.438750 -0.553795
O25   O     O_R   0.688730 0.866850 0.438750 -0.553763
O26   O     O_R   0.688730 0.133150 0.438750 -0.553884
O27   O     O_R   0.249980 0.133140 0.438710 -0.555951
O28   O     O_R   0.249980 0.866860 0.438710 -0.555871
O29   O     O_R   0.749980 0.633140 0.438710 -0.555885
O30   O     O_R   0.749980 0.366860 0.438710 -0.555886
O31   O     O_R   0.102500 0.280640 0.266310 -0.550324
O32   O     O_R   0.102500 0.719360 0.266310 -0.552063
O33   O     O_R   0.602500 0.780640 0.266310 -0.550335
O34   O     O_3   0.749990 0.250010 0.500000 -0.427300
O35   O     O_R   0.602500 0.219360 0.266310 -0.552145
O36   O     O_R   0.336220 0.219350 0.733700 -0.554987
O37   O     O_R   0.336220 0.780650 0.733700 -0.553044
O38   O     O_R   0.836220 0.719350 0.733700 -0.554944
O39   O     O_R   0.836220 0.280650 0.733700 -0.552935
O40   O     O_R   0.163750 0.219360 0.266290 -0.552122
O41   O     O_R   0.163750 0.780640 0.266290 -0.550346
O42   O     O_R   0.663750 0.719360 0.266290 -0.552021
O43   O     O_R   0.663750 0.280640 0.266290 -0.550292
O44   O     O_R   0.397490 0.280620 0.733700 -0.555625
O45   O     O_R   0.311270 0.366840 0.561280 -0.536247
O46   O     O_R   0.397490 0.719380 0.733700 -0.557622
O47   O     O_R   0.897490 0.780620 0.733700 -0.555842
O48   O     O_R   0.897490 0.219380 0.733700 -0.557677
O49   O     O_2   0.305731 0.418339 0.376542 -0.517310
O50   O     O_2   0.305819 0.581664 0.376651 -0.517332
O51   O     O_2   0.804833 0.918351 0.375423 -0.515041
O52   O     O_2   0.805567 0.081678 0.376329 -0.517284
O53   O     O_R   0.311270 0.633160 0.561280 -0.536310
O54   O     O_R   0.811270 0.866840 0.561280 -0.536356
O55   O     O_R   0.811270 0.133160 0.561280 -0.536319
O56   O     O_R   0.249990 0.133140 0.561260 -0.551905
Zn1   Zn    Zn3+2 0.337540 0.293760 0.587540 0.932500
Zn2   Zn    Zn3+2 0.249980 0.793780 0.412450 0.914135
Zn3   Zn    Zn3+2 0.749980 0.706220 0.412450 0.914261
Zn4   Zn    Zn3+2 0.749980 0.293780 0.412450 0.914197
Zn5   Zn    Zn3+2 0.250000 0.206220 0.587540 0.904251
Zn6   Zn    Zn3+2 0.250000 0.793780 0.587540 0.904337
Zn7   Zn    Zn3+2 0.750000 0.706220 0.587540 0.904246
Zn8   Zn    Zn3+2 0.750000 0.293780 0.587540 0.905100
Zn9   Zn    Zn3+2 0.337540 0.706240 0.587540 0.931698
Zn10  Zn    Zn3+2 0.837540 0.793760 0.587540 0.931946
Zn11  Zn    Zn3+2 0.837540 0.206240 0.587540 0.931613
Zn12  Zn    Zn3+2 0.162450 0.293770 0.412470 0.914811
Zn13  Zn    Zn3+2 0.162450 0.706230 0.412470 0.914872
Zn14  Zn    Zn3+2 0.662450 0.793770 0.412470 0.914891
Zn15  Zn    Zn3+2 0.662450 0.206230 0.412470 0.914035
Zn16  Zn    Zn3+2 0.249980 0.206220 0.412450 0.913420

loop_
_geom_bond_atom_site_label_1
_geom_bond_atom_site_label_2
_ccdc_geom_bond_type
C8    O36   A    
C124  O3    A    
C52   H72   S    
C87   C88   S    
O34   Zn8   S    
C48   O16   A    
C111  H15   S    
C52   C61   S    
C95   C99   S    
C54   C63   S    
C10   O38   A    
O14   Zn5   S    
C20   H25   S    
C50   C72   S    
C91   C96   S    
C106  H9    S    
C55   H75   S    
C56   H81   S    
C2    C22   S    
C54   H105  S    
O43   Zn4   S    
C8    C114  S    
C10   O47   A    
C26   H48   S    
C100  C109  S    
C68   O21   A    
C17   C30   S    
C102  C111  S    
C53   C75   S    
C29   H51   S    
C19   C32   S    
C44   H55   S    
C116  O25   A    
C110  H14   S    
C11   O39   A    
C62   C66   S    
C93   H130  S    
O21   Zn11  S    
C101  C110  S    
C41   H45   S    
C6    O33   A    
C52   H103  S    
C79   H95   S    
C16   C20   S    
C69   C74   S    
O39   Zn8   S    
C86   C99   S    
C18   H135  S    
C51   H66   S    
C59   C69   S    
C20   C33   S    
C123  O2    A    
C74   H76   S    
C101  C115  S    
C77   H80   S    
C43   C61   S    
C104  C117  S    
C38   H33   S    
C74   H107  S    
C95   H128  S    
C33   C38   S    
C60   C64   S    
C89   H144  S    
C113  O45   A    
C53   H73   S    
C51   H71   S    
O38   Zn7   S    
C45   H61   S    
C49   H64   S    
C45   C50   S    
C57   H82   S    
C43   H59   S    
C85   H118  S    
C2    C14   S    
C87   H142  S    
O20   Zn10  S    
C61   C65   S    
C23   C36   S    
C49   C71   S    
O8    Zn15  S    
C115  O24   A    
C35   H46   S    
C73   C77   S    
C2    C81   S    
C18   C31   S    
O45   Zn1   S    
C43   C47   S    
C7    O35   A    
C92   H37   S    
O3    Zn7   S    
C43   H54   S    
O26   Zn15  S    
C112  H16   S    
O33   Zn14  S    
C42   C103  S    
C71   C79   S    
C115  O53   A    
C85   C86   S    
C98   C124  S    
C59   O17   A    
O23   Zn7   S    
C33   C42   S    
C64   C68   S    
C5    O32   A    
C35   H31   S    
C12   H85   S    
C107  H10   S    
C52   C74   S    
O34   Zn11  S    
C25   C38   S    
O6    Zn13  S    
C56   C78   S    
C13   C23   S    
C85   H114  S    
C50   H65   S    
C47   C69   S    
O22   Zn12  S    
C32   C41   S    
O35   Zn15  S    
O15   Zn6   S    
O34   Zn4   S    
C111  H19   S    
C34   H35   S    
C81   H36   S    
C55   C64   S    
C55   H106  S    
C108  H141  S    
O19   Zn9   S    
C12   C114  S    
O53   Zn9   S    
C30   C34   S    
C57   H91   S    
C108  H11   S    
C28   C120  S    
C104  C112  S    
C105  H138  S    
C91   H129  S    
O56   Zn5   S    
C46   C51   S    
C90   H124  S    
C67   O20   A    
C37   O6    A    
C83   C84   S    
C59   O8    A    
C8    O44   A    
C102  C107  S    
O13   Zn4   S    
C84   H117  S    
C4    O40   A    
C5    O41   A    
O1    Zn5   S    
C81   H40   S    
C17   H133  S    
C93   C97   S    
C90   C99   S    
O18   Zn1   S    
C93   H126  S    
C101  C106  S    
C4    C33   S    
C26   C118  S    
C79   H99   S    
C89   C98   S    
C24   C103  S    
C46   H58   S    
C88   C97   S    
C97   C123  S    
C94   H131  S    
O12   Zn6   S    
C87   H120  S    
C83   C96   S    
C77   H110  S    
C119  H5    S    
C30   C39   S    
C75   H108  S    
C42   H47   S    
O23   Zn3   S    
C3    C99   S    
C109  H17   S    
C2    C9    S    
C47   H63   S    
C95   H132  S    
C23   H28   S    
O48   Zn11  S    
C78   H98   S    
C70   H39   S    
C75   H77   S    
C120  C121  S    
C15   C19   S    
O1    Zn16  S    
O28   Zn2   S    
C84   C97   S    
O2    Zn6   S    
O27   Zn16  S    
C68   O13   A    
C94   C98   S    
C11   O48   A    
C31   C40   S    
O40   Zn16  S    
C57   C79   S    
C45   H56   S    
C22   H27   S    
C92   H41   S    
C111  C112  S    
C86   H119  S    
C29   C121  S    
C12   C17   S    
C90   H3    S    
C107  H140  S    
O7    Zn14  S    
C37   O15   A    
C58   C80   S    
O29   Zn3   S    
C5    C32   S    
C6    C31   S    
C116  O54   A    
C7    C30   S    
O36   Zn5   S    
C105  H8    S    
C34   H30   S    
C25   H29   S    
C28   O51   D    
O55   Zn11  S    
O32   Zn13  S    
C19   H136  S    
O17   Zn8   S    
C60   H84   S    
C21   C34   S    
C113  O22   A    
C19   H23   S    
C65   O18   A    
C70   H34   S    
C17   H21   S    
C20   H137  S    
C91   C93   S    
C82   H102  S    
C7    O43   A    
O30   Zn4   S    
C86   H115  S    
C36   H52   S    
C13   C92   S    
C65   O9    A    
C31   C35   S    
C100  C118  S    
C32   C36   S    
C73   C82   S    
C104  C108  S    
C14   H57   S    
C102  C120  S    
C36   H32   S    
C91   H125  S    
C103  H38   S    
C88   H143  S    
C12   H1    S    
C105  C106  S    
O23   Zn10  S    
C96   C122  S    
C117  O26   A    
C1    C73   S    
C29   O52   D    
C109  C110  S    
C78   H94   S    
C50   H70   S    
O1    Zn1   S    
C6    O42   A    
C106  H139  S    
C25   H24   S    
C47   H67   S    
C94   C95   S    
O12   Zn9   S    
C9    O37   A    
C72   C80   S    
O44   Zn1   S    
C37   C72   S    
C56   C61   S    
C89   C90   S    
O16   Zn7   S    
O10   Zn2   S    
C122  O56   A    
C44   C49   S    
C15   H68   S    
C27   O50   D    
C14   C18   S    
C72   C76   S    
C28   H50   S    
C94   H127  S    
C27   H49   S    
O12   Zn2   S    
C57   C62   S    
C82   H97   S    
C70   C114  S    
C22   C35   S    
C100  C105  S    
C120  H6    S    
C66   O19   A    
C53   H104  S    
C1    O14   A    
C55   C77   S    
C76   H78   S    
C21   H134  S    
C22   H2    S    
C80   H100  S    
C11   C24   S    
C89   H122  S    
C40   H101  S    
C110  H18   S    
C118  C119  S    
C15   H87   S    
C85   C98   S    
O46   Zn9   S    
C88   H121  S    
C60   C82   S    
O42   Zn3   S    
C76   H109  S    
C4    O31   A    
C16   H79   S    
C44   H60   S    
C1    O5    A    
O1    Zn12  S    
C16   C24   S    
C109  H12   S    
C69   C78   S    
C118  H4    S    
C121  H7    S    
C123  O28   A    
O47   Zn10  S    
O23   Zn14  S    
O54   Zn10  S    
C63   C67   S    
C42   H123  S    
C14   H86   S    
C101  C119  S    
O11   Zn3   S    
C16   H88   S    
C24   C25   S    
C104  C121  S    
C84   H113  S    
C44   C62   S    
O31   Zn12  S    
C45   C63   S    
O5    Zn12  S    
C46   H62   S    
C3    O4    A    
C46   C64   S    
O12   Zn13  S    
C3    O30   A    
C53   C62   S    
O9    Zn16  S    
O24   Zn13  S    
C107  C108  S    
O41   Zn2   S    
C87   C96   S    
C21   H26   S    
C56   H89   S    
C54   C76   S    
C26   O49   D    
C13   C15   S    
O25   Zn14  S    
C48   C71   S    
C67   O11   A    
C9    O46   A    
C58   C63   S    
C39   H90   S    
O4    Zn8   S    
C40   C81   S    
C23   H13   S    
C100  C113  S    
C51   C73   S    
C83   H111  S    
C21   C114  S    
C18   H22   S    
C10   C13   S    
C80   H96   S    
C117  O55   A    
C41   H112  S    
C27   C119  S    
C83   H116  S    
C54   H74   S    
C112  H20   S    
C60   H93   S    
C71   C75   S    
C49   H69   S    
C58   H83   S    
C39   C70   S    
C66   O10   A    
C39   H43   S    
C40   H44   S    
C102  C116  S    
O34   Zn15  S    
C48   O7    A    
C41   C92   S    
C103  H42   S    
C38   H53   S    
O37   Zn6   S    
C122  O27   A    
C124  O29   A    
C58   H92   S    
