data_mof_unit_62251.cif
_audit_creation_date              2012-10-26T19:31:50-0400
_audit_creation_method            fapswitch 2.2
_symmetry_space_group_name_H-M    P1
_symmetry_Int_Tables_number       1
_space_group_crystal_system       triclinic
_cell_length_a                    19.372652
_cell_length_b                    18.028562
_cell_length_c                    23.535931
_cell_angle_alpha                 90.004123
_cell_angle_beta                  90.199514
_cell_angle_gamma                 90.001431
_cell_volume                      8220.13429372

loop_
_atom_site_label
_atom_site_type_symbol
_atom_type_description
_atom_site_fract_x
_atom_site_fract_y
_atom_site_fract_z
_atom_type_partial_charge
C1    C     C_R   0.367183 0.499999 0.499939 0.552591
C2    C     C_R   0.499864 0.567310 0.702018 -0.141593
C3    C     C_R   0.499093 0.567190 0.238732 -0.054412
C4    C     C_R   0.499903 0.567238 0.761259 -0.054629
C5    C     C_R   0.499622 0.499971 0.208910 0.239015
C6    C     C_R   0.500401 0.500028 0.791089 0.239003
C7    C     C_R   0.254727 0.567204 0.499781 -0.127252
C8    C     C_R   0.745272 0.432795 0.500219 -0.127252
C9    C     C_R   0.745275 0.567208 0.500218 -0.128218
C10   C     C_R   0.254725 0.432792 0.499782 -0.128218
C11   C     C_R   0.182806 0.567213 0.499768 -0.112116
C12   C     C_R   0.632816 0.500001 0.500061 0.552588
C13   C     C_R   0.817193 0.432787 0.500232 -0.112116
C14   C     C_R   0.817196 0.567216 0.500232 -0.112717
C15   C     C_R   0.182803 0.432784 0.499768 -0.112717
C16   C     C_R   0.146110 0.499999 0.499792 0.034867
C17   C     C_R   0.853890 0.500001 0.500208 0.034867
C18   C     C_R   0.291295 0.499998 0.499833 0.013843
C19   C     C_R   0.708705 0.500002 0.500167 0.013843
C20   C     C_R   0.499882 0.499997 0.390698 0.556965
C21   C     C_R   0.500120 0.500002 0.609301 0.556968
C22   C     C_R   0.929978 0.500000 0.500119 0.348241
C23   C     C_R   0.500127 0.432762 0.238740 -0.054630
C24   C     C_R   0.070022 0.500000 0.499881 0.348241
C25   C     C_R   0.543193 0.278483 0.535540 0.043529
C26   C     C_R   0.456807 0.721517 0.464460 0.043529
C27   C     C_R   0.456808 0.278474 0.464460 0.043402
C28   C     C_R   0.543192 0.721526 0.535540 0.043403
C29   C     C_R   0.544007 0.200392 0.536210 -0.142011
C30   C     C_R   0.455993 0.799608 0.463790 -0.142011
C31   C     C_R   0.455994 0.200383 0.463790 -0.142145
C32   C     C_R   0.544006 0.799617 0.536210 -0.142145
C33   C     C_R   0.500001 0.159742 0.500000 0.019308
C34   C     C_R   0.500918 0.432809 0.761267 -0.054416
C35   C     C_R   0.499999 0.840258 0.500000 0.019309
C36   C     C_R   0.499999 0.923854 0.500000 0.348337
C37   C     C_R   0.500000 0.076146 0.500000 0.348337
C38   C     C_R   0.557484 0.475293 0.880734 0.400943
C39   C     C_R   0.442532 0.524680 0.119265 0.400941
C40   C     C_R   0.443012 0.524771 0.880268 0.401597
C41   C     C_R   0.557023 0.475255 0.119732 0.401596
C42   C     C_R   0.441753 0.525394 0.939863 0.028964
C43   C     C_R   0.558276 0.474618 0.060136 0.028961
C44   C     C_R   0.500072 0.500009 0.970015 -0.028021
C45   C     C_R   0.500158 0.432690 0.297981 -0.141590
C46   C     C_R   0.499953 0.499990 0.029985 -0.028021
C47   C     C_R   0.558510 0.474641 0.940340 0.029261
C48   C     C_R   0.441510 0.525345 0.059659 0.029259
C49   C     C_R   0.383720 0.550518 0.969884 -0.120913
C50   C     C_R   0.616310 0.449492 0.030116 -0.120913
C51   C     C_R   0.383598 0.550488 0.029163 -0.120976
C52   C     C_R   0.616423 0.449500 0.970837 -0.120976
C53   C     C_R   0.500858 0.432719 0.702024 -0.141661
C54   C     C_R   0.499726 0.499990 0.328144 0.002894
C55   C     C_R   0.500282 0.500010 0.671855 0.002895
C56   C     C_R   0.499145 0.567280 0.297975 -0.141654
Cu1   Cu    Cu3+1 0.500000 0.573360 0.500000 0.946952
Cu2   Cu    Cu3+1 0.500000 0.426640 0.500000 0.946950
H1    H     H_    0.338224 0.570277 0.947704 0.170844
H2    H     H_    0.501122 0.380649 0.784078 0.135672
H3    H     H_    0.500521 0.380013 0.320096 0.132995
H4    H     H_    0.501214 0.380036 0.679913 0.132698
H5    H     H_    0.498780 0.619963 0.320086 0.132696
H6    H     H_    0.499505 0.619987 0.679903 0.132994
H7    H     H_    0.498885 0.619349 0.215920 0.135652
H8    H     H_    0.499722 0.619404 0.784066 0.135514
H9    H     H_    0.281629 0.619873 0.499769 0.133325
H10   H     H_    0.718371 0.380127 0.500231 0.133325
H11   H     H_    0.718375 0.619877 0.500230 0.132776
H12   H     H_    0.661808 0.429741 0.052296 0.170840
H13   H     H_    0.281624 0.380123 0.499770 0.132776
H14   H     H_    0.156072 0.619954 0.499761 0.142929
H15   H     H_    0.843928 0.380046 0.500239 0.142929
H16   H     H_    0.843933 0.619957 0.500238 0.142645
H17   H     H_    0.156067 0.380043 0.499762 0.142645
H18   H     H_    0.577328 0.308814 0.563628 0.123807
H19   H     H_    0.422672 0.691186 0.436372 0.123806
H20   H     H_    0.422672 0.308798 0.436372 0.122901
H21   H     H_    0.577328 0.691202 0.563628 0.122898
H22   H     H_    0.578954 0.172188 0.564966 0.127525
H23   H     H_    0.421046 0.827812 0.435034 0.127524
H24   H     H_    0.421047 0.172172 0.435034 0.126959
H25   H     H_    0.578953 0.827828 0.564966 0.126958
H26   H     H_    0.338011 0.570225 0.050969 0.170613
H27   H     H_    0.662006 0.429755 0.949030 0.170616
H28   H     H_    0.500317 0.380596 0.215932 0.135496
N1    N     N_R   0.500302 0.500037 0.852041 -0.399120
N2    N     N_R   0.542631 0.962911 0.535078 -0.223473
N3    N     N_R   0.542632 0.037097 0.535078 -0.223391
N4    N     N_R   0.457368 0.962903 0.464921 -0.223391
N5    N     N_R   0.499723 0.499962 0.147958 -0.399123
N6    N     N_R   0.034320 0.435231 0.499943 -0.224873
N7    N     N_R   0.965680 0.564769 0.500057 -0.224873
N8    N     N_R   0.965676 0.435231 0.500057 -0.224728
N9    N     N_R   0.034324 0.564769 0.499943 -0.224728
N10   N     N_R   0.500000 0.316380 0.500000 -0.218471
N11   N     N_R   0.500000 0.683620 0.500000 -0.218470
N12   N     N_R   0.457369 0.037089 0.464922 -0.223474
O1    O     O_R   0.400150 0.561970 0.500010 -0.504424
O2    O     O_2   0.386679 0.547969 0.148362 -0.493781
O3    O     O_2   0.387283 0.548110 0.850716 -0.491197
O4    O     O_2   0.612765 0.451955 0.149284 -0.491183
O5    O     O_R   0.599850 0.438030 0.499990 -0.504425
O6    O     O_R   0.599850 0.561970 0.499990 -0.504926
O7    O     O_R   0.400150 0.438030 0.500010 -0.504925
O8    O     O_R   0.499980 0.561970 0.417880 -0.503482
O9    O     O_R   0.500020 0.438030 0.582120 -0.503484
O10   O     O_R   0.500020 0.561970 0.582120 -0.503350
O11   O     O_R   0.499980 0.438030 0.417880 -0.503349
O12   O     O_2   0.613323 0.451965 0.851638 -0.493793

loop_
_geom_bond_atom_site_label_1
_geom_bond_atom_site_label_2
_ccdc_geom_bond_type
C28   N11   A    
C15   H17   S    
C8    C13   A    
C23   C45   A    
Cu2   O11   S    
C22   N8    A    
C35   C36   S    
C27   H20   S    
C1    O1    A    
C39   O2    S    
C36   N2    A    
C7    C11   A    
C1    C18   S    
C31   H24   S    
C30   C35   A    
C14   H16   S    
C40   N1    A    
C52   H27   S    
C9    H11   S    
C12   O6    A    
C10   C15   A    
C15   C16   A    
Cu1   O1    S    
C29   C33   A    
C41   O4    S    
Cu2   O9    S    
C3    C56   A    
Cu1   O6    S    
C28   H21   S    
Cu2   N10   S    
C40   O3    S    
C9    C19   A    
C48   C51   A    
C44   C46   A    
C49   C51   A    
C23   H28   S    
C50   C52   A    
C31   C33   A    
C38   O12   S    
C44   C47   A    
C10   H13   S    
C40   C42   A    
Cu1   O8    S    
N7    N9    A    
C34   H2    S    
C41   C43   A    
C14   C17   A    
C27   N10   A    
C3    H7    S    
C42   C44   A    
C24   N6    A    
C39   N5    A    
C37   N12   A    
C2    H6    S    
C20   O8    A    
C53   C55   A    
C25   C29   A    
C46   C48   A    
C8    C19   A    
C27   C31   A    
C26   H19   S    
C32   C35   A    
C28   C32   A    
C12   O5    A    
C20   C54   S    
C24   N9    A    
C21   C55   S    
C11   H14   S    
C26   N11   A    
C33   C37   S    
C6    N1    S    
C6    C34   A    
C2    C4    A    
C9    C14   A    
C53   H4    S    
C5    C23   A    
C7    C18   A    
Cu1   N11   S    
N6    N8    A    
C56   H5    S    
C43   C50   A    
C5    N5    S    
C38   C47   A    
C21   O9    A    
C25   N10   A    
C4    C6    A    
C41   N5    A    
C13   H15   S    
C45   C54   A    
C26   C30   A    
C22   N7    A    
C36   N4    A    
C32   H25   S    
C3    C5    A    
C54   C56   A    
C8    H10   S    
C47   C52   A    
C37   N3    A    
C17   C22   S    
C49   H1    S    
C13   C17   A    
C38   N1    A    
C2    C55   A    
C25   H18   S    
Cu2   O7    S    
C30   H23   S    
C50   H12   S    
C4    H8    S    
Cu1   Cu2   S    
C29   H22   S    
C10   C18   A    
C12   C19   S    
C45   H3    S    
C21   O10   A    
C43   C46   A    
C11   C16   A    
C42   C49   A    
C7    H9    S    
C20   O11   A    
Cu1   O10   S    
N2    N3    A    
C34   C53   A    
C16   C24   S    
Cu2   O5    S    
C51   H26   S    
N4    N12   A    
C1    O7    A    
C39   C48   A    
