data_mof_unit_22626.cif
_audit_creation_date              2012-12-10T16:56:33-0500
_audit_creation_method            fapswitch 2.2
_symmetry_space_group_name_H-M    P1
_symmetry_Int_Tables_number       1
_space_group_crystal_system       triclinic
_cell_length_a                    7.856655
_cell_length_b                    8.573117
_cell_length_c                    15.692471
_cell_angle_alpha                 91.965608
_cell_angle_beta                  86.07887
_cell_angle_gamma                 92.918816
_cell_volume                      1052.63627568

loop_
_atom_site_label
_atom_site_type_symbol
_atom_type_description
_atom_site_fract_x
_atom_site_fract_y
_atom_site_fract_z
_atom_type_partial_charge
C1    C     C_R   0.543766 0.793859 0.501340 0.932718
C2    C     C_3   0.384953 0.392391 0.026443 0.103905
C3    C     C_1   0.510243 0.500235 0.749963 -0.130602
C4    C     C_1   0.490040 0.500449 0.250035 -0.126267
C5    C     C_3   0.348901 0.531826 0.971997 -0.076974
C6    C     C_3   0.653871 0.471430 0.028054 -0.086002
C7    C     C_3   0.513203 0.499339 0.915915 0.028755
C8    C     C_3   0.489178 0.503267 0.084051 0.031860
C9    C     C_1   0.515865 0.499740 0.824944 0.078582
C10   C     C_1   0.485200 0.501766 0.175033 0.091518
C11   C     C_3   0.827860 0.827998 0.997197 -0.659485
C12   C     C_R   0.456230 0.206141 0.498670 0.928832
C13   C     C_3   0.182781 0.171001 0.999116 -0.756251
C14   C     C_2   0.399684 0.800848 0.061856 0.431732
C15   C     C_2   0.605978 0.202498 0.938464 0.375090
C16   C     C_2   0.816527 0.432802 0.065270 0.347129
C17   C     C_2   0.185244 0.570902 0.935776 0.391558
C18   C     C_2   0.652950 0.012063 0.593886 0.449428
C19   C     C_2   0.346901 0.987899 0.406201 0.444536
C20   C     C_3   0.002270 0.355315 0.337624 -0.531384
C21   C     C_3   0.000085 0.646736 0.662120 -0.528495
C22   C     C_R   0.502702 0.500450 0.661562 0.888614
C23   C     C_R   0.497308 0.499547 0.338437 0.885387
C24   C     C_2   0.556289 0.956476 0.518487 -0.284315
C25   C     C_2   0.443687 0.043520 0.481550 -0.283152
C26   C     C_3   0.454623 0.643617 0.029609 -0.029974
C27   C     C_3   0.548425 0.359266 0.970394 -0.093472
C28   C     C_3   0.617820 0.610394 0.973310 0.139845
H1    H     H_    0.821544 0.681117 0.889012 0.252215
H2    H     H_    0.625427 0.113838 0.983906 0.064485
H3    H     H_    0.870743 0.321097 0.049710 0.050494
H4    H     H_    0.071453 0.496040 0.945639 0.072223
H5    H     H_    0.628654 0.123171 0.626464 0.099839
H6    H     H_    0.371566 0.877005 0.373466 0.102358
H7    H     H_    0.994575 0.234279 0.449287 0.253375
H8    H     H_    0.099979 0.289181 0.299304 0.238314
H9    H     H_    0.015447 0.479032 0.318124 0.236750
H10   H     H_    0.874368 0.303963 0.323492 0.216196
H11   H     H_    0.003570 0.765636 0.549878 0.253908
H12   H     H_    0.888138 0.929246 0.962492 0.236338
H13   H     H_    0.902544 0.712670 0.700674 0.243333
H14   H     H_    0.127979 0.699444 0.675220 0.230344
H15   H     H_    0.988588 0.523384 0.682291 0.217476
H16   H     H_    0.929298 0.766124 0.025846 0.279268
H17   H     H_    0.737701 0.872683 0.048638 0.228485
H18   H     H_    0.173105 0.323127 0.105474 0.252113
H19   H     H_    0.102789 0.080119 0.033733 0.243928
H20   H     H_    0.280936 0.112024 0.957611 0.261956
H21   H     H_    0.101533 0.233934 0.958192 0.217367
H22   H     H_    0.383790 0.890514 0.016647 0.090115
N1    N     N_2   0.950320 0.457950 0.477300 0.010345
N2    N     N_2   0.049680 0.542050 0.522700 0.010109
N3    N     N_2   0.740946 0.725740 0.937376 -0.296497
N4    N     N_2   0.260168 0.276846 0.060686 -0.298848
N5    N     N_2   0.028438 0.344301 0.427420 -0.176567
N6    N     N_2   0.971528 0.655807 0.572488 -0.177078
O1    O     O_R   0.389250 0.738570 0.505570 -0.651414
O2    O     O_2   0.630814 0.173801 0.862078 -0.554508
O3    O     O_2   0.885207 0.523876 0.115211 -0.576848
O4    O     O_2   0.180514 0.687207 0.893472 -0.596508
O5    O     O_2   0.758189 0.931634 0.622196 -0.582798
O6    O     O_2   0.241079 0.068025 0.378150 -0.583833
O7    O     O_R   0.610750 0.261430 0.494430 -0.653538
O8    O     O_R   0.678390 0.711630 0.491020 -0.573367
O9    O     O_R   0.321610 0.288370 0.508980 -0.573921
O10   O     O_R   0.355460 0.513480 0.630490 -0.624226
O11   O     O_R   0.644540 0.486520 0.369510 -0.619314
O12   O     O_R   0.644600 0.486540 0.615950 -0.603915
O13   O     O_R   0.355400 0.513460 0.384050 -0.603047
O14   O     O_2   0.373520 0.828810 0.138240 -0.562636
Zn1   Zn    Zn3+2 0.306940 0.517990 0.509710 0.991684
Zn2   Zn    Zn3+2 0.693060 0.482010 0.490290 0.992730

loop_
_geom_bond_atom_site_label_1
_geom_bond_atom_site_label_2
_ccdc_geom_bond_type
C21   N6    S    
C28   N3    S    
N1    N2    D    
C18   O5    D    
C2    C27   S    
C3    C9    T    
C1    O1    A    
C13   H20   S    
C20   H10   S    
C12   O9    A    
C23   O13   A    
C15   C27   S    
O10   Zn1   S    
C11   N3    S    
C12   C25   S    
O12   Zn2   S    
H18   N4    S    
C24   C25   D    
C7    C27   S    
C11   H16   S    
N2    Zn1   S    
O9    Zn1   S    
H11   N6    S    
O1    Zn1   S    
C16   H3    S    
C20   H9    S    
C14   O14   D    
C22   O12   A    
C6    C28   S    
C14   H22   S    
H1    N3    S    
C1    C24   S    
C20   N5    S    
C13   H21   S    
C8    C10   S    
C26   C28   S    
C15   O2    D    
O11   Zn2   S    
N1    N5    S    
O8    Zn2   S    
C11   H12   S    
C19   C25   S    
C18   H5    S    
C18   C24   S    
C11   H17   S    
C2    C5    S    
C5    C17   S    
N1    Zn2   S    
C17   O4    D    
C6    C16   S    
C5    C26   S    
C20   H8    S    
C1    O8    A    
C7    C9    S    
O13   Zn1   S    
C21   H13   S    
C8    C26   S    
O7    Zn2   S    
C15   H2    S    
C13   H19   S    
C13   N4    S    
C2    N4    S    
C23   O11   A    
C5    C7    S    
C17   H4    S    
C22   O10   A    
C3    C22   S    
C6    C8    S    
C21   H14   S    
C19   O6    D    
C2    C8    S    
C4    C23   S    
C21   H15   S    
N2    N6    S    
C4    C10   T    
C16   O3    D    
H7    N5    S    
C14   C26   S    
C7    C28   S    
C6    C27   S    
C19   H6    S    
C12   O7    A    
