data_mof_unit_31673.cif
_audit_creation_date              2012-12-10T17:11:04-0500
_audit_creation_method            fapswitch 2.2
_symmetry_space_group_name_H-M    P1
_symmetry_Int_Tables_number       1
_space_group_crystal_system       triclinic
_cell_length_a                    11.676687
_cell_length_b                    12.998915
_cell_length_c                    13.445382
_cell_angle_alpha                 92.051966
_cell_angle_beta                  76.507898
_cell_angle_gamma                 99.889335
_cell_volume                      1954.96956586

loop_
_atom_site_label
_atom_site_type_symbol
_atom_type_description
_atom_site_fract_x
_atom_site_fract_y
_atom_site_fract_z
_atom_type_partial_charge
C1    C     C_R   0.522353 0.700815 0.497455 0.894207
C2    C     C_R   0.447316 0.503596 0.976198 0.111978
C3    C     C_R   0.476691 0.534316 0.871986 0.008431
C4    C     C_R   0.536018 0.528142 0.034350 -0.074070
C5    C     C_R   0.648714 0.589444 0.990050 -0.112869
C6    C     C_R   0.669303 0.629381 0.890967 0.634980
C7    C     C_R   0.583574 0.603780 0.834079 -0.298839
C8    C     C_R   0.516139 0.493216 0.135429 -0.199074
C9    C     C_R   0.713188 0.578237 0.148105 -0.228783
C10   C     C_R   0.397333 0.496025 0.808536 -0.056478
C11   C     C_R   0.464560 0.186206 0.503273 -0.046502
C12   C     C_R   0.436603 0.499524 0.696109 0.772907
C13   C     C_R   0.536616 0.814391 0.488949 -0.203234
C14   C     C_R   0.655170 0.984481 0.441283 -0.264670
C15   C     C_R   0.646985 0.876427 0.441849 -0.086797
C16   C     C_R   0.435510 0.861358 0.527922 0.550877
C17   C     C_R   0.440293 0.968593 0.514537 0.037898
C18   C     C_R   0.553594 0.030517 0.476192 0.062816
C19   C     C_R   0.564831 0.138441 0.471957 -0.186620
C20   C     C_R   0.351340 0.125990 0.536677 -0.273283
C21   C     C_R   0.337119 0.017277 0.540731 -0.003917
C22   C     C_R   0.947041 0.599900 0.592345 -0.211144
C23   C     C_R   0.478517 0.299328 0.500001 0.828756
C24   C     C_R   0.828094 0.590251 0.583496 0.000629
C25   C     C_R   0.856719 0.456741 0.459971 0.782283
C26   C     C_R   0.977369 0.464014 0.466064 -0.123469
C27   C     C_R   0.022800 0.536315 0.533512 -0.037528
C28   C     C_R   0.143255 0.543293 0.539833 0.001492
C29   C     C_R   0.172590 0.410961 0.415024 0.777877
C30   C     C_R   0.053645 0.401233 0.406481 -0.330970
C31   C     C_R   0.563787 0.505572 0.304148 0.878142
C32   C     C_R   0.737388 0.611678 0.046949 0.675747
C33   C     C_R   0.601109 0.522051 0.193434 -0.149182
C34   C     C_R   0.282582 0.442882 0.852616 -0.168866
C35   C     C_R   0.248667 0.422434 0.956838 -0.123800
C36   C     C_R   0.330104 0.450180 0.017929 -0.132344
Cu1   Cu    Cu3+1 0.386470 0.492430 0.492410 1.030385
Cu2   Cu    Cu3+1 0.613530 0.507570 0.507590 1.027777
H1    H     H_    0.780197 0.600334 0.192163 0.219939
H2    H     H_    0.273326 0.163866 0.558154 0.157009
H3    H     H_    0.740350 0.032907 0.408716 0.156915
H4    H     H_    0.179073 0.598340 0.591753 0.200353
H5    H     H_    0.979508 0.656966 0.644389 0.212117
H6    H     H_    0.021852 0.344859 0.353580 0.210757
H7    H     H_    0.771170 0.640697 0.627907 0.170136
H8    H     H_    0.434001 0.444621 0.172351 0.193085
H9    H     H_    0.219829 0.414239 0.805937 0.158387
H10   H     H_    0.297203 0.430254 0.097708 0.149806
H11   H     H_    0.159655 0.381620 0.990109 0.159539
H12   H     H_    0.600899 0.641359 0.760525 0.174611
H13   H     H_    0.651979 0.185505 0.443479 0.191846
N1    N     N_R   0.215880 0.481050 0.481000 -0.241796
N2    N     N_R   0.784100 0.518950 0.519000 -0.232146
O1    O     O_R   0.419710 0.645650 0.494620 -0.538916
O2    O     O_R   0.611450 0.658430 0.507430 -0.581710
O3    O     O_R   0.357340 0.490460 0.641450 -0.592960
O4    O     O_R   0.549080 0.503250 0.654260 -0.598028
O5    O     O_R   0.388550 0.341570 0.492570 -0.546178
O6    O     O_R   0.580290 0.354350 0.505380 -0.550006
O7    O     O_R   0.450920 0.496750 0.345740 -0.554718
O8    O     O_R   0.642660 0.509540 0.358550 -0.523312
C37   C     C_2   0.212613 0.960052 0.565512 0.502021
H14   H     H_    0.144590 0.992072 0.621214 0.045010
O9    O     O_2   0.182877 0.881474 0.518884 -0.486711
C38   C     C_2   0.754972 0.833703 0.388797 0.437860
H15   H     H_    0.842918 0.878470 0.387155 0.079892
O10   O     O_2   0.747458 0.752325 0.340811 -0.540551
F1    F     F_    0.335754 0.802972 0.585339 -0.647927
F2    F     F_    0.244615 0.349558 0.356795 -0.666012
F3    F     F_    0.772151 0.694106 0.848360 -0.616243
F4    F     F_    0.812364 0.388185 0.394312 -0.676540
F5    F     F_    0.846388 0.668388 0.006334 -0.590272

loop_
_geom_bond_atom_site_label_1
_geom_bond_atom_site_label_2
_ccdc_geom_bond_type
C31   O7    A    
C35   H11   S    
C23   O5    A    
C2    C4    A    
C1    O1    A    
C31   C33   S    
C26   C30   A    
C29   C30   A    
C16   F1    S    
C2    C3    A    
C24   N2    A    
Cu2   O4    S    
Cu1   O1    S    
C31   O8    A    
Cu1   O5    S    
C3    C7    A    
C22   H5    S    
C9    C32   A    
C4    C8    A    
Cu2   O8    S    
C30   H6    S    
C5    C32   A    
C17   C18   A    
C21   C37   S    
C10   C34   A    
C3    C10   A    
C12   O3    A    
C23   O6    A    
C28   N1    A    
C11   C19   A    
C26   C27   A    
C37   H14   S    
Cu2   N2    S    
C10   C12   S    
C9    C33   A    
C14   H3    S    
C25   F4    S    
C24   H7    S    
C11   C23   S    
Cu1   Cu2   S    
C25   N2    A    
C36   H10   S    
C6    C7    A    
C29   F2    S    
C8    C33   A    
C13   C15   A    
C1    O2    A    
C5    C6    A    
C20   H2    S    
C22   C24   A    
C11   C20   A    
Cu1   O7    S    
C1    C13   S    
C38   H15   S    
C12   O4    A    
Cu2   O6    S    
C15   C38   S    
C16   C17   A    
C19   H13   S    
C9    H1    S    
C20   C21   A    
C32   F5    S    
C34   C35   A    
C13   C16   A    
C2    C36   A    
C27   C28   A    
C22   C27   A    
Cu1   N1    S    
C14   C18   A    
C14   C15   A    
C18   C19   A    
C37   O9    D    
C34   H9    S    
C28   H4    S    
C8    H8    S    
C25   C26   A    
C6    F3    S    
Cu1   O3    S    
C17   C21   A    
Cu2   O2    S    
C35   C36   A    
C7    H12   S    
C4    C5    A    
C38   O10   D    
C29   N1    A    
