data_mof_unit_50343.cif
_audit_creation_date              2012-12-10T16:44:17-0500
_audit_creation_method            fapswitch 2.2
_symmetry_space_group_name_H-M    P1
_symmetry_Int_Tables_number       1
_space_group_crystal_system       triclinic
_cell_length_a                    7.466406
_cell_length_b                    8.685942
_cell_length_c                    13.375079
_cell_angle_alpha                 94.486205
_cell_angle_beta                  77.701518
_cell_angle_gamma                 102.946555
_cell_volume                      825.537140776

loop_
_atom_site_label
_atom_site_type_symbol
_atom_type_description
_atom_site_fract_x
_atom_site_fract_y
_atom_site_fract_z
_atom_type_partial_charge
C1    C     C_R   0.545395 0.799996 0.502563 0.911898
C2    C     C_R   0.417486 0.507084 0.974949 0.089042
C3    C     C_R   0.461143 0.563157 0.873676 -0.012605
C4    C     C_R   0.558467 0.542052 0.035120 0.078216
C5    C     C_R   0.735837 0.638660 0.995702 0.135012
C6    C     C_R   0.767094 0.708655 0.901648 -0.266089
C7    C     C_R   0.627330 0.681101 0.843619 -0.110390
C8    C     C_R   0.528288 0.485237 0.134045 -0.247140
C9    C     C_R   0.839097 0.622212 0.154058 -0.211531
C10   C     C_R   0.336747 0.498127 0.806466 -0.121424
C11   C     C_2   0.570804 0.967891 0.503981 -0.281663
C12   C     C_R   0.399892 0.498131 0.694314 0.806397
C13   C     C_2   0.429670 0.032077 0.495147 -0.373715
C14   C     C_R   0.454909 0.199990 0.496864 0.876326
C15   C     C_R   0.601007 0.509727 0.305896 0.758185
C16   C     C_R   0.876502 0.673595 0.054135 -0.175420
C17   C     C_R   0.661728 0.533152 0.195515 -0.045988
C18   C     C_R   0.155984 0.412379 0.846393 -0.161790
C19   C     C_R   0.103396 0.378087 0.949253 -0.131008
C20   C     C_R   0.233257 0.420152 0.012426 -0.179382
Cu1   Cu    Cu3+1 0.321300 0.483160 0.488710 0.989772
Cu2   Cu    Cu3+1 0.678700 0.516840 0.511290 1.039728
H1    H     H_    0.944762 0.659279 0.200382 0.150268
H2    H     H_    0.293681 0.960913 0.486613 0.182075
H3    H     H_    0.017117 0.634444 0.567931 0.207533
H4    H     H_    0.896975 0.793692 0.876581 0.168594
H5    H     H_    0.012616 0.746881 0.024188 0.139026
H6    H     H_    0.399334 0.407305 0.167128 0.123432
H7    H     H_    0.056960 0.366123 0.797205 0.172577
H8    H     H_    0.183109 0.384824 0.090514 0.110509
H9    H     H_    0.963273 0.312160 0.979381 0.149365
H10   H     H_    0.706702 0.038973 0.512675 0.211559
N1    N     N_2   0.947230 0.542220 0.528320 -0.136640
N2    N     N_2   0.052770 0.457780 0.471680 0.092975
O1    O     O_R   0.383920 0.714220 0.492660 -0.610580
O2    O     O_R   0.685730 0.742660 0.511730 -0.566174
O3    O     O_R   0.275440 0.478800 0.636790 -0.590033
O4    O     O_R   0.577250 0.507240 0.655860 -0.570134
O5    O     O_R   0.314270 0.257340 0.488270 -0.580127
O6    O     O_R   0.616080 0.285780 0.507340 -0.513612
O7    O     O_R   0.422750 0.492760 0.344140 -0.615005
O8    O     O_R   0.724560 0.521200 0.363210 -0.569720
O9    O     O_3   0.957897 0.326879 0.430321 -0.444150
C21   C     C_3   0.054944 0.305260 0.330064 -0.121207
H11   H     H_    0.175559 0.250551 0.329909 0.159082
H12   H     H_    0.098695 0.417516 0.287895 0.133079
H13   H     H_    0.958664 0.221696 0.288232 0.107961
C22   C     C_2   0.649042 0.794491 0.761602 0.882274
O10   O     O_2   0.803609 0.842235 0.708415 -0.563990
O11   O     O_R   0.497328 0.853273 0.746454 -0.758461
H14   H     H_    0.379227 0.819714 0.800099 0.283095

loop_
_geom_bond_atom_site_label_1
_geom_bond_atom_site_label_2
_ccdc_geom_bond_type
Cu2   O8    S    
C2    C4    A    
O9    C21   S    
C6    C7    A    
Cu1   O1    S    
Cu2   O2    S    
C15   O8    A    
C19   C20   A    
Cu1   O5    S    
C21   H13   S    
C4    C8    A    
Cu2   O6    S    
C7    C22   S    
C16   H5    S    
C22   O11   S    
C2    C3    A    
C19   H9    S    
C18   H7    S    
C20   H8    S    
C13   C14   S    
C11   C13   D    
C15   O7    A    
C6    H4    S    
C10   C12   S    
C10   C18   A    
Cu1   O7    S    
C9    C17   A    
C22   O10   D    
C9    C16   A    
C21   H12   S    
C11   H10   S    
N1    N2    D    
C3    C7    A    
C12   O4    A    
C5    C6    A    
C8    H6    S    
C14   O6    A    
Cu2   O4    S    
Cu1   Cu2   S    
Cu1   O3    S    
C21   H11   S    
C1    O1    A    
C15   C17   S    
C18   C19   A    
C12   O3    A    
C3    C10   A    
Cu2   N1    S    
C9    H1    S    
C5    C16   A    
Cu1   N2    S    
O11   H14   S    
C14   O5    A    
C1    O2    A    
C2    C20   A    
N2    O9    S    
C8    C17   A    
C13   H2    S    
H3    N1    S    
C4    C5    A    
C1    C11   S    
