data_mof_unit_67407.cif
_audit_creation_date              2013-03-05T15:39:48-0500
_audit_creation_method            fapswitch 2.2
_symmetry_space_group_name_H-M    P1
_symmetry_Int_Tables_number       1
_space_group_crystal_system       triclinic
_cell_length_a                    11.965561
_cell_length_b                    12.60676
_cell_length_c                    7.535227
_cell_angle_alpha                 89.701544
_cell_angle_beta                  107.104545
_cell_angle_gamma                 90.159354
_cell_volume                      1086.37529177

loop_
_atom_site_label
_atom_site_type_symbol
_atom_site_description
_atom_site_fract_x
_atom_site_fract_y
_atom_site_fract_z
_atom_type_partial_charge
O1    O     O_R   0.398880 0.887420 0.621600 -0.575046
O2    O     O_R   0.601120 0.112580 0.378400 -0.575009
O3    O     O_R   0.601120 0.887420 0.378400 -0.575226
O4    O     O_R   0.398880 0.112580 0.621600 -0.575185
O5    O     O_R   0.898880 0.387420 0.621600 -0.575009
O6    O     O_R   0.101120 0.612580 0.378400 -0.575046
O7    O     O_R   0.101120 0.387420 0.378400 -0.575185
O8    O     O_R   0.898880 0.612580 0.621600 -0.575226
O9    O     O_R   0.369080 0.887420 0.305440 -0.552878
O10   O     O_R   0.630920 0.112580 0.694560 -0.552829
O11   O     O_R   0.630920 0.887420 0.694560 -0.551611
O12   O     O_R   0.369080 0.112580 0.305440 -0.551624
O13   O     O_R   0.869080 0.387420 0.305440 -0.552829
O14   O     O_R   0.130920 0.612580 0.694560 -0.552878
O15   O     O_R   0.130920 0.387420 0.694560 -0.551624
O16   O     O_R   0.869080 0.612580 0.305440 -0.551612
C1    C     C_R   0.344909 0.855879 0.454993 0.841338
C2    C     C_R   0.655123 0.144095 0.545017 0.841470
C3    C     C_R   0.654042 0.854750 0.545464 0.839836
C4    C     C_R   0.345891 0.145193 0.454525 0.839970
C5    C     C_R   0.844877 0.355905 0.454983 0.841471
C6    C     C_R   0.155091 0.644121 0.545006 0.841337
C7    C     C_R   0.154109 0.354807 0.545474 0.839969
C8    C     C_R   0.845958 0.645250 0.454536 0.839836
Cu1   Cu    Cu3+1 0.517640 0.000000 0.687200 1.098042
Cu2   Cu    Cu3+1 0.482360 0.000000 0.312800 1.098015
Cu3   Cu    Cu3+1 0.017640 0.500000 0.687200 1.098015
Cu4   Cu    Cu3+1 0.982360 0.500000 0.312800 1.098042
C9    C     C_2   0.247700 0.212883 0.435658 -0.050888
C10   C     C_2   0.752213 0.787051 0.564427 -0.050920
C11   C     C_2   0.754363 0.210176 0.560556 -0.052139
C12   C     C_2   0.245658 0.789829 0.439465 -0.052118
C13   C     C_2   0.747787 0.712949 0.435573 -0.050920
C14   C     C_2   0.252300 0.287117 0.564342 -0.050888
C15   C     C_2   0.254342 0.710171 0.560535 -0.052118
C16   C     C_2   0.745637 0.289824 0.439443 -0.052139
N1    N     N_2   0.455760 1.000000 0.031460 0.006569
N2    N     N_2   0.544240 0.000000 0.968540 0.006605
N3    N     N_2   0.955760 0.500000 0.031460 0.006604
N4    N     N_2   0.044240 0.500000 0.968540 0.006569
I1    I     I_    0.591628 0.664669 0.231023 -0.169379
I2    I     I_    0.408751 0.335701 0.767753 -0.169767
I3    I     I_    0.416817 0.648130 0.726297 -0.185742
I4    I     I_    0.583137 0.351818 0.273736 -0.185713
I5    I     I_    0.091249 0.164299 0.232247 -0.169766
I6    I     I_    0.908371 0.835331 0.768977 -0.169380
I7    I     I_    0.916863 0.148182 0.726264 -0.185714
I8    I     I_    0.083183 0.851870 0.273703 -0.185741
I9    I     I_    0.281710 0.998505 0.869779 -0.072942
I10   I     I_    0.718287 0.001417 0.130233 -0.072829
I11   I     I_    0.781713 0.498583 0.869767 -0.072828
I12   I     I_    0.218289 0.501495 0.130221 -0.072943

loop_
_geom_bond_atom_site_label_1
_geom_bond_atom_site_label_2
_geom_bond_distance
_ccdc_geom_bond_type
O2    Cu2   1.964915 S    
O16   Cu4   1.954568 S    
N3    I11   2.080707 S    
O13   Cu4   1.949507 S    
O3    C3    1.297115 A    
N1    N2    1.280984 D    
N2    I10   2.080707 S    
O14   Cu3   1.949505 S    
O2    C2    1.295461 A    
C15   I3    2.126342 S    
Cu4   N3    2.049056 S    
O15   Cu3   1.954567 S    
C8    C13   1.426266 S    
C14   I2    2.131781 S    
O5    Cu3   1.964916 S    
Cu3   N4    2.049056 S    
C7    C14   1.426493 S    
C13   I1    2.132338 S    
O12   C4    1.302631 A    
O15   C7    1.302633 A    
O4    Cu1   1.966904 S    
O13   C5    1.303126 A    
Cu2   N1    2.049056 S    
C5    C16   1.425315 S    
C11   I7    2.126206 S    
O1    Cu1   1.964916 S    
C6    C15   1.425195 S    
C12   I8    2.126342 S    
O11   C3    1.302559 A    
O10   C2    1.303127 A    
O7    C7    1.297117 A    
O10   Cu1   1.949505 S    
O9    C1    1.303119 A    
O8    C8    1.297115 A    
O9    Cu2   1.949507 S    
C4    C9    1.426493 S    
O14   C6    1.303120 A    
Cu1   N2    2.049056 S    
C16   I4    2.126206 S    
O11   Cu1   1.954567 S    
O4    C4    1.297117 A    
C12   C15   1.336718 D    
N3    N4    1.280984 D    
N1    I9    2.080716 S    
O16   C8    1.302558 A    
O12   Cu2   1.954568 S    
Cu3   Cu4   2.727042 S    
C1    C12   1.425195 S    
O8    Cu3   1.966904 S    
C11   C16   1.336770 D    
C2    C11   1.425315 S    
C10   C13   1.340582 D    
Cu1   Cu2   2.727042 S    
N4    I12   2.080716 S    
C3    C10   1.426267 S    
O1    C1    1.295417 A    
C9    C14   1.340471 D    
C10   I6    2.132338 S    
O3    Cu2   1.966904 S    
O6    Cu4   1.964915 S    
O7    Cu4   1.966904 S    
C9    I5    2.131781 S    
O5    C5    1.295461 A    
O6    C6    1.295417 A    
