data_mof_unit_55674.cif
_audit_creation_date              2012-12-11T15:52:29-0500
_audit_creation_method            fapswitch 2.2
_symmetry_space_group_name_H-M    P1
_symmetry_Int_Tables_number       1
_space_group_crystal_system       triclinic
_cell_length_a                    6.924074
_cell_length_b                    14.541066
_cell_length_c                    16.0348
_cell_angle_alpha                 90.189523
_cell_angle_beta                  90.021995
_cell_angle_gamma                 90.079169
_cell_volume                      1614.42796007

loop_
_atom_site_label
_atom_site_type_symbol
_atom_type_description
_atom_site_fract_x
_atom_site_fract_y
_atom_site_fract_z
_atom_type_partial_charge
O1    O     O_R   0.494400 0.415640 0.412830 -0.548123
O2    O     O_R   0.823920 0.405510 0.586560 -0.540585
O3    O     O_R   0.994250 0.584360 0.587170 -0.544596
C1    C     C_R   0.654320 0.381872 0.613931 0.736953
O4    O     O_R   0.824110 0.404610 0.413450 -0.520010
O5    O     O_R   0.994440 0.583460 0.412820 -0.534075
C2    C     C_R   0.655025 0.380880 0.385520 0.722653
O6    O     O_R   0.494210 0.416540 0.587180 -0.543158
O7    O     O_3   0.660810 0.558680 0.500000 -0.364405
V1    V     V_3+5 0.935650 0.489110 0.500000 1.451946
O8    O     O_R   0.324150 0.594490 0.413440 -0.539312
C3    C     C_R   0.155060 0.618750 0.386147 0.691295
O9    O     O_R   0.323970 0.595390 0.586550 -0.528875
C4    C     C_R   0.154927 0.617441 0.615725 0.673857
V2    V     V_3+5 0.435660 0.510890 0.500000 1.448125
O10   O     O_3   0.160630 0.441320 0.500000 -0.369535
C5    C     C_3   0.929591 0.704478 0.713416 -0.356100
H1    H     H_    0.839575 0.725087 0.659237 0.151977
H2    H     H_    0.864012 0.639732 0.736996 0.200174
C6    C     C_3   0.917037 0.779055 0.782017 -0.348221
H3    H     H_    0.833267 0.751375 0.835619 0.160071
H4    H     H_    0.836475 0.839443 0.757583 0.150221
H5    H     H_    0.160295 0.916828 0.716971 0.187784
C7    C     C_3   0.233715 0.782117 0.660473 0.019138
C8    C     C_3   0.253252 0.650482 0.767121 0.509362
C9    C     C_3   0.143744 0.687063 0.687023 0.023342
C10   C     C_3   0.121640 0.809551 0.811268 0.001899
C11   C     C_3   0.229872 0.850926 0.735256 -0.308215
C12   C     C_3   0.232204 0.722530 0.840149 -0.366210
H6    H     H_    0.153063 0.691882 0.893760 0.139907
H7    H     H_    0.376522 0.742368 0.864984 0.132032
H8    H     H_    0.386897 0.771345 0.642214 0.137686
H9    H     H_    0.380921 0.868184 0.753354 0.132523
C13   C     C_R   0.983252 0.749480 0.195693 -0.174008
H10   H     H_    0.868453 0.742038 0.150240 0.149066
C14   C     C_R   0.994655 0.686089 0.260900 -0.166927
H11   H     H_    0.888025 0.631601 0.263826 0.144988
C15   C     C_R   0.144072 0.690724 0.320147 -0.219481
C16   C     C_R   0.279879 0.763987 0.314595 0.368191
C17   C     C_R   0.267665 0.828125 0.249166 0.373672
C18   C     C_R   0.120678 0.819899 0.187494 -0.218991
C19   C     C_R   0.775471 0.314694 0.746296 -0.137829
H12   H     H_    0.886144 0.367525 0.747296 0.153596
C20   C     C_R   0.766491 0.251899 0.812132 0.164818
C21   C     C_R   0.620746 0.183016 0.813247 -0.233505
C22   C     C_R   0.486722 0.179369 0.746377 0.352317
C23   C     C_R   0.498155 0.242478 0.680443 0.177829
C24   C     C_R   0.642141 0.311753 0.680667 -0.219248
C25   C     C_R   0.793081 0.243727 0.307976 0.209934
C26   C     C_R   0.783597 0.178822 0.242371 0.169418
C27   C     C_R   0.624136 0.178904 0.186123 -0.113069
C28   C     C_R   0.474916 0.242643 0.199484 -0.190162
H13   H     H_    0.350544 0.244008 0.158509 0.136865
C29   C     C_R   0.485317 0.306926 0.264437 -0.215881
H14   H     H_    0.368872 0.356018 0.271427 0.137308
C30   C     C_R   0.644997 0.309566 0.318527 -0.093035
O11   O     O_R   0.771300 0.080930 0.910090 -0.542512
O12   O     O_R   0.441270 0.092800 0.083770 -0.545991
O13   O     O_R   0.271080 0.913920 0.084380 -0.531630
C31   C     C_R   0.610700 0.113128 0.114528 0.710686
O14   O     O_R   0.441580 0.091910 0.910670 -0.545454
O15   O     O_R   0.271390 0.913020 0.910040 -0.538029
C32   C     C_R   0.610592 0.114265 0.881888 0.735915
O16   O     O_R   0.770990 0.081830 0.084440 -0.544993
O17   O     O_3   0.604750 0.938760 0.997250 -0.363309
V3    V     V_3+5 0.329850 0.008280 0.997210 1.407077
O18   O     O_R   0.941680 0.901940 0.910610 -0.544774
C33   C     C_R   0.110467 0.879719 0.881649 0.699174
O19   O     O_R   0.941370 0.902830 0.083720 -0.534436
C34   C     C_R   0.110056 0.883307 0.114699 0.706149
V4    V     V_3+5 0.829860 0.986420 0.997150 1.408457
O20   O     O_3   0.104830 0.056030 0.997180 -0.381130
O21   O     O_3   0.421902 0.778428 0.373719 -0.607174
H15   H     H_    0.375353 0.755739 0.428204 0.288269
O22   O     O_3   0.397379 0.900362 0.250339 -0.612302
H16   H     H_    0.333576 0.955452 0.226970 0.286705
N1    N     N_3   0.904196 0.262090 0.878308 -0.661389
H17   H     H_    0.830707 0.264674 0.935222 0.223096
H18   H     H_    0.996938 0.205515 0.877845 0.245626
O23   O     O_3   0.348884 0.111306 0.741564 -0.626742
H19   H     H_    0.258138 0.122426 0.788217 0.289237
N2    N     N_3   0.362980 0.233174 0.613073 -0.597797
H20   H     H_    0.269503 0.289492 0.613769 0.243556
H21   H     H_    0.438558 0.231828 0.556633 0.224365
N3    N     N_3   0.952194 0.241193 0.365331 -0.640709
H22   H     H_    0.080289 0.249469 0.331662 0.244666
H23   H     H_    0.954703 0.176591 0.393750 0.258490
N4    N     N_3   0.935568 0.111985 0.236624 -0.680285
H24   H     H_    0.875603 0.045991 0.234322 0.247661
H25   H     H_    0.017436 0.124472 0.183121 0.240806
N5    N     N_3   0.137887 0.822994 0.587608 -0.636565
H26   H     H_    0.997266 0.843299 0.602277 0.250972
H27   H     H_    0.130695 0.775258 0.538888 0.207409
O24   O     O_3   0.450158 0.634482 0.749219 -0.655505
H28   H     H_    0.518532 0.694286 0.746890 0.261278
N6    N     N_3   0.168064 0.562778 0.794197 -0.671289
H29   H     H_    0.193378 0.512455 0.748763 0.223720
H30   H     H_    0.241098 0.540372 0.847532 0.243306

loop_
_geom_bond_atom_site_label_1
_geom_bond_atom_site_label_2
_ccdc_geom_bond_type
C10   C12   S    
O21   H15   S    
C1    O6    A    
N1    H17   S    
C20   C21   A    
O17   V3    S    
C5    C9    S    
C20   N1    S    
C7    C9    S    
O13   V3    S    
O5    C3    A    
C15   C16   A    
O16   V4    S    
O12   C31   A    
V2    O10   S    
C5    C6    S    
O14   C32   A    
C13   H10   S    
C23   N2    S    
O19   V4    S    
C10   C33   S    
C22   C23   A    
O8    V2    S    
O14   V3    S    
O12   V3    S    
V3    O20   S    
N6    H30   S    
O11   C32   A    
O1    V2    S    
O7    V1    S    
O18   V4    S    
C26   N4    S    
N3    H23   S    
C8    O24   S    
O9    C4    A    
O19   C34   A    
C13   C18   A    
C19   C20   A    
C2    C30   S    
C28   C29   A    
C26   C27   A    
N1    H18   S    
C8    C12   S    
C29   C30   A    
O15   V3    S    
C27   C28   A    
C25   N3    S    
C16   C17   A    
O4    C2    A    
C8    C9    S    
O17   V4    S    
C21   C32   S    
O11   V4    S    
O18   C33   A    
O2    C1    A    
O22   H16   S    
C7    H8    S    
C12   H6    S    
N5    H27   S    
C23   C24   A    
N6    H29   S    
C6    H3    S    
C5    H1    S    
C19   C24   A    
H5    C11   S    
C4    C9    S    
N3    H22   S    
O3    C4    A    
C17   C18   A    
N4    H25   S    
C11   H9    S    
N2    H20   S    
O6    V2    S    
N2    H21   S    
O9    V2    S    
C19   H12   S    
O2    V1    S    
C7    N5    S    
N5    H26   S    
C28   H13   S    
C1    C24   S    
C29   H14   S    
C14   H11   S    
O1    C2    A    
C7    C11   S    
C6    H4    S    
O23   H19   S    
O5    V1    S    
O8    C3    A    
C6    C10   S    
C25   C30   A    
C17   O22   S    
O15   C33   A    
C31   O16   A    
C14   C15   A    
O7    V2    S    
O4    V1    S    
C12   H7    S    
O3    V1    S    
V1    O10   S    
C22   O23   S    
C5    H2    S    
C13   C14   A    
C16   O21   S    
C3    C15   S    
O24   H28   S    
O13   C34   A    
C21   C22   A    
V4    O20   S    
N4    H24   S    
C8    N6    S    
C25   C26   A    
C10   C11   S    
C27   C31   S    
C18   C34   S    
