data_mof_unit_62202.cif
_audit_creation_date              2012-12-10T17:58:27-0500
_audit_creation_method            fapswitch 2.2
_symmetry_space_group_name_H-M    P1
_symmetry_Int_Tables_number       1
_space_group_crystal_system       triclinic
_cell_length_a                    38.536565
_cell_length_b                    21.594881
_cell_length_c                    21.596996
_cell_angle_alpha                 89.999475
_cell_angle_beta                  124.113585
_cell_angle_gamma                 89.996664
_cell_volume                      14880.2219391

loop_
_atom_site_label
_atom_site_type_symbol
_atom_type_description
_atom_site_fract_x
_atom_site_fract_y
_atom_site_fract_z
_atom_type_partial_charge
C1    C     C_R   0.999985 0.999989 0.120239 0.858539
C2    C     C_3   0.774927 0.023337 0.839164 -0.415670
C3    C     C_3   0.273739 0.543096 0.719696 0.013990
C4    C     C_3   0.275198 0.038655 0.329793 -0.402250
C5    C     C_3   0.724806 0.044499 0.674933 -0.402505
C6    C     C_3   0.775191 0.543705 0.325760 -0.402466
C7    C     C_3   0.224876 0.540137 0.671019 -0.427213
C8    C     C_1   0.374467 0.000126 0.374325 -0.181517
C9    C     C_1   0.625533 0.000069 0.625675 -0.181424
C10   C     C_1   0.874467 0.500073 0.374323 -0.181427
C11   C     C_1   0.125524 0.500523 0.625726 -0.187591
C12   C     C_3   0.208801 0.002153 0.209037 0.205922
C13   C     C_3   0.725067 0.524340 0.161214 -0.415636
C14   C     C_3   0.791198 0.002133 0.791274 0.205925
C15   C     C_3   0.708801 0.502126 0.208769 0.205904
C16   C     C_3   0.291196 0.502418 0.791410 0.220951
C17   C     C_3   0.273883 0.933254 0.277851 0.296655
C18   C     C_3   0.726132 0.934074 0.714714 0.296683
C19   C     C_3   0.773877 0.433899 0.284259 0.296671
C20   C     C_3   0.226050 0.434259 0.721638 0.288931
C21   C     C_3   0.291149 0.000398 0.289595 0.214305
C22   C     C_3   0.708850 0.000167 0.710460 0.214286
C23   C     C_3   0.791149 0.500191 0.289544 0.214283
C24   C     C_3   0.274994 0.526754 0.838331 -0.472531
C25   C     C_3   0.208811 0.501534 0.710815 0.235661
C26   C     C_3   0.209255 0.106700 0.270152 -0.408969
C27   C     C_3   0.218077 0.136142 0.342057 -0.887639
C28   C     C_3   0.790734 0.112841 0.742300 -0.409089
C29   C     C_3   0.781919 0.149192 0.674108 -0.887460
C30   C     C_3   0.709254 0.612058 0.259468 -0.409011
C31   C     C_3   0.718068 0.647470 0.328221 -0.887560
C32   C     C_3   0.289663 0.611063 0.737416 -0.401838
C33   C     C_3   0.282262 0.644673 0.668638 -0.888006
C34   C     C_3   0.291375 0.003020 0.168617 -0.403862
C35   C     C_1   0.336971 0.000182 0.336309 -0.053028
C36   C     C_3   0.282575 0.043939 0.103482 -0.878928
C37   C     C_3   0.708593 0.989136 0.830929 -0.403995
C38   C     C_3   0.717369 0.023456 0.900292 -0.878078
C39   C     C_3   0.791402 0.491065 0.168909 -0.403992
C40   C     C_3   0.782616 0.526336 0.100087 -0.878172
C41   C     C_3   0.206417 0.508692 0.830497 -0.399140
C42   C     C_3   0.171230 0.550702 0.818874 -0.881816
C43   C     C_1   0.663029 0.000049 0.663704 -0.052961
C44   C     C_1   0.836971 0.500062 0.336294 -0.052973
C45   C     C_1   0.163018 0.501065 0.664082 -0.008500
C46   C     C_1   0.163024 0.000862 0.163249 -0.092794
C47   C     C_1   0.836976 0.000863 0.836930 -0.092816
C48   C     C_1   0.663024 0.500852 0.163096 -0.092810
C49   C     C_R   0.000015 0.999990 0.879761 0.858638
C50   C     C_1   0.336972 0.500952 0.837008 -0.089138
C51   C     C_1   0.125529 0.000175 0.125668 -0.191979
C52   C     C_1   0.874471 0.000183 0.874410 -0.191972
C53   C     C_1   0.625529 0.500171 0.125601 -0.191963
C54   C     C_1   0.374467 0.500200 0.874441 -0.192979
C55   C     C_R   0.972966 0.039840 0.190911 -0.186005
C56   C     C_R   0.027012 0.039867 0.809065 -0.185935
C57   C     C_R   0.473000 0.539889 0.190948 -0.185984
C58   C     C_R   0.527019 0.539857 0.809072 -0.185984
C59   C     C_R   0.972504 0.039123 0.254399 -0.187526
C60   C     C_R   0.499986 0.499989 0.120240 0.858645
C61   C     C_R   0.027475 0.039150 0.745577 -0.187476
C62   C     C_R   0.472537 0.539173 0.254436 -0.187716
C63   C     C_R   0.527482 0.539140 0.745584 -0.187545
C64   C     C_R   0.999979 0.999920 0.313503 -0.010945
C65   C     C_R   0.000021 0.999920 0.686496 -0.011006
C66   C     C_R   0.499979 0.499919 0.313505 -0.010970
C67   C     C_R   0.500021 0.499920 0.686497 -0.010911
C68   C     C_R   0.027451 0.960734 0.309358 -0.186745
C69   C     C_R   0.972571 0.960708 0.690663 -0.186671
C70   C     C_R   0.527419 0.460683 0.309329 -0.186748
C71   C     C_R   0.500015 0.499990 0.879762 0.858508
C72   C     C_R   0.472564 0.460718 0.690657 -0.186837
C73   C     C_R   0.026990 0.960063 0.244946 -0.185141
C74   C     C_R   0.973033 0.960037 0.755076 -0.185061
C75   C     C_R   0.526956 0.460013 0.244916 -0.185112
C76   C     C_R   0.473026 0.460047 0.755069 -0.185272
C77   C     C_R   0.081085 0.000011 0.081134 0.907765
C78   C     C_R   0.918915 0.000014 0.918867 0.907830
C79   C     C_R   0.581085 0.500010 0.081133 0.907821
C80   C     C_R   0.418914 0.500015 0.918863 0.907848
C81   C     C_R   0.999980 0.999963 0.186313 -0.005071
C82   C     C_3   0.273916 0.031732 0.211884 -0.079351
C83   C     C_R   0.000021 0.999965 0.813686 -0.005198
C84   C     C_R   0.499980 0.499963 0.186316 -0.005225
C85   C     C_R   0.500021 0.499965 0.813687 -0.005072
C86   C     C_R   0.500001 0.186415 0.499999 -0.002849
C87   C     C_R   0.000014 0.686410 0.500013 -0.002631
C88   C     C_R   0.500000 0.879899 0.500000 0.861779
C89   C     C_R   0.000000 0.379899 0.500001 0.862497
C90   C     C_R   0.418910 0.000136 0.418917 0.905607
C91   C     C_R   0.581090 0.000136 0.581082 0.905083
C92   C     C_R   0.918910 0.500136 0.418917 0.905083
C93   C     C_3   0.726063 0.024503 0.791300 -0.079120
C94   C     C_R   0.081088 0.500144 0.581082 0.902437
C95   C     C_R   0.500000 0.120424 0.499999 0.856259
C96   C     C_R   0.000009 0.620422 0.500009 0.855641
C97   C     C_R   0.000002 0.879469 0.500008 0.865688
C98   C     C_R   0.500001 0.379471 0.500000 0.865703
C99   C     C_R   0.999999 0.999918 0.379609 0.865000
C100  C     C_R   0.000001 0.999918 0.620390 0.865031
C101  C     C_R   0.499999 0.499917 0.379610 0.865034
C102  C     C_R   0.500001 0.499918 0.620390 0.865026
C103  C     C_R   0.999999 0.120370 0.499998 0.865076
C104  C     C_3   0.773930 0.525526 0.209090 -0.079150
C105  C     C_R   0.499999 0.620370 0.499998 0.865096
C106  C     C_R   0.526947 0.782122 0.487001 -0.182800
C107  C     C_R   0.473050 0.782128 0.512995 -0.181930
C108  C     C_R   0.026947 0.282122 0.487000 -0.181487
C109  C     C_R   0.973051 0.282128 0.512999 -0.182671
C110  C     C_R   0.027410 0.218149 0.488158 -0.186374
C111  C     C_R   0.972585 0.218155 0.511835 -0.186452
C112  C     C_R   0.527411 0.718149 0.488159 -0.186587
C113  C     C_R   0.472583 0.718155 0.511831 -0.186455
C114  C     C_3   0.225242 0.934639 0.229742 -0.487453
C115  C     C_3   0.226291 0.532704 0.788857 -0.078193
C116  C     C_3   0.774773 0.935523 0.763007 -0.487608
C117  C     C_3   0.725236 0.435339 0.235995 -0.487546
C118  C     C_3   0.274597 0.435491 0.766494 -0.485554
C119  C     C_R   0.999997 0.186504 0.499994 -0.013196
C120  C     C_R   0.499996 0.686504 0.499994 -0.013137
C121  C     C_R   0.499999 0.813769 0.500000 -0.009776
C122  C     C_R   1.000000 0.313769 0.500001 -0.009945
C123  C     C_R   0.472973 0.217986 0.433074 -0.186781
C124  C     C_R   0.527031 0.217979 0.566925 -0.186676
C125  C     C_R   0.972926 0.717979 0.433116 -0.186600
C126  C     C_3   0.225053 0.030449 0.163912 -0.415431
C127  C     C_R   0.027103 0.717970 0.566911 -0.187054
C128  C     C_R   0.972469 0.781896 0.433347 -0.188167
C129  C     C_R   0.027553 0.781890 0.566680 -0.187874
C130  C     C_R   0.472519 0.281904 0.433302 -0.188255
C131  C     C_R   0.527488 0.281897 0.566696 -0.188161
C132  C     C_R   0.000007 0.813469 0.500013 -0.009780
C133  C     C_R   0.500004 0.313474 0.499999 -0.009562
C134  C     C_3   0.226370 0.039463 0.283096 0.014750
C135  C     C_3   0.773634 0.045557 0.721767 0.015050
C136  C     C_3   0.726362 0.544728 0.278949 0.014986
H1    H     H_    0.213238 0.906976 0.177994 0.150257
H2    H     H_    0.715896 0.073685 0.785714 0.168110
H3    H     H_    0.703799 0.997042 0.926006 0.252205
H4    H     H_    0.674098 0.983637 0.792703 0.219524
H5    H     H_    0.722469 0.942039 0.847715 0.205656
H6    H     H_    0.748406 0.531350 0.058023 0.259085
H7    H     H_    0.797208 0.573002 0.116383 0.256084
H8    H     H_    0.796188 0.500546 0.073962 0.252207
H9    H     H_    0.825898 0.485511 0.207046 0.219530
H10   H     H_    0.777532 0.444019 0.151391 0.205667
H11   H     H_    0.183744 0.597507 0.842046 0.251528
H12   H     H_    0.145779 0.555115 0.758810 0.269161
H13   H     H_    0.784091 0.574774 0.215442 0.168105
H14   H     H_    0.157780 0.530901 0.848506 0.254370
H15   H     H_    0.193949 0.461068 0.812691 0.206313
H16   H     H_    0.230224 0.506839 0.891841 0.215441
H17   H     H_    0.219429 0.583238 0.778812 0.177152
H18   H     H_    0.951950 0.070519 0.145112 0.141306
H19   H     H_    0.048012 0.070567 0.854846 0.141399
H20   H     H_    0.452010 0.570608 0.145176 0.141453
H21   H     H_    0.548024 0.570549 0.854859 0.141335
H22   H     H_    0.951379 0.069626 0.258041 0.143126
H23   H     H_    0.048583 0.069673 0.741917 0.143205
H24   H     H_    0.451438 0.569714 0.258105 0.143122
H25   H     H_    0.786776 0.903564 0.811394 0.150481
H26   H     H_    0.548595 0.569655 0.741929 0.143118
H27   H     H_    0.048582 0.930220 0.355264 0.143906
H28   H     H_    0.951457 0.930174 0.644775 0.143962
H29   H     H_    0.548523 0.430131 0.355210 0.143943
H30   H     H_    0.451446 0.430191 0.644764 0.143857
H31   H     H_    0.048008 0.929403 0.241192 0.142501
H32   H     H_    0.952032 0.929357 0.758846 0.142563
H33   H     H_    0.547949 0.429314 0.241138 0.142586
H34   H     H_    0.452020 0.429375 0.758835 0.142444
H35   H     H_    0.547920 0.806894 0.477254 0.147545
H36   H     H_    0.713236 0.403958 0.187113 0.150453
H37   H     H_    0.452078 0.806905 0.522744 0.147992
H38   H     H_    0.047919 0.306894 0.477252 0.148127
H39   H     H_    0.952080 0.306905 0.522750 0.147598
H40   H     H_    0.048494 0.193378 0.478685 0.145175
H41   H     H_    0.951501 0.193388 0.521307 0.145008
H42   H     H_    0.548495 0.693378 0.478688 0.144978
H43   H     H_    0.451498 0.693387 0.521301 0.145137
H44   H     H_    0.451948 0.193199 0.381385 0.141303
H45   H     H_    0.548055 0.193186 0.618613 0.141324
H46   H     H_    0.951857 0.693190 0.381451 0.141264
H47   H     H_    0.287714 0.404714 0.816182 0.151942
H48   H     H_    0.048175 0.693175 0.618574 0.140952
H49   H     H_    0.213054 0.912335 0.260417 0.196482
H50   H     H_    0.786973 0.918191 0.730111 0.196310
H51   H     H_    0.713041 0.417298 0.268617 0.196345
H52   H     H_    0.285410 0.416696 0.732023 0.196843
H53   H     H_    0.951295 0.806679 0.381727 0.143312
H54   H     H_    0.048725 0.806669 0.618299 0.143304
H55   H     H_    0.451392 0.306690 0.381661 0.143103
H56   H     H_    0.548615 0.306677 0.618337 0.143231
H57   H     H_    0.216212 0.014744 0.315693 0.169030
H58   H     H_    0.284795 0.905772 0.248153 0.077743
H59   H     H_    0.783809 0.025811 0.686682 0.169133
H60   H     H_    0.716192 0.524271 0.313722 0.169118
H61   H     H_    0.285049 0.522154 0.686886 0.164649
H62   H     H_    0.287412 0.018839 0.386047 0.212948
H63   H     H_    0.712609 0.029758 0.616739 0.213033
H64   H     H_    0.787392 0.528241 0.383719 0.213021
H65   H     H_    0.213859 0.519309 0.615746 0.213368
H66   H     H_    0.288173 0.086405 0.339560 0.160281
H67   H     H_    0.711819 0.091582 0.670491 0.160120
H68   H     H_    0.788172 0.590917 0.330937 0.160148
H69   H     H_    0.715218 0.902194 0.741057 0.077576
H70   H     H_    0.210840 0.587282 0.659100 0.163492
H71   H     H_    0.212442 0.002706 0.112034 0.189169
H72   H     H_    0.787532 0.991351 0.887671 0.189365
H73   H     H_    0.712464 0.492923 0.112211 0.189337
H74   H     H_    0.285660 0.494328 0.885851 0.178840
H75   H     H_    0.212712 0.078189 0.145275 0.161157
H76   H     H_    0.787260 0.070067 0.863133 0.160932
H77   H     H_    0.712728 0.571247 0.137977 0.160974
H78   H     H_    0.289238 0.572484 0.863553 0.168404
H79   H     H_    0.283654 0.860014 0.337772 0.329504
H80   H     H_    0.784794 0.402613 0.257420 0.077596
H81   H     H_    0.716409 0.866942 0.646908 0.329536
H82   H     H_    0.783619 0.365859 0.351014 0.329543
H83   H     H_    0.215099 0.360761 0.661424 0.330678
H84   H     H_    0.203215 0.108553 0.364626 0.259972
H85   H     H_    0.252281 0.139301 0.385051 0.261184
H86   H     H_    0.204793 0.183659 0.329881 0.256598
H87   H     H_    0.223333 0.136097 0.247487 0.211128
H88   H     H_    0.174770 0.107234 0.228875 0.224018
H89   H     H_    0.796790 0.125988 0.648691 0.260151
H90   H     H_    0.747715 0.153313 0.631513 0.261147
H91   H     H_    0.216577 0.406801 0.753510 0.077907
H92   H     H_    0.795194 0.196533 0.691631 0.256381
H93   H     H_    0.776641 0.137909 0.768017 0.210967
H94   H     H_    0.825218 0.112620 0.783610 0.224317
H95   H     H_    0.703200 0.623637 0.353274 0.260102
H96   H     H_    0.752271 0.651461 0.370877 0.261152
H97   H     H_    0.704787 0.694873 0.311438 0.256427
H98   H     H_    0.723342 0.637751 0.234144 0.211000
H99   H     H_    0.674770 0.611942 0.218159 0.224280
H100  H     H_    0.298920 0.620534 0.647138 0.259841
H101  H     H_    0.248341 0.647047 0.623614 0.261150
H102  H     H_    0.284074 0.081119 0.223015 0.168011
H103  H     H_    0.294538 0.692675 0.684210 0.255988
H104  H     H_    0.273936 0.637165 0.759451 0.209717
H105  H     H_    0.323878 0.612342 0.780902 0.222618
H106  H     H_    0.248363 0.049688 0.061956 0.259136
H107  H     H_    0.297169 0.090222 0.124283 0.255909
H108  H     H_    0.296137 0.022116 0.075030 0.252254
H109  H     H_    0.325872 0.997144 0.206184 0.219518
H110  H     H_    0.277504 0.956547 0.146565 0.205723
H111  H     H_    0.751577 0.028350 0.942436 0.259078
H112  H     H_    0.702770 0.070141 0.884722 0.256097
O1    O     O_R   0.999990 0.948250 0.091620 -0.623208
O2    O     O_R   0.965310 0.999930 0.556910 -0.623047
O3    O     O_R   0.534690 0.499930 0.443090 -0.623019
O4    O     O_R   0.465310 0.499930 0.556910 -0.623108
O5    O     O_R   0.965300 0.091560 0.465360 -0.623413
O6    O     O_R   0.034700 0.091560 0.534640 -0.623220
O7    O     O_R   0.465300 0.591560 0.465360 -0.623308
O8    O     O_R   0.534700 0.591560 0.534640 -0.623394
O9    O     O_R   0.999990 0.051750 0.091660 -0.622813
O10   O     O_R   0.000010 0.051750 0.908340 -0.622725
O11   O     O_R   0.499990 0.551750 0.091660 -0.622745
O12   O     O_R   0.000010 0.948250 0.908380 -0.623214
O13   O     O_R   0.500010 0.551750 0.908340 -0.622774
O14   O     O_R   0.061430 0.948250 0.061430 -0.616368
O15   O     O_R   0.938570 0.948250 0.938570 -0.616368
O16   O     O_R   0.561430 0.448250 0.061430 -0.616358
O17   O     O_R   0.438570 0.448250 0.938570 -0.616506
O18   O     O_R   0.061430 0.051750 0.061470 -0.619772
O19   O     O_R   0.938570 0.051750 0.938530 -0.619800
O20   O     O_R   0.561430 0.551750 0.061470 -0.619804
O21   O     O_R   0.438570 0.551750 0.938530 -0.619553
O22   O     O_R   0.500000 0.908530 0.551740 -0.621944
O23   O     O_R   0.499990 0.448250 0.091620 -0.623244
O24   O     O_R   0.500000 0.908530 0.448260 -0.621747
O25   O     O_R   0.000000 0.408530 0.551740 -0.621117
O26   O     O_R   1.000000 0.408530 0.448260 -0.621964
O27   O     O_R   0.438570 0.000200 0.490320 -0.609334
O28   O     O_R   0.561430 0.000200 0.509680 -0.608392
O29   O     O_R   0.938570 0.500200 0.490320 -0.608536
O30   O     O_R   0.061430 0.500200 0.509680 -0.609261
O31   O     O_R   0.438570 0.000170 0.386880 -0.623824
O32   O     O_R   0.561430 0.000170 0.613120 -0.623972
O33   O     O_R   0.938570 0.500170 0.386880 -0.623957
O34   O     O_R   0.500010 0.448250 0.908380 -0.623222
O35   O     O_R   0.061430 0.500170 0.613120 -0.622306
O36   O     O_R   0.500000 0.091870 0.551750 -0.623836
O37   O     O_R   0.500000 0.091870 0.448250 -0.623695
O38   O     O_R   1.000000 0.591870 0.551750 -0.623974
O39   O     O_R   1.000000 0.591870 0.448250 -0.623789
O40   O     O_R   0.965340 0.908230 0.465340 -0.624071
O41   O     O_R   0.034660 0.908230 0.534660 -0.624158
O42   O     O_R   0.465340 0.408230 0.465340 -0.624209
O43   O     O_R   0.534660 0.408230 0.534660 -0.624042
O44   O     O_3   0.288982 0.905120 0.347322 -0.765801
O45   O     O_R   0.965330 0.999890 0.373740 -0.624209
O46   O     O_3   0.711049 0.912229 0.642435 -0.765332
O47   O     O_3   0.788966 0.411156 0.356191 -0.765389
O48   O     O_3   0.209396 0.405796 0.651778 -0.768632
O49   O     O_R   0.034670 0.999890 0.626260 -0.624180
O50   O     O_R   0.465330 0.499890 0.373740 -0.624319
O51   O     O_R   0.534670 0.499890 0.626260 -0.624189
O52   O     O_R   0.034690 0.999930 0.443090 -0.623075
Zn1   Zn    Zn3+2 0.000000 0.930890 0.000000 0.955048
Zn2   Zn    Zn3+2 0.046310 0.999890 0.546280 0.950364
Zn3   Zn    Zn3+2 0.453690 0.499890 0.453720 0.949904
Zn4   Zn    Zn3+2 0.546310 0.499890 0.546280 0.950277
Zn5   Zn    Zn3+2 0.500000 0.430890 0.000000 0.954968
Zn6   Zn    Zn3+2 0.000000 0.069110 0.000000 0.953010
Zn7   Zn    Zn3+2 0.500000 0.569110 0.000000 0.953150
Zn8   Zn    Zn3+2 0.499990 0.000210 0.569090 0.959519
Zn9   Zn    Zn3+2 0.500010 0.000210 0.430910 0.960329
Zn10  Zn    Zn3+2 0.999990 0.500210 0.569090 0.960815
Zn11  Zn    Zn3+2 0.000010 0.500210 0.430910 0.959534
Zn12  Zn    Zn3+2 0.953690 0.999890 0.453720 0.950302

loop_
_geom_bond_atom_site_label_1
_geom_bond_atom_site_label_2
_ccdc_geom_bond_type
O32   Zn8   S    
C55   H18   S    
C55   C59   A    
C74   C83   A    
C20   C118  S    
C20   H91   S    
O15   Zn1   S    
C49   O12   A    
C12   C126  S    
C114  H1    S    
C13   H77   S    
C107  C113  A    
O27   Zn8   S    
O1    Zn1   S    
C31   H95   S    
C34   H110  S    
O49   Zn2   S    
C30   H99   S    
O9    Zn6   S    
C27   H84   S    
C115  H17   S    
C89   O25   A    
C79   O16   A    
C71   O34   A    
C72   H30   S    
C7    H70   S    
O43   Zn4   S    
C73   C81   A    
C27   H85   S    
C97   C132  S    
O34   Zn5   S    
C112  C120  A    
O11   Zn7   S    
C131  H56   S    
C17   C21   S    
C90   O31   A    
C8    C35   T    
C19   C23   S    
C37   C38   S    
C16   C118  S    
C113  C120  A    
O38   Zn10  S    
C126  H71   S    
C39   H9    S    
C69   C74   A    
C76   H34   S    
C33   H100  S    
C41   H15   S    
C113  H43   S    
C30   C136  S    
C26   H88   S    
C2    H72   S    
C105  O7    A    
O18   Zn6   S    
C28   H94   S    
C56   C83   A    
C112  H42   S    
C125  H46   S    
C36   H107  S    
C15   C48   S    
C109  H39   S    
C47   C52   T    
C21   C35   S    
C110  H40   S    
C32   H104  S    
C7    H65   S    
O19   Zn6   S    
C117  H36   S    
C66   C70   A    
O37   Zn9   S    
C97   O41   A    
O7    Zn3   S    
C2    C14   S    
O8    Zn4   S    
C86   C95   S    
C61   C65   A    
C124  H45   S    
C111  H41   S    
C103  O6    A    
O42   Zn3   S    
C100  O49   A    
C76   C85   A    
C28   C135  S    
O35   Zn10  S    
C39   C104  S    
C114  H49   S    
C19   O47   S    
C64   C68   A    
C91   O28   A    
C126  H75   S    
C109  C111  A    
C59   H22   S    
C1    O1    A    
C75   C84   A    
C14   C135  S    
C96   O39   A    
C77   O18   A    
C111  C119  A    
C67   C72   A    
O24   Zn9   S    
O21   Zn7   S    
O45   Zn12  S    
C24   H78   S    
C64   C99   S    
O22   Zn8   S    
C103  O5    A    
C105  C120  S    
C55   C81   A    
O51   Zn4   S    
O6    Zn2   S    
C4    H62   S    
H79   O44   S    
C12   C134  S    
C87   C96   S    
C127  H48   S    
C66   C101  S    
C17   H58   S    
C29   H90   S    
C41   C115  S    
C12   C114  S    
C48   C53   T    
C57   H20   S    
C9    C43   T    
C62   C66   A    
C10   C44   T    
C13   H73   S    
C116  H25   S    
C12   C46   S    
C70   H29   S    
C39   C40   S    
C15   C136  S    
C46   C51   T    
C127  C129  A    
C75   H33   S    
C26   C134  S    
C94   O30   A    
C22   C43   S    
C38   H112  S    
C79   O20   A    
C37   C93   S    
C123  C130  A    
C86   C124  A    
C62   H24   S    
C97   O40   A    
C25   C45   S    
O20   Zn7   S    
C4    C134  S    
C5    C135  S    
C18   C22   S    
C58   H21   S    
C110  C119  A    
C5    H67   S    
C36   H106  S    
C78   O19   A    
C40   H8    S    
O36   Zn8   S    
O25   Zn10  S    
C108  C110  A    
C34   C36   S    
O50   Zn3   S    
O23   Zn5   S    
C60   O23   A    
H81   O46   S    
C21   C82   S    
C40   H7    S    
C70   C75   A    
O13   Zn7   S    
C34   C82   S    
C29   H92   S    
C3    C16   S    
C94   O35   A    
O41   Zn2   S    
C41   C42   S    
C69   H28   S    
C73   H31   S    
C42   H12   S    
C74   H32   S    
C5    H63   S    
C118  H47   S    
C31   H97   S    
C98   C133  S    
C26   C27   S    
C50   C54   T    
C37   H5    S    
C18   H69   S    
C28   C29   S    
C98   O42   A    
C16   C50   S    
C136  H60   S    
C3    C7    S    
C30   C31   S    
C20   C25   S    
C42   H11   S    
C1    C81   S    
C80   O21   A    
C78   O15   A    
C82   C126  S    
C93   H2    S    
C37   H4    S    
C108  H38   S    
C96   O38   A    
C38   H3    S    
C54   C80   S    
C129  C132  A    
C18   O46   S    
C10   C92   S    
O5    Zn12  S    
C101  O3    A    
C52   C78   S    
O52   Zn2   S    
O31   Zn9   S    
C1    O9    A    
O12   Zn1   S    
C77   O14   A    
C36   H108  S    
C18   C116  S    
C24   H74   S    
O28   Zn9   S    
C95   O37   A    
C116  H50   S    
C23   C44   S    
C15   C117  S    
C104  H13   S    
C51   C77   S    
C6    H68   S    
C4    H66   S    
C23   C104  S    
C31   H96   S    
C34   H109  S    
C57   C84   A    
C30   H98   S    
C13   C104  S    
O30   Zn11  S    
C11   C94   S    
C88   O22   A    
C89   O26   A    
C20   O48   S    
C11   C45   T    
C130  C133  A    
C107  C121  A    
C130  H55   S    
C68   H27   S    
O33   Zn11  S    
C65   C100  S    
C88   C121  S    
C99   O45   A    
C17   O44   S    
C2    H76   S    
C7    C25   S    
C32   C33   S    
C49   C83   S    
C61   H23   S    
C101  O50   A    
C6    H64   S    
C65   C69   A    
C39   H10   S    
C3    C32   S    
C33   H101  S    
C135  H59   S    
H83   O48   S    
C19   C117  S    
C95   O36   A    
C89   C122  S    
C26   H87   S    
C56   C61   A    
O16   Zn5   S    
C105  O8    A    
C28   H93   S    
C71   O13   A    
C63   H26   S    
O14   Zn1   S    
C40   H6    S    
C32   H105  S    
C106  H35   S    
C29   H89   S    
C72   C76   A    
C9    C91   S    
C87   C127  A    
C57   C62   A    
C41   H16   S    
C106  C112  A    
C59   C64   A    
C102  O4    A    
C60   O11   A    
C53   C79   S    
C128  H53   S    
C100  O2    A    
C25   C115  S    
O29   Zn10  S    
C109  C122  A    
C38   H111  S    
C19   H80   S    
C92   O29   A    
C6    C136  S    
C99   O52   A    
O10   Zn6   S    
C71   C85   S    
C88   O24   A    
C134  H57   S    
C5    C22   S    
C125  C128  A    
C90   O27   A    
O2    Zn12  S    
C16   C24   S    
C56   H19   S    
C128  C132  A    
C17   C114  S    
C63   C67   A    
C80   O17   A    
O17   Zn5   S    
C117  H51   S    
C102  O51   A    
C118  H52   S    
C107  H37   S    
C68   C73   A    
C124  C131  A    
C92   O33   A    
C33   H103  S    
H82   O47   S    
C49   O10   A    
C129  H54   S    
O3    Zn4   S    
O4    Zn3   S    
O26   Zn11  S    
C13   C15   S    
C22   C93   S    
C8    C90   S    
C58   C85   A    
C87   C125  A    
C58   C63   A    
C27   H86   S    
C2    C93   S    
C103  C119  S    
C108  C122  A    
C123  H44   S    
C131  C133  A    
C14   C47   S    
C98   O43   A    
C4    C21   S    
C60   C84   S    
C14   C116  S    
C6    C23   S    
C82   H102  S    
C106  C121  A    
C3    H61   S    
C91   O32   A    
C42   H14   S    
C24   C115  S    
C86   C123  A    
O39   Zn11  S    
O40   Zn12  S    
C67   C102  S    
