data_mof_unit_36881.cif
_audit_creation_date              2012-12-11T14:50:54-0500
_audit_creation_method            fapswitch 2.2
_symmetry_space_group_name_H-M    P1
_symmetry_Int_Tables_number       1
_space_group_crystal_system       triclinic
_cell_length_a                    10.972955
_cell_length_b                    10.954323
_cell_length_c                    18.787229
_cell_angle_alpha                 90.290705
_cell_angle_beta                  89.675311
_cell_angle_gamma                 60.058946
_cell_volume                      1956.74901678

loop_
_atom_site_label
_atom_site_type_symbol
_atom_type_description
_atom_site_fract_x
_atom_site_fract_y
_atom_site_fract_z
_atom_type_partial_charge
C1    C     C_R   0.235131 0.646269 0.609741 0.540879
C2    C     C_R   0.568248 0.154500 0.781732 -0.030587
C3    C     C_R   0.570754 0.148815 0.708961 -0.122399
C4    C     C_R   0.628132 0.590442 0.609000 0.545313
C5    C     C_R   0.673198 0.158902 0.670413 -0.026268
C6    C     C_R   0.199793 0.544219 0.723160 0.057186
C7    C     C_R   0.202324 0.545966 0.798046 -0.147077
C8    C     C_R   0.188061 0.664561 0.834892 -0.018889
C9    C     C_R   0.189703 0.771393 0.796019 -0.138002
C10   C     C_R   0.175807 0.776175 0.722924 -0.160894
C11   C     C_R   0.191702 0.659107 0.684986 0.009151
C12   C     C_3   0.730082 0.509096 0.803947 -0.117280
C13   C     C_R   0.800839 0.599082 0.293551 -0.116915
C14   C     C_R   0.819396 0.617213 0.222481 -0.108227
C15   C     C_R   0.705489 0.710881 0.181252 0.029216
C16   C     C_R   0.630617 0.223665 0.600938 0.529160
C17   C     C_R   0.572548 0.792177 0.213098 -0.136718
C18   C     C_R   0.553403 0.773235 0.284844 -0.134962
C19   C     C_R   0.667124 0.672594 0.324677 0.019984
C20   C     C_R   0.576952 0.119666 0.292035 -0.123797
C21   C     C_R   0.573013 0.112893 0.219171 -0.140224
C22   C     C_R   0.651598 0.154395 0.176802 0.039919
C23   C     C_3   0.679937 0.667852 0.817414 0.046287
C24   C     C_R   0.731950 0.207219 0.208300 0.060786
C25   C     C_R   0.733176 0.216194 0.281609 -0.117734
C26   C     C_R   0.652934 0.175813 0.323430 0.005453
C27   C     C_R   0.093745 0.801216 0.304530 -0.159032
C28   C     C_R   0.218873 0.649283 0.402542 0.556719
C29   C     C_R   0.077150 0.813398 0.232281 -0.131880
C30   C     C_R   0.112810 0.693831 0.189887 0.006834
C31   C     C_R   0.152380 0.564800 0.221095 -0.133222
C32   C     C_R   0.163979 0.552458 0.294391 0.072521
C33   C     C_R   0.147361 0.669280 0.335554 0.034140
C34   C     C_3   0.644254 0.625717 0.683336 0.045953
C35   C     C_R   0.703284 0.097517 0.894366 0.547718
C36   C     C_R   0.716550 0.684852 0.891335 0.547787
C37   C     C_R   0.122194 0.703664 0.906377 0.536746
C38   C     C_R   0.674213 0.107737 0.103788 0.556790
C39   C     C_R   0.730934 0.717886 0.105457 0.560460
C40   C     C_R   0.643771 0.625137 0.393239 0.549525
C41   C     C_R   0.084755 0.714396 0.114910 0.539917
C42   C     C_R   0.618699 0.228105 0.395344 0.548582
C43   C     C_3   0.520169 0.749521 0.801501 -0.228658
C44   C     C_3   0.499573 0.732177 0.720885 -0.028126
C45   C     C_3   0.752924 0.677581 0.688612 -0.089960
C46   C     C_3   0.744403 0.733871 0.764795 -0.135217
C47   C     C_3   0.884481 0.716178 0.787210 -0.390959
C48   C     C_3   0.430944 0.181718 0.816268 -0.345313
C49   C     C_3   0.743217 0.783657 0.631589 -0.371628
C50   C     C_3   0.655457 0.456188 0.856281 -0.386820
C51   C     C_3   0.704950 0.485789 0.725488 -0.259291
C52   C     C_R   0.791589 0.146046 0.704785 -0.133950
C53   C     C_R   0.802334 0.133025 0.778714 0.039480
C54   C     C_R   0.689720 0.137555 0.818786 0.026023
Cr1   Cr    Cr6+3 0.392930 0.397900 0.502230 1.096401
Cr2   Cr    Cr6+3 0.398240 0.708600 0.501260 1.060579
Cr3   Cr    Cr6+3 0.708800 0.393470 0.496460 1.040442
Cr4   Cr    Cr6+3 0.937620 0.938540 0.007640 1.074002
Cr5   Cr    Cr6+3 0.625150 0.937450 0.994520 1.010978
Cr6   Cr    Cr6+3 0.937990 0.625080 0.001190 1.034545
H1    H     H_    0.474472 0.862217 0.815947 0.152754
H2    H     H_    0.889439 0.520815 0.323037 0.172767
H3    H     H_    0.921881 0.552316 0.198596 0.156081
H4    H     H_    0.482833 0.865200 0.182157 0.139561
H5    H     H_    0.448570 0.830686 0.307728 0.147176
H6    H     H_    0.514718 0.087980 0.323675 0.163024
H7    H     H_    0.511722 0.070426 0.196172 0.147238
H8    H     H_    0.789960 0.263235 0.305325 0.167485
H9    H     H_    0.074332 0.893284 0.335330 0.145752
H10   H     H_    0.433735 0.682802 0.716396 0.133551
H11   H     H_    0.037484 0.917217 0.209780 0.170053
H12   H     H_    0.806760 0.404283 0.701717 0.163548
H13   H     H_    0.170986 0.474866 0.188704 0.149327
H14   H     H_    0.672744 0.850244 0.764416 0.173064
H15   H     H_    0.845282 0.447443 0.813229 0.198231
H16   H     H_    0.632037 0.443204 0.720865 0.121817
H17   H     H_    0.954077 0.603364 0.798233 0.179188
H18   H     H_    0.928573 0.753503 0.745218 0.149407
H19   H     H_    0.871328 0.781128 0.835220 0.170445
H20   H     H_    0.440434 0.083018 0.837124 0.174774
H21   H     H_    0.398706 0.262708 0.858955 0.147573
H22   H     H_    0.343378 0.220593 0.778653 0.167650
H23   H     H_    0.858735 0.583962 0.680298 0.188547
H24   H     H_    0.834794 0.800193 0.635415 0.121985
H25   H     H_    0.746479 0.743439 0.576955 0.182072
H26   H     H_    0.647998 0.887727 0.637862 0.175444
H27   H     H_    0.622040 0.517377 0.906809 0.146861
H28   H     H_    0.559669 0.462366 0.833050 0.130375
H29   H     H_    0.726291 0.347767 0.873095 0.178318
H30   H     H_    0.871351 0.154905 0.674785 0.164453
H31   H     H_    0.481610 0.153320 0.682240 0.201169
H32   H     H_    0.193398 0.465608 0.826876 0.139501
H33   H     H_    0.193723 0.856077 0.822928 0.191722
H34   H     H_    0.460999 0.712635 0.834498 0.114999
H35   H     H_    0.163444 0.868075 0.695684 0.197954
I1    I     I_    0.981504 0.131876 0.822564 -0.433289
I2    I     I_    0.163531 0.390281 0.672681 -0.396804
I3    I     I_    0.847147 0.283041 0.150072 -0.341456
I4    I     I_    0.202369 0.354656 0.334457 -0.383104
I5    I     I_    0.378266 0.941402 0.675732 -0.417294
O1    O     O_R   0.507430 0.255570 0.581420 -0.494077
O2    O     O_R   0.837200 0.593290 0.915250 -0.508776
O3    O     O_R   0.065330 0.635370 0.931590 -0.510126
O4    O     O_R   0.280190 0.527390 0.578910 -0.464385
O5    O     O_R   0.068300 0.828790 0.091860 -0.508251
O6    O     O_R   0.798730 0.057480 0.079370 -0.476122
O7    O     O_R   0.584680 0.080480 0.076790 -0.533116
O8    O     O_R   0.626790 0.809640 0.067050 -0.503381
O9    O     O_R   0.816010 0.596460 0.076500 -0.480285
O10   O     O_R   0.045680 0.638310 0.081070 -0.526661
O11   O     O_3   0.833590 0.833690 0.001120 -0.291136
O12   O     O_R   0.524460 0.695920 0.424060 -0.497593
O13   O     O_R   0.260310 0.739740 0.584580 -0.512346
O14   O     O_R   0.532250 0.695150 0.573830 -0.469208
O15   O     O_R   0.744930 0.503430 0.576380 -0.514537
O16   O     O_R   0.699250 0.276390 0.571950 -0.521275
O17   O     O_R   0.499020 0.256400 0.419850 -0.482460
O18   O     O_R   0.272400 0.528160 0.429140 -0.463235
O19   O     O_R   0.251910 0.740570 0.423020 -0.522839
O20   O     O_R   0.736530 0.504260 0.414810 -0.509354
O21   O     O_R   0.691460 0.277160 0.422180 -0.512678
O22   O     O_3   0.499990 0.499990 0.499980 -0.285403
O23   O     O_R   0.089490 0.825610 0.930610 -0.490194
O24   O     O_R   0.818370 0.054540 0.929880 -0.460136
O25   O     O_R   0.605870 0.077310 0.915530 -0.535591
O26   O     O_R   0.646440 0.806700 0.917570 -0.514201

loop_
_geom_bond_atom_site_label_1
_geom_bond_atom_site_label_2
_ccdc_geom_bond_type
C3    H31   S    
C27   C29   A    
C4    O15   A    
C52   H30   S    
C1    C11   S    
C47   H19   S    
C7    C8    A    
C40   O12   A    
C45   C46   S    
C27   C33   A    
C18   H5    S    
C12   C23   S    
C26   C42   S    
C34   C51   S    
Cr5   O26   S    
C24   I3    S    
C49   H24   S    
C4    O14   A    
C35   O24   A    
C17   H4    S    
C30   C31   A    
C31   H13   S    
C7    H32   S    
C22   C38   S    
C43   H34   S    
C23   C43   S    
C48   H21   S    
C36   O2    A    
C18   C19   A    
C38   O7    A    
C35   O25   A    
C5    C16   S    
Cr6   O9    S    
Cr3   O22   S    
C37   O23   A    
C13   H2    S    
C8    C9    A    
Cr5   O11   S    
Cr2   O13   S    
C30   C41   S    
C44   H10   S    
Cr6   O3    S    
C9    C10   A    
C27   H9    S    
C50   H28   S    
Cr1   O22   S    
C23   C46   S    
C13   C14   A    
C21   H7    S    
C35   C54   S    
C45   H23   S    
C25   H8    S    
C1    O13   A    
Cr6   O2    S    
C16   O16   A    
Cr3   O16   S    
C39   O8    A    
C4    C34   S    
C13   C19   A    
Cr4   O11   S    
C6    I2    S    
C49   H25   S    
C34   C44   S    
C24   C25   A    
Cr3   O15   S    
C2    C54   A    
C6    C11   A    
C37   O3    A    
C2    C48   S    
C25   C26   A    
C53   C54   A    
Cr1   O4    S    
Cr5   O7    S    
Cr4   O6    S    
Cr2   O22   S    
C38   O6    A    
C43   C44   S    
C29   C30   A    
C50   H29   S    
C31   C32   A    
C45   C49   S    
C17   C18   A    
Cr4   O23   S    
C5    C52   A    
C34   C45   S    
C51   H16   S    
C1    O4    A    
C15   C39   S    
C41   O5    A    
C50   H27   S    
Cr3   O20   S    
C40   O20   A    
C28   C33   S    
C41   O10   A    
Cr2   O19   S    
C22   C24   A    
C8    C37   S    
C47   H17   S    
C9    H33   S    
C46   H14   S    
C12   C51   S    
C52   C53   A    
C43   H1    S    
Cr1   O17   S    
C20   H6    S    
C15   C17   A    
C46   C47   S    
C49   H26   S    
C36   O26   A    
C3    C5    A    
C28   O19   A    
C12   C50   S    
C42   O17   A    
C6    C7    A    
Cr5   O25   S    
Cr1   O1    S    
Cr4   O24   S    
Cr5   O8    S    
C32   I4    S    
C53   I1    S    
Cr4   O5    S    
C10   C11   A    
C32   C33   A    
C48   H20   S    
C2    C3    A    
Cr6   O11   S    
C28   O18   A    
C44   I5    S    
C20   C26   A    
C10   H35   S    
C14   H3    S    
C48   H22   S    
Cr6   O10   S    
C19   C40   S    
Cr3   O21   S    
C16   O1    A    
C39   O9    A    
C20   C21   A    
C23   C36   S    
C51   H12   S    
C12   H15   S    
Cr2   O14   S    
C14   C15   A    
C47   H18   S    
C21   C22   A    
Cr2   O12   S    
C42   O21   A    
C29   H11   S    
Cr1   O18   S    
