data_mof_unit_42599.cif
_audit_creation_date              2013-03-05T16:12:45-0500
_audit_creation_method            fapswitch 2.2
_symmetry_space_group_name_H-M    P1
_symmetry_Int_Tables_number       1
_space_group_crystal_system       triclinic
_cell_length_a                    10.693013
_cell_length_b                    9.817855
_cell_length_c                    27.741963
_cell_angle_alpha                 89.348311
_cell_angle_beta                  90.226537
_cell_angle_gamma                 90.03157
_cell_volume                      2912.20775087

loop_
_atom_site_label
_atom_site_type_symbol
_atom_site_description
_atom_site_fract_x
_atom_site_fract_y
_atom_site_fract_z
_atom_type_partial_charge
O1    O     O_R   0.316770 0.614620 0.500000 -0.630603
O2    O     O_R   0.683230 0.385380 0.500000 -0.629005
O3    O     O_R   0.683230 0.614620 0.500000 -0.631803
O4    O     O_R   0.316770 0.385380 0.500000 -0.633702
C1    C     C_R   0.259843 0.499974 0.499965 0.868658
C2    C     C_R   0.740156 0.500025 0.500047 0.872523
O5    O     O_R   0.500030 0.614650 0.428760 -0.635780
O6    O     O_R   0.499970 0.385350 0.571240 -0.560284
O7    O     O_R   0.499970 0.614650 0.571240 -0.631542
O8    O     O_R   0.500030 0.385350 0.428760 -0.554964
C3    C     C_R   0.499683 0.500845 0.405922 0.935392
C4    C     C_R   0.500981 0.499130 0.594018 0.938071
Zn1   Zn    Zn3+2 0.500000 0.653120 0.500000 0.953532
Zn2   Zn    Zn3+2 0.500000 0.346880 0.500000 1.005967
C5    C     C_R   0.383880 0.529445 0.177803 0.598196
C6    C     C_R   0.612742 0.505639 0.822444 0.591964
O9    O     O_2   0.277761 0.521513 0.203817 -0.525842
O10   O     O_2   0.719107 0.518686 0.796790 -0.523308
N1    N     N_R   0.496256 0.530993 0.201331 -0.335798
N2    N     N_R   0.501161 0.497193 0.798601 -0.336144
C7    C     C_R   0.606447 0.546586 0.177407 0.500920
C8    C     C_R   0.390162 0.489141 0.822402 0.504146
C9    C     C_R   0.474719 0.394247 0.275691 0.149501
C10   C     C_R   0.541505 0.378869 0.722715 0.154404
C11   C     C_R   0.474777 0.387100 0.326138 0.537236
C12   C     C_R   0.542649 0.380346 0.672319 0.535949
C13   C     C_R   0.523374 0.628929 0.329368 -0.293409
C14   C     C_R   0.462545 0.612270 0.671709 -0.294191
C15   C     C_R   0.522785 0.636292 0.279503 -0.142160
C16   C     C_R   0.461494 0.611085 0.721702 -0.143510
C17   C     C_R   0.498527 0.519934 0.252632 0.214907
C18   C     C_R   0.500617 0.495140 0.747210 0.213456
C19   C     C_R   0.493677 0.541743 0.101543 -0.102761
C20   C     C_R   0.501551 0.503111 0.898446 -0.104070
C21   C     C_R   0.379488 0.536214 0.127004 -0.159058
C22   C     C_R   0.616113 0.503048 0.873224 -0.159129
C23   C     C_R   0.265914 0.543484 0.101032 0.133599
C24   C     C_R   0.729330 0.496482 0.899404 0.143065
C25   C     C_R   0.607272 0.552693 0.127192 0.014113
C26   C     C_R   0.388187 0.491846 0.872654 0.014023
C27   C     C_R   0.499541 0.504696 0.353151 -0.199220
C28   C     C_R   0.502264 0.496957 0.646683 -0.197848
H1    H     H_    0.542732 0.720896 0.349281 0.202576
H2    H     H_    0.431181 0.702964 0.652633 0.198858
H3    H     H_    0.540594 0.732864 0.261536 0.168320
H4    H     H_    0.430781 0.700587 0.740803 0.167594
C29   C     C_R   0.383245 0.512522 0.974020 0.115823
C30   C     C_R   0.611139 0.541064 0.025767 0.115872
C31   C     C_R   0.614137 0.521737 0.975187 -0.117024
C32   C     C_R   0.380529 0.530647 0.024717 -0.116521
C33   C     C_R   0.499755 0.513547 0.949377 0.002455
C34   C     C_R   0.494961 0.536976 0.050496 0.001394
C35   C     C_R   0.273771 0.484244 0.947213 -0.128737
C36   C     C_R   0.720197 0.571198 0.052516 -0.124806
C37   C     C_R   0.275695 0.478547 0.897440 -0.176967
C38   C     C_R   0.718925 0.572573 0.102343 -0.182307
O11   O     O_2   0.282188 0.478187 0.797325 -0.558694
O12   O     O_2   0.714992 0.553750 0.202306 -0.562005
C39   C     C_R   0.267675 0.548548 0.050661 0.520687
C40   C     C_R   0.727378 0.501455 0.949701 0.514525
H5    H     H_    0.188421 0.460908 0.878506 0.190812
H6    H     H_    0.806006 0.590922 0.121300 0.190716
H7    H     H_    0.185371 0.460221 0.963625 0.231089
H8    H     H_    0.807603 0.598925 0.035954 0.230706
C41   C     C_R   0.064051 0.379409 0.511221 -0.182246
C42   C     C_R   0.935947 0.620595 0.488820 -0.185260
C43   C     C_R   0.936051 0.379469 0.511293 -0.173151
C44   C     C_R   0.063944 0.620539 0.488754 -0.181661
H9    H     H_    0.112982 0.285876 0.520289 0.160933
H10   H     H_    0.887019 0.714128 0.479750 0.161268
H11   H     H_    0.887204 0.285975 0.520417 0.159366
H12   H     H_    0.112786 0.714038 0.479635 0.156503
C45   C     C_R   0.872538 0.500051 0.500072 -0.011414
C46   C     C_R   0.127459 0.499951 0.499962 -0.009631
C47   C     C_R   0.578581 0.071137 0.529764 -0.040343
C48   C     C_R   0.421447 0.928867 0.470224 -0.073168
C49   C     C_R   0.421435 0.072931 0.470229 -0.030635
C50   C     C_R   0.578580 0.927074 0.529764 -0.070497
H13   H     H_    0.641345 0.125188 0.553521 0.167113
H14   H     H_    0.358728 0.874815 0.446450 0.134345
H15   H     H_    0.358694 0.128410 0.446458 0.163492
H16   H     H_    0.641337 0.871599 0.553529 0.140718
N3    N     N_R   0.500000 0.857200 0.500000 -0.087165
N4    N     N_R   0.500000 0.142800 0.500000 -0.093330
N5    N     N_2   0.148958 0.553157 0.125156 -0.237754
H17   H     H_    0.093568 0.632213 0.112749 0.261639
C51   C     C_3   0.080868 0.425994 0.128226 -0.618383
H18   H     H_    0.996492 0.439688 0.150854 0.242301
H19   H     H_    0.140005 0.345360 0.145113 0.246908
H20   H     H_    0.050840 0.393253 0.091740 0.244864
N6    N     N_2   0.846072 0.477458 0.875774 -0.233784
H21   H     H_    0.919621 0.529288 0.891300 0.262754
C52   C     C_3   0.876552 0.336523 0.866629 -0.623537
H22   H     H_    0.964366 0.331475 0.845494 0.235641
H23   H     H_    0.800878 0.287123 0.845523 0.245432
H24   H     H_    0.890285 0.280053 0.901192 0.240668
F1    F     F_    0.583803 0.268534 0.648697 -0.678515
F2    F     F_    0.450520 0.265974 0.348390 -0.674374
N7    N     N_2   0.584140 0.262216 0.748904 -0.291791
H25   H     H_    0.657178 0.212019 0.732661 0.275578
C53   C     C_3   0.485813 0.169879 0.763745 -0.733510
H26   H     H_    0.526538 0.085484 0.785671 0.234770
H27   H     H_    0.438719 0.126169 0.731644 0.257497
H28   H     H_    0.415850 0.223208 0.786129 0.257799
N8    N     N_2   0.448109 0.276364 0.248062 -0.289421
H29   H     H_    0.384038 0.211424 0.263888 0.274404
C54   C     C_3   0.557793 0.204836 0.231554 -0.724359
H30   H     H_    0.528707 0.118185 0.208686 0.234249
H31   H     H_    0.612189 0.164515 0.262819 0.256840
H32   H     H_    0.618073 0.273297 0.209621 0.257067
F3    F     F_    0.158617 0.581741 0.028268 -0.683274
F4    F     F_    0.836046 0.470550 0.972804 -0.684808

loop_
_geom_bond_atom_site_label_1
_geom_bond_atom_site_label_2
_geom_bond_distance
_ccdc_geom_bond_type
C42   C44   1.368683 A    
C51   H18   1.110272 S    
C52   H22   1.110408 S    
C13   C15   1.384395 A    
C10   N7    1.423506 S    
Zn2   N4    2.003628 S    
O3    C2    1.279473 A    
N1    C17   1.426220 S    
C8    O11   1.350472 S    
N5    H17   1.031762 S    
C19   C34   1.417570 A    
C30   C36   1.412761 A    
N8    C54   1.446020 S    
C20   C33   1.417985 A    
C19   C25   1.409993 A    
C31   C40   1.419878 A    
O1    C1    1.279349 A    
C32   C39   1.419555 A    
C23   N5    1.424461 S    
C21   C23   1.411071 A    
C10   C12   1.398082 A    
C30   C34   1.421829 A    
C47   N4    1.365592 A    
C44   C46   1.396591 A    
C9    N8    1.423375 S    
C1    C46   1.415582 S    
C13   C27   1.403798 A    
C52   H23   1.111352 S    
O7    Zn1   2.007879 S    
C5    N1    1.365345 A    
C50   N3    1.365733 A    
C25   C38   1.393524 A    
C14   C16   1.386894 A    
C41   C43   1.368713 A    
C39   F3    1.357249 S    
C54   H30   1.110561 S    
C43   C45   1.396597 A    
C20   C22   1.413172 A    
O3    Zn1   1.995613 S    
C6    N2    1.364876 A    
C29   C35   1.413477 A    
N5    C51   1.446756 S    
C53   H27   1.111629 S    
C54   H31   1.111661 S    
O2    C2    1.279338 A    
C48   N3    1.365615 A    
C5    C21   1.410673 A    
C47   C50   1.414388 A    
C29   C32   1.420076 A    
C35   C37   1.382803 A    
C36   C38   1.382630 A    
C4    C28   1.460946 S    
C53   H26   1.110414 S    
C48   C49   1.414401 A    
O8    Zn2   2.007884 S    
C11   C27   1.407998 A    
N6    H21   1.031910 S    
C29   C33   1.423438 A    
C49   N4    1.365725 A    
C31   C33   1.417519 A    
C42   C45   1.396494 A    
C24   N6    1.425627 S    
C14   H2    1.083321 S    
C41   C46   1.396510 A    
C15   H3    1.083259 S    
C44   H12   1.083816 S    
C9    C17   1.407015 A    
O5    C3    1.290708 A    
C10   C18   1.405903 A    
C40   F4    1.357629 S    
N6    C52   1.447170 S    
C50   H16   1.081819 S    
C32   C34   1.416535 A    
N7    H25   1.031573 S    
C7    C25   1.393747 A    
C49   H15   1.081839 S    
O6    C4    1.289681 A    
C26   C37   1.393230 A    
C8    C26   1.394891 A    
C23   C39   1.397919 A    
C24   C40   1.396991 A    
C30   C31   1.418594 A    
N7    C53   1.445918 S    
N2    C8    1.362313 A    
C52   H24   1.111395 S    
C51   H19   1.111676 S    
C54   H32   1.109401 S    
C38   H6    1.083603 S    
O1    Zn1   1.995204 S    
C12   C28   1.408063 A    
C2    C45   1.415560 S    
N2    C18   1.426053 S    
C5    O9    1.348914 S    
O6    Zn2   2.016317 S    
N1    C7    1.362321 A    
C16   H4    1.083101 S    
C48   H14   1.081878 S    
O4    C1    1.279469 A    
C53   H28   1.109482 S    
N8    H29   1.031586 S    
Zn1   N3    2.003628 S    
C22   C24   1.410438 A    
C7    O12   1.350522 S    
C15   C17   1.394835 A    
C6    C22   1.408982 A    
C16   C18   1.396932 A    
C35   H7    1.075721 S    
C42   H10   1.083759 S    
C36   H8    1.076587 S    
C41   H9    1.083757 S    
C37   H5    1.083882 S    
C14   C28   1.401739 A    
C19   C21   1.413736 A    
C3    C27   1.463999 S    
C43   H11   1.083823 S    
C9    C11   1.400468 A    
O4    Zn2   1.995613 S    
O2    Zn2   1.995204 S    
O7    C4    1.292044 A    
O8    C3    1.292610 A    
C12   F1    1.359171 S    
C13   H1    1.083288 S    
C11   F2    1.358957 S    
O5    Zn1   2.016323 S    
C6    O10   1.349327 S    
C51   H20   1.111614 S    
C20   C26   1.410128 A    
C47   H13   1.081869 S    
