data_mof_unit_19131.cif
_audit_creation_date              2012-12-10T17:08:42-0500
_audit_creation_method            fapswitch 2.2
_symmetry_space_group_name_H-M    P1
_symmetry_Int_Tables_number       1
_space_group_crystal_system       triclinic
_cell_length_a                    27.792735
_cell_length_b                    11.037211
_cell_length_c                    9.794091
_cell_angle_alpha                 111.063322
_cell_angle_beta                  98.006846
_cell_angle_gamma                 90.978719
_cell_volume                      2768.96863966

loop_
_atom_site_label
_atom_site_type_symbol
_atom_type_description
_atom_site_fract_x
_atom_site_fract_y
_atom_site_fract_z
_atom_type_partial_charge
C1    C     C_R   0.496502 0.254070 0.440664 0.871433
C2    C     C_R   0.503526 0.745931 0.559336 0.870863
C3    C     C_R   0.102837 0.507677 0.522406 -0.046321
C4    C     C_R   0.898379 0.511293 0.504739 -0.043798
C5    C     C_R   0.126721 0.395063 0.517721 -0.025033
C6    C     C_R   0.875429 0.628795 0.533788 -0.014204
C7    C     C_R   0.099810 0.285092 0.512650 -0.164865
C8    C     C_R   0.903465 0.744952 0.567382 -0.153846
C9    C     C_R   0.130195 0.618502 0.528329 -0.021486
C10   C     C_R   0.869892 0.394344 0.470089 -0.019958
C11   C     C_R   0.354618 0.499727 0.504634 -0.050418
C12   C     C_R   0.645372 0.503112 0.495517 -0.051894
C13   C     C_R   0.972629 0.392828 0.490438 0.041328
C14   C     C_R   0.028455 0.625561 0.532670 0.042197
C15   C     C_R   0.977626 0.628319 0.537521 0.042613
C16   C     C_R   0.024213 0.394189 0.505281 0.043695
C17   C     C_R   0.949739 0.510813 0.510920 0.066328
C18   C     C_R   0.051656 0.509244 0.520430 0.066118
C19   C     C_R   0.942873 0.276806 0.453484 -0.208887
C20   C     C_R   0.056996 0.734900 0.537616 -0.208982
C21   C     C_R   0.892519 0.277766 0.443095 -0.149552
C22   C     C_R   0.106817 0.731063 0.535109 -0.148998
C23   C     C_R   0.407459 0.500022 0.501517 0.809240
C24   C     C_R   0.592539 0.500384 0.498531 0.807256
C25   C     C_R   0.049542 0.284297 0.506189 -0.212600
C26   C     C_R   0.953526 0.744939 0.568752 -0.210277
C27   C     C_2   0.494610 0.114852 0.407133 -0.349565
C28   C     C_2   0.505486 0.885152 0.592870 -0.349886
C29   C     C_2   0.501012 0.069543 0.516734 -0.148464
C30   C     C_2   0.499180 0.930467 0.483267 -0.148708
C31   C     C_2   0.504215 0.510414 0.081276 -0.076707
C32   C     C_2   0.495813 0.489510 0.918706 -0.074926
C33   C     C_R   0.177177 0.394875 0.517188 0.501885
C34   C     C_R   0.824749 0.627382 0.529824 0.510379
C35   C     C_R   0.180455 0.613440 0.525191 0.545854
C36   C     C_R   0.819165 0.396864 0.463193 0.541938
C37   C     C_R   0.271666 0.491138 0.378877 0.041533
C38   C     C_R   0.713419 0.477392 0.357073 0.042068
C39   C     C_R   0.322065 0.492695 0.378231 -0.252754
C40   C     C_R   0.663186 0.472513 0.360513 -0.261028
C41   C     C_R   0.336305 0.505653 0.633156 -0.217935
C42   C     C_R   0.678397 0.538076 0.627930 -0.210876
C43   C     C_R   0.286314 0.504572 0.635309 -0.116074
C44   C     C_R   0.728315 0.542954 0.625589 -0.132325
C45   C     C_R   0.253804 0.497590 0.509434 0.324874
C46   C     C_R   0.746125 0.512968 0.491327 0.331489
Cu1   Cu    Cu3+1 0.508480 0.521810 0.644910 0.944775
Cu2   Cu    Cu3+1 0.491520 0.478190 0.355090 0.943612
H1    H     H_    0.360576 0.511020 0.732105 0.157985
H2    H     H_    0.665720 0.561984 0.733577 0.165175
H3    H     H_    0.512095 0.951108 0.708005 0.150894
H4    H     H_    0.487967 0.048893 0.292001 0.151531
H5    H     H_    0.467485 0.417387 0.845703 0.159101
H6    H     H_    0.532558 0.582493 0.154269 0.160654
H7    H     H_    0.547918 0.622367 0.934420 0.192842
H8    H     H_    0.452070 0.377671 0.065588 0.193732
H9    H     H_    0.272682 0.510306 0.735660 0.140231
H10   H     H_    0.753401 0.568962 0.728453 0.133810
H11   H     H_    0.117453 0.198177 0.512119 0.186346
H12   H     H_    0.886774 0.836884 0.592258 0.185145
H13   H     H_    0.638058 0.445572 0.257503 0.160065
H14   H     H_    0.335791 0.487408 0.278089 0.160927
H15   H     H_    0.871364 0.186249 0.414199 0.185777
H16   H     H_    0.126951 0.817102 0.537979 0.186236
H17   H     H_    0.957302 0.182539 0.427712 0.138603
H18   H     H_    0.041687 0.824247 0.538957 0.135849
H19   H     H_    0.031624 0.196568 0.505173 0.136404
H20   H     H_    0.972519 0.838912 0.598578 0.137373
H21   H     H_    0.492583 0.864788 0.367939 0.180451
H22   H     H_    0.507643 0.135224 0.632061 0.180406
N1    N     N_R   0.202674 0.502067 0.517473 -0.467014
N2    N     N_R   0.797758 0.512256 0.492697 -0.464516
N3    N     N_2   0.478780 0.445430 0.137360 -0.285875
N4    N     N_2   0.521220 0.554570 0.862640 -0.284692
O1    O     O_R   0.504520 0.332330 0.577400 -0.578507
O2    O     O_R   0.495480 0.667670 0.422600 -0.578996
O3    O     O_R   0.490210 0.295500 0.332650 -0.572661
O4    O     O_R   0.509790 0.704500 0.667350 -0.573101
O5    O     O_R   0.437420 0.518430 0.622370 -0.582218
O6    O     O_R   0.562580 0.481570 0.377630 -0.582786
O7    O     O_R   0.423110 0.481600 0.377610 -0.576595
O8    O     O_R   0.576890 0.518400 0.622390 -0.576577
O9    O     O_2   0.200471 0.287688 0.513433 -0.544230
O10   O     O_2   0.802530 0.739890 0.562110 -0.553756
O11   O     O_2   0.791448 0.285244 0.428829 -0.547967
O12   O     O_2   0.206975 0.718827 0.529831 -0.539792
C47   C     C_R   0.730790 0.444321 0.212620 0.103218
C48   C     C_R   0.717441 0.321680 0.100714 -0.120691
C49   C     C_R   0.732861 0.291063 0.962957 -0.118600
C50   C     C_R   0.761439 0.382739 0.935599 -0.104747
C51   C     C_R   0.774610 0.505223 0.045955 -0.150567
C52   C     C_R   0.759280 0.536200 0.183860 -0.143414
H23   H     H_    0.695260 0.249781 0.120395 0.139664
H24   H     H_    0.722559 0.196333 0.877286 0.145052
H25   H     H_    0.773202 0.359090 0.828750 0.147397
H26   H     H_    0.796428 0.576519 0.024285 0.138241
H27   H     H_    0.768881 0.632439 0.266883 0.167488
C53   C     C_R   0.238643 0.482870 0.242447 0.111152
C54   C     C_R   0.245661 0.572593 0.173848 -0.109804
C55   C     C_R   0.215320 0.563541 0.043470 -0.138259
C56   C     C_R   0.177825 0.464879 0.980299 -0.088406
C57   C     C_R   0.170698 0.374900 0.047240 -0.123892
C58   C     C_R   0.201054 0.383325 0.177346 -0.147973
H28   H     H_    0.274499 0.649802 0.221646 0.138773
H29   H     H_    0.220922 0.632928 0.991263 0.135059
H30   H     H_    0.154443 0.457837 0.879204 0.136506
H31   H     H_    0.141862 0.297938 0.997666 0.137394
H32   H     H_    0.195726 0.310929 0.225569 0.157039

loop_
_geom_bond_atom_site_label_1
_geom_bond_atom_site_label_2
_ccdc_geom_bond_type
C47   C48   A    
C56   C57   A    
C45   N1    S    
C1    O3    A    
C14   C18   A    
C25   H19   S    
Cu1   O5    S    
C50   H25   S    
C55   H29   S    
C34   O10   S    
C3    C9    A    
C20   H18   S    
C19   C21   A    
C32   N4    D    
C35   O12   S    
C9    C22   A    
C31   N3    D    
C27   C29   D    
C53   C58   A    
C16   C25   A    
C8    C26   A    
Cu2   O7    S    
C3    C18   A    
Cu1   O8    S    
C41   H1    S    
C49   H24   S    
C24   O8    A    
C12   C42   A    
C51   H26   S    
H7    N4    S    
C24   O6    A    
C31   C32   S    
C44   H10   S    
C5    C33   A    
C19   H17   S    
C58   H32   S    
C46   N2    S    
C54   H28   S    
C35   N1    A    
C47   C52   A    
C41   C43   A    
C42   C44   A    
C7    H11   S    
C37   C53   S    
C44   C46   A    
C52   H27   S    
C10   C21   A    
C21   H15   S    
C13   C19   A    
C1    O1    A    
Cu1   Cu2   S    
C14   C20   A    
C4    C6    A    
C51   C52   A    
C5    C7    A    
C33   N1    A    
C15   C26   A    
C6    C8    A    
C40   H13   S    
C6    C34   A    
Cu2   O3    S    
C12   C40   A    
C29   C30   S    
C2    O4    A    
C33   O9    S    
C54   C55   A    
C57   H31   S    
C11   C39   A    
C43   C45   A    
C42   H2    S    
C4    C17   A    
C20   C22   A    
C37   C45   A    
C34   N2    A    
C32   H5    S    
C30   H21   S    
C2    O2    A    
C27   H4    S    
C1    C27   S    
C29   H22   S    
C56   H30   S    
C15   C17   A    
C39   H14   S    
C48   H23   S    
H8    N3    S    
C23   O7    A    
Cu2   N3    S    
Cu1   N4    S    
C3    C5    A    
C10   C36   A    
C36   O11   S    
C12   C24   S    
C7    C25   A    
C13   C17   A    
C38   C47   S    
C26   H20   S    
Cu2   O6    S    
C28   C30   D    
Cu1   O1    S    
C37   C39   A    
C8    H12   S    
C38   C40   A    
C50   C51   A    
C11   C23   S    
C55   C56   A    
C28   H3    S    
C11   C41   A    
C31   H6    S    
C57   C58   A    
C38   C46   A    
C43   H9    S    
C22   H16   S    
Cu2   O2    S    
C48   C49   A    
C16   C18   A    
C53   C54   A    
C13   C16   A    
C9    C35   A    
C14   C15   A    
C2    C28   S    
Cu1   O4    S    
C23   O5    A    
C49   C50   A    
C4    C10   A    
C36   N2    A    
