data_mof_unit_40294.cif
_audit_creation_date              2012-12-11T21:15:17-0500
_audit_creation_method            fapswitch 2.2
_symmetry_space_group_name_H-M    P1
_symmetry_Int_Tables_number       1
_space_group_crystal_system       triclinic
_cell_length_a                    8.218339
_cell_length_b                    18.797142
_cell_length_c                    27.056073
_cell_angle_alpha                 99.590663
_cell_angle_beta                  92.698156
_cell_angle_gamma                 88.276683
_cell_volume                      4115.62118196

loop_
_atom_site_label
_atom_site_type_symbol
_atom_type_description
_atom_site_fract_x
_atom_site_fract_y
_atom_site_fract_z
_atom_type_partial_charge
Ba1   Ba    Ba6+2 0.160810 0.465630 0.521640 1.645358
Ba2   Ba    Ba6+2 0.649380 0.534380 0.478400 1.639398
C1    C     C_3   0.455049 0.264105 0.694672 -0.107681
C2    C     C_R   0.082635 0.093169 0.452403 0.023701
C3    C     C_R   0.232609 0.068723 0.431553 -0.080055
C4    C     C_3   0.974079 0.271434 0.628323 0.376747
C5    C     C_R   0.295083 0.000042 0.435065 -0.093378
C6    C     C_R   0.207593 0.953027 0.458119 0.032584
C7    C     C_R   0.059698 0.976710 0.480318 0.022091
C8    C     C_R   0.264343 0.882127 0.457804 -0.107542
C9    C     C_R   0.172374 0.832361 0.477566 -0.037874
C10   C     C_R   0.026198 0.856281 0.501606 -0.005492
C11   C     C_R   0.971077 0.928878 0.503126 -0.007350
C12   C     C_3   0.449311 0.296573 0.646356 0.333291
C13   C     C_R   0.220859 0.759037 0.473281 -0.011177
C14   C     C_R   0.122380 0.710498 0.491156 -0.302959
C15   C     C_R   0.984669 0.733681 0.518227 0.045098
C16   C     C_3   0.006935 0.200811 0.647914 -0.376255
C17   C     C_R   0.935397 0.807892 0.524125 -0.048797
C18   C     C_R   0.851495 0.071768 0.500974 -0.011271
C19   C     C_R   0.791501 0.143200 0.499947 -0.036341
C20   C     C_R   0.876889 0.190083 0.474329 -0.047778
C21   C     C_R   0.012459 0.160868 0.445916 0.211858
C22   C     C_R   0.797081 0.835253 0.550753 -0.047307
C23   C     C_3   0.470040 0.314141 0.392762 0.320983
C24   C     C_R   0.738162 0.906088 0.550118 0.031588
C25   C     C_R   0.824833 0.953083 0.526030 0.005151
C26   C     C_R   0.764776 0.024325 0.524862 0.024663
C27   C     C_R   0.591392 0.930294 0.572380 -0.079518
C28   C     C_3   0.841142 0.622039 0.631558 0.295480
C29   C     C_R   0.530468 0.000062 0.570498 -0.090962
C30   C     C_R   0.616482 0.047540 0.546996 0.032854
C31   C     C_R   0.643449 0.166808 0.523437 -0.031791
C32   C     C_R   0.556248 0.117758 0.545630 -0.115359
C33   C     C_R   0.587723 0.238960 0.524234 -0.001705
C34   C     C_3   0.512853 0.236759 0.369980 -0.409848
C35   C     C_R   0.681312 0.286559 0.503884 -0.308786
C36   C     C_R   0.822756 0.264049 0.478654 0.057108
C37   C     C_R   0.304987 0.459606 0.175698 0.594067
C38   C     C_R   0.195387 0.579179 0.175674 0.578239
C39   C     C_2   0.060367 0.559111 0.273378 -0.088039
C40   C     C_3   0.837404 0.641155 0.688366 -0.361479
C41   C     C_3   0.051417 0.581846 0.329357 -0.051528
C42   C     C_1   0.284351 0.499405 0.337423 0.004632
C43   C     C_2   0.322688 0.500684 0.290443 -0.093611
C44   C     C_2   0.199497 0.527351 0.254333 0.193165
C45   C     C_3   0.839404 0.732864 0.376861 0.382630
C46   C     C_R   0.311143 0.513392 0.099495 -0.080895
C47   C     C_R   0.349637 0.455623 0.125461 -0.034042
C48   C     C_R   0.432785 0.394960 0.100794 -0.060926
C49   C     C_R   0.230699 0.574954 0.124701 -0.024009
C50   C     C_2   0.160455 0.536953 0.359013 -0.285692
C51   C     C_2   0.646281 0.469771 0.636597 -0.280701
C52   C     C_3   0.967099 0.384453 0.370352 0.300762
C53   C     C_R   0.478736 0.443532 0.972707 0.020655
C54   C     C_R   0.353936 0.564668 0.971569 0.020860
C55   C     C_R   0.436609 0.502011 0.946818 0.048759
C56   C     C_3   0.808417 0.805630 0.360309 -0.369433
C57   C     C_R   0.560742 0.382529 0.946195 -0.102263
C58   C     C_R   0.597209 0.378550 0.896233 -0.058015
C59   C     C_R   0.555761 0.435430 0.870261 -0.023265
C60   C     C_R   0.477439 0.497641 0.895517 -0.081640
C61   C     C_R   0.439773 0.555328 0.869419 -0.034069
C62   C     C_R   0.483274 0.550442 0.818838 0.596480
C63   C     C_R   0.590654 0.430560 0.819304 0.578551
C64   C     C_3   0.978499 0.367910 0.313690 -0.376574
C65   C     C_2   0.733399 0.448657 0.723213 -0.093204
C66   C     C_3   0.747141 0.423833 0.667700 -0.060919
C67   C     C_3   0.367304 0.698993 0.351691 0.345574
C68   C     C_1   0.518712 0.507643 0.655771 0.033705
C69   C     C_2   0.477415 0.509646 0.703070 -0.097564
C70   C     C_2   0.594101 0.482038 0.740672 0.184302
C71   C     C_R   0.437418 0.447532 0.023782 0.021053
C72   C     C_R   0.353305 0.509706 0.048386 0.048817
C73   C     C_R   0.311048 0.568264 0.022523 0.020604
C74   C     C_R   0.476762 0.391092 0.051406 -0.099505
C75   C     C_R   0.188390 0.631842 0.098697 -0.060385
C76   C     C_3   0.334393 0.685854 0.592224 0.332189
C77   C     C_R   0.317449 0.621779 0.944176 -0.099314
C78   C     C_3   0.376338 0.725389 0.301869 -0.363199
C79   C     C_R   0.359965 0.617127 0.894487 -0.059147
C80   C     C_R   0.226374 0.628539 0.048833 -0.102077
C81   C     C_3   0.342790 0.767682 0.607523 -0.034136
C82   C     C_3   0.240686 0.870227 0.665943 -0.222467
C83   C     C_3   0.002703 0.161950 0.356827 -0.223043
C84   C     C_R   0.999113 0.047760 0.478650 -0.021209
H1    H     H_    0.391892 0.351379 0.653923 0.054503
H2    H     H_    0.206581 0.670277 0.583189 -0.023896
H3    H     H_    0.407239 0.670053 0.558441 0.033541
H4    H     H_    0.329395 0.259443 0.707267 0.129941
H5    H     H_    0.303001 0.794260 0.575198 0.012956
H6    H     H_    0.471595 0.781801 0.618146 0.092503
H7    H     H_    0.575695 0.301085 0.635028 -0.070647
H8    H     H_    0.521890 0.300898 0.724251 0.143019
H9    H     H_    0.584741 0.340010 0.408885 0.020464
H10   H     H_    0.384543 0.313709 0.423232 0.043754
H11   H     H_    0.607011 0.236324 0.341824 0.133435
H12   H     H_    0.743609 0.684230 0.698928 0.137293
H13   H     H_    0.561192 0.206813 0.399776 0.050689
H14   H     H_    0.403374 0.209293 0.351255 0.117989
H15   H     H_    0.936941 0.157077 0.624084 0.067499
H16   H     H_    0.794975 0.735537 0.415204 0.083907
H17   H     H_    0.973302 0.723305 0.378055 -0.081520
H18   H     H_    0.676858 0.819696 0.360287 0.150660
H19   H     H_    0.874426 0.848102 0.386366 0.068744
H20   H     H_    0.852225 0.804036 0.322047 0.117618
H21   H     H_    0.237282 0.697794 0.360393 -0.055346
H22   H     H_    0.422935 0.643881 0.347972 0.074288
H23   H     H_    0.807546 0.593154 0.704602 0.074273
H24   H     H_    0.316686 0.686329 0.271933 0.131994
H25   H     H_    0.505071 0.730223 0.292571 0.151069
H26   H     H_    0.023769 0.266730 0.590339 0.084285
H27   H     H_    0.313421 0.778837 0.303648 0.112842
H28   H     H_    0.303926 0.102100 0.412342 0.062362
H29   H     H_    0.410157 0.982967 0.418365 0.070389
H30   H     H_    0.159615 0.654179 0.486768 0.070168
H31   H     H_    0.378495 0.866056 0.440553 0.111037
H32   H     H_    0.730364 0.801511 0.570913 0.094930
H33   H     H_    0.522333 0.894977 0.590723 0.056624
H34   H     H_    0.958789 0.660492 0.704124 0.135481
H35   H     H_    0.416021 0.016969 0.587624 0.065592
H36   H     H_    0.441049 0.133434 0.562286 0.106899
H37   H     H_    0.839705 0.279074 0.624996 -0.084746
H38   H     H_    0.639835 0.342171 0.506250 0.069062
H39   H     H_    0.443806 0.483553 0.278295 0.129802
H40   H     H_    0.466058 0.349954 0.119874 0.122038
H41   H     H_    0.827186 0.431371 0.748522 0.127008
H42   H     H_    0.659251 0.330143 0.877929 0.125818
H43   H     H_    0.598422 0.336024 0.962620 0.069436
H44   H     H_    0.541958 0.342500 0.036193 0.069103
H45   H     H_    0.085295 0.403665 0.387676 0.008783
H46   H     H_    0.963511 0.576513 0.249168 0.123190
H47   H     H_    0.124340 0.679652 0.116869 0.121787
H48   H     H_    0.256359 0.671636 0.959915 0.068636
H49   H     H_    0.138658 0.185886 0.646774 0.144430
H50   H     H_    0.328586 0.662533 0.875559 0.122533
H51   H     H_    0.357358 0.529686 0.714408 0.139258
H52   H     H_    0.186829 0.674648 0.032172 0.068740
H53   H     H_    0.155463 0.548091 0.399607 0.077975
H54   H     H_    0.660359 0.459093 0.596338 0.085654
H55   H     H_    0.968190 0.206085 0.687223 0.127582
H56   H     H_    0.873243 0.427395 0.379535 0.088855
H57   H     H_    0.719034 0.604866 0.616303 0.008904
H58   H     H_    0.931064 0.577279 0.621944 0.086226
H59   H     H_    0.124355 0.773043 0.645036 0.218743
H60   H     H_    0.179062 0.898376 0.636721 0.094095
H61   H     H_    0.367817 0.889451 0.673670 0.115959
H62   H     H_    0.173387 0.883696 0.701150 0.120177
H63   H     H_    0.648788 0.196023 0.671531 0.181033
H64   H     H_    0.465034 0.156251 0.663896 0.196987
H65   H     H_    0.185873 0.205723 0.407718 0.197422
H66   H     H_    0.036829 0.195131 0.328844 0.130645
H67   H     H_    0.080913 0.329245 0.303588 0.138653
H68   H     H_    0.867861 0.159483 0.356070 0.109147
H69   H     H_    0.055311 0.106705 0.346207 0.087096
H70   H     H_    0.998702 0.417927 0.298538 0.073970
H71   H     H_    0.863268 0.344044 0.296344 0.128846
N1    N     N_R   0.231637 0.521647 0.200985 -0.422139
N2    N     N_R   0.556279 0.488025 0.793717 -0.420878
N3    N     N_2   0.240770 0.793012 0.649456 -0.393290
N4    N     N_3   0.537008 0.193048 0.688226 -0.483569
N5    N     N_2   0.063994 0.194354 0.406164 -0.393437
O1    O     O_2   0.106080 0.324280 0.466820 -0.449524
O2    O     O_2   0.722019 0.538124 0.325134 -0.495815
O3    O     O_3   0.756987 0.678754 0.343454 -0.585750
O4    O     O_3   0.859130 0.413620 0.470620 -0.493505
O5    O     O_3   0.459240 0.537930 0.559910 -0.492524
O6    O     O_2   0.583120 0.462390 0.379940 -0.458683
O7    O     O_3   0.396336 0.349594 0.355339 -0.627892
O8    O     O_2   0.558722 0.756811 0.481286 -0.495717
O9    O     O_3   0.452870 0.746000 0.388832 -0.600835
O10   O     O_2   0.330260 0.407399 0.196746 -0.598299
O11   O     O_2   0.650255 0.374295 0.797616 -0.622480
O12   O     O_3   0.396425 0.652888 0.632024 -0.618092
O13   O     O_2   0.134706 0.634979 0.197665 -0.619209
O14   O     O_2   0.457973 0.602415 0.797531 -0.597288
O15   O     O_3   0.376230 0.370290 0.556910 -0.476858
O16   O     O_2   0.248752 0.243091 0.517623 -0.494694
O17   O     O_3   0.925077 0.321330 0.387193 -0.621568
O18   O     O_3   0.356833 0.252636 0.609224 -0.611260
O19   O     O_2   0.227190 0.537650 0.620070 -0.461608
O20   O     O_3   0.971110 0.406970 0.583250 -0.484330
O21   O     O_2   0.073849 0.469590 0.674831 -0.491446
O22   O     O_3   0.048489 0.328591 0.661245 -0.586196
O23   O     O_2   0.704230 0.675760 0.533200 -0.466958
O24   O     O_3   0.951180 0.586390 0.529420 -0.489586
O25   O     O_3   0.434080 0.629720 0.443130 -0.478634
O26   O     O_3   0.884990 0.683246 0.612734 -0.650592
O27   O     O_3   0.351080 0.462080 0.440130 -0.479200
O28   O     O_3   0.839200 0.593040 0.416790 -0.480405
P1    P     P_3+3 0.929380 0.335110 0.452880 1.006256
P2    P     P_3+3 0.398530 0.559060 0.613740 0.999659
P3    P     P_3+3 0.961280 0.409618 0.647672 0.954796
P4    P     P_3+3 0.880940 0.664900 0.547160 0.969892
P5    P     P_3+3 0.840923 0.595202 0.352706 0.954723
P6    P     P_3+3 0.393522 0.276106 0.551107 0.938035
P7    P     P_3+3 0.398207 0.442799 0.376601 0.961372
P8    P     P_3+3 0.415958 0.723148 0.447199 0.933920

loop_
_geom_bond_atom_site_label_1
_geom_bond_atom_site_label_2
_ccdc_geom_bond_type
O15   P6    S    
C53   C57   A    
C3    H28   S    
C51   H54   S    
C71   C72   A    
Ba2   O27   S    
O23   P4    D    
C63   N2    Am   
C49   C75   A    
C82   N3    S    
O2    P5    D    
C68   P2    S    
C55   C60   A    
C69   H51   S    
O21   P3    D    
C43   C44   S    
C54   C55   A    
C81   H6    S    
C27   H33   S    
C24   C25   A    
C37   O10   D    
C70   N2    S    
C75   H47   S    
C61   C79   A    
C1    H4    S    
C75   C80   A    
C38   N1    Am   
C33   C35   A    
C40   H23   S    
C22   C24   A    
C12   H1    S    
O4    P1    S    
O9    P8    S    
C48   C74   A    
C40   H12   S    
C83   H69   S    
C45   O3    S    
O19   P2    D    
C41   C50   S    
C19   C31   A    
Ba1   O5    S    
C76   H2    S    
O22   P3    S    
C44   N1    S    
O3    P5    S    
C50   H53   S    
C28   H58   S    
C52   O17   S    
C10   C17   A    
C41   P5    S    
Ba1   Ba2   S    
C67   O9    S    
C5    H29   S    
C77   H48   S    
C51   C66   S    
C7    C11   A    
Ba2   O25   S    
C31   C33   A    
H63   N4    S    
C74   H44   S    
C76   C81   S    
C46   C49   A    
C81   N3    S    
C43   H39   S    
C14   C15   A    
C18   C84   A    
C39   C44   D    
C68   C69   D    
C48   H40   S    
C62   O14   D    
Ba2   O4    S    
C12   H7    S    
O18   P6    S    
C21   N5    S    
C42   C50   D    
O26   P4    S    
C42   P7    S    
C32   H36   S    
C54   C73   A    
C19   C20   A    
C83   N5    S    
C39   C41   S    
C15   P4    S    
Ba1   O15   S    
C4    H37   S    
C51   C68   D    
C14   H30   S    
C67   H22   S    
C82   H62   S    
C76   H3    S    
C67   H21   S    
C4    C16   S    
C45   H17   S    
O6    P7    D    
O25   P8    S    
C65   C66   S    
C46   C72   A    
C58   H42   S    
C76   O12   S    
C29   H35   S    
C72   C73   A    
C3    C5    A    
C2    C21   A    
Ba1   O19   S    
C6    C7    A    
C18   C26   A    
Ba1   O24   S    
O16   P6    D    
C28   H57   S    
C4    O22   S    
C58   C59   A    
Ba2   P4    S    
C16   H15   S    
C30   C32   A    
C35   C36   A    
Ba2   O24   S    
C60   C61   A    
C52   H45   S    
C65   H41   S    
C7    C84   A    
C38   O13   D    
C35   H38   S    
O12   P2    S    
Ba2   O6    S    
C29   C30   A    
C26   C30   A    
Ba1   O20   S    
H65   N5    S    
C18   C19   A    
C31   C32   A    
C16   H49   S    
C34   H14   S    
O20   P3    S    
C10   C11   A    
C54   C77   A    
C34   H11   S    
C1    C12   S    
C33   P6    S    
C24   C27   A    
O28   P5    S    
C6    C8    A    
C46   C47   A    
C52   H56   S    
C23   H9    S    
C9    C13   A    
C53   C55   A    
C37   N1    Am   
C71   C74   A    
C56   H18   S    
C2    C84   A    
C38   C49   A    
Ba1   P1    S    
O8    P8    D    
C65   C70   D    
C42   C43   D    
C79   H50   S    
O7    P7    S    
C82   H61   S    
O27   P7    S    
C13   P8    S    
H64   N4    S    
C57   H43   S    
C63   O11   D    
C4    H26   S    
O24   P4    S    
C16   H55   S    
C28   C40   S    
Ba2   O28   S    
C2    C3    A    
C78   H25   S    
C1    H8    S    
C39   H46   S    
C9    C10   A    
C37   C47   A    
C73   C80   A    
C52   C64   S    
C82   H60   S    
C64   H67   S    
C81   H5    S    
C22   H32   S    
C56   H19   S    
C23   O7    S    
O5    P2    S    
C17   C22   A    
Ba2   O23   S    
C69   C70   S    
C27   C29   A    
C8    H31   S    
H59   N3    S    
C45   C56   S    
C64   H70   S    
C40   H34   S    
Ba1   O4    S    
C62   N2    Am   
C15   C17   A    
C34   H13   S    
C83   H68   S    
C64   H71   S    
C77   C79   A    
C59   C60   A    
C83   H66   S    
C5    C6    A    
C8    C9    A    
C1    N4    S    
C23   C34   S    
C61   C62   A    
C53   C71   A    
Ba1   P2    S    
C59   C63   A    
C57   C58   A    
O17   P1    S    
C78   H27   S    
Ba1   O1    S    
C23   H10   S    
C80   H52   S    
C47   C48   A    
C78   H24   S    
C25   C26   A    
C45   H16   S    
C20   C21   A    
C11   C25   A    
C67   C78   S    
O1    P1    D    
C56   H20   S    
C66   P3    S    
Ba2   O5    S    
C36   P1    S    
C12   O18   S    
C13   C14   A    
C28   O26   S    
C20   C36   A    
Ba1   O27   S    
