data_mof_unit_60048.cif
_audit_creation_date              2012-12-10T19:38:19-0500
_audit_creation_method            fapswitch 2.2
_symmetry_space_group_name_H-M    P1
_symmetry_Int_Tables_number       1
_space_group_crystal_system       triclinic
_cell_length_a                    15.817174
_cell_length_b                    15.886225
_cell_length_c                    17.060006
_cell_angle_alpha                 90.440051
_cell_angle_beta                  95.948315
_cell_angle_gamma                 92.171278
_cell_volume                      4260.32364767

loop_
_atom_site_label
_atom_site_type_symbol
_atom_type_description
_atom_site_fract_x
_atom_site_fract_y
_atom_site_fract_z
_atom_type_partial_charge
C1    C     C_R   0.510113 0.497985 0.651184 0.859684
C2    C     C_3   0.593036 0.051434 0.504869 0.125538
C3    C     C_3   0.500325 0.082857 0.503723 0.139973
C4    C     C_3   0.450925 0.046621 0.426373 -0.521661
C5    C     C_3   0.448929 0.949186 0.426959 -0.374301
C6    C     C_1   0.500985 0.175126 0.501895 0.052663
C7    C     C_1   0.499095 0.825106 0.501922 -0.041907
C8    C     C_1   0.499092 0.749567 0.501090 -0.153272
C9    C     C_R   0.515544 0.492949 0.736919 -0.139819
C10   C     C_R   0.466429 0.432451 0.774499 0.189861
C11   C     C_R   0.473329 0.430120 0.857318 0.253785
C12   C     C_R   0.499705 0.659930 0.500250 0.822400
C13   C     C_R   0.528226 0.489419 0.901500 0.273954
C14   C     C_R   0.579148 0.546021 0.863276 -0.207820
C15   C     C_R   0.572886 0.547985 0.781634 -0.254133
C16   C     C_R   0.551735 0.522935 0.140818 -0.248459
C17   C     C_R   0.558406 0.522355 0.223144 0.449327
C18   C     C_R   0.474683 0.498833 0.096051 0.330471
C19   C     C_R   0.485617 0.501339 0.261659 -0.130707
C20   C     C_R   0.408205 0.480018 0.216553 -0.295696
C21   C     C_R   0.403022 0.478745 0.134525 -0.155287
C22   C     C_R   0.247921 0.536225 0.542265 0.081302
C23   C     C_R   0.490028 0.500425 0.348315 0.823659
C24   C     C_R   0.158646 0.534712 0.538759 -0.254706
C25   C     C_R   0.109246 0.485047 0.480780 0.385944
C26   C     C_R   0.152230 0.438196 0.428409 -0.264687
C27   C     C_R   0.241489 0.441141 0.434266 0.072437
C28   C     C_R   0.839900 0.449931 0.471280 0.127152
C29   C     C_R   0.750831 0.451096 0.468946 0.002522
C30   C     C_R   0.891109 0.512704 0.516014 0.273669
C31   C     C_R   0.759466 0.570008 0.553631 0.013213
C32   C     C_R   0.848743 0.572364 0.557750 0.126393
C33   C     C_R   0.500309 0.340117 0.499984 0.833231
C34   C     C_3   0.592211 0.953868 0.507746 -0.388684
C35   C     C_3   0.458458 0.949661 0.575220 -0.445018
C36   C     C_3   0.456762 0.048276 0.576715 0.667648
C37   C     C_1   0.500999 0.250596 0.500807 -0.082415
C38   C     C_3   0.499604 0.917299 0.502769 0.171990
Cu1   Cu    Cu3+1 0.584780 0.504030 0.503820 0.991738
Cu2   Cu    Cu3+1 0.415220 0.495970 0.496180 0.987201
H1    H     H_    0.624523 0.929262 0.457825 0.171766
H2    H     H_    0.618751 0.071281 0.449238 0.132677
H3    H     H_    0.384996 0.069097 0.417834 0.237137
H4    H     H_    0.606897 0.542998 0.112131 0.171524
H5    H     H_    0.622829 0.589960 0.897188 0.175848
H6    H     H_    0.611935 0.593570 0.753197 0.178070
H7    H     H_    0.351663 0.463352 0.244685 0.184871
H8    H     H_    0.343100 0.461164 0.100718 0.180298
H9    H     H_    0.628351 0.932645 0.563033 0.217711
H10   H     H_    0.712015 0.403525 0.434896 0.167791
H11   H     H_    0.116590 0.399408 0.383029 0.178053
H12   H     H_    0.273688 0.404660 0.393440 0.132552
H13   H     H_    0.727855 0.615946 0.586200 0.165463
H14   H     H_    0.129038 0.572572 0.580483 0.188597
H15   H     H_    0.285359 0.575072 0.586348 0.140179
H16   H     H_    0.392886 0.921582 0.574546 0.184024
H17   H     H_    0.495190 0.926693 0.629541 0.182594
H18   H     H_    0.476540 0.925353 0.374006 0.189507
H19   H     H_    0.381773 0.924641 0.423515 0.206814
H20   H     H_    0.482250 0.069213 0.374491 0.187590
N1    N     N_2   0.536462 0.492083 0.984600 -0.226443
N2    N     N_2   0.466855 0.495254 0.012509 -0.181196
N3    N     N_R   0.287860 0.489910 0.490440 -0.170077
N4    N     N_2   0.017830 0.480851 0.471845 -0.158717
N5    N     N_2   0.982827 0.517088 0.524517 -0.167352
N6    N     N_R   0.712150 0.510100 0.509550 -0.205089
O1    O     O_R   0.579470 0.503770 0.617500 -0.576611
O2    O     O_R   0.436280 0.496960 0.611050 -0.558981
O3    O     O_R   0.571630 0.623970 0.503220 -0.573580
O4    O     O_R   0.428430 0.617160 0.496770 -0.584406
O5    O     O_R   0.563720 0.503040 0.388950 -0.539790
O6    O     O_R   0.420530 0.496230 0.382500 -0.603969
O7    O     O_R   0.571570 0.382840 0.503230 -0.579916
O8    O     O_R   0.428370 0.376030 0.496780 -0.554852
Br1   Br    Br    0.674346 0.101490 0.588058 -0.390237
O9    O     O_3   0.633819 0.549953 0.265672 -0.561865
C39   C     C_3   0.695272 0.488580 0.260516 -0.227196
H21   H     H_    0.672149 0.425747 0.279816 0.152497
H22   H     H_    0.752731 0.507592 0.300512 0.200848
H23   H     H_    0.714899 0.484214 0.199962 0.160208
Br2   Br    Br    0.413183 0.342470 0.909362 -0.395678
Br3   Br    Br    0.395062 0.349109 0.713456 -0.382059
Br4   Br    Br    0.883492 0.357638 0.416115 -0.461471
Br5   Br    Br    0.911402 0.658295 0.621267 -0.446832
O10   O     O_3   0.503821 0.081471 0.646652 -0.548352
C40   C     C_3   0.461896 0.068789 0.715184 -0.136656
H24   H     H_    0.422990 0.008926 0.714232 0.137035
H25   H     H_    0.421401 0.122865 0.724342 0.231273
H26   H     H_    0.510653 0.066845 0.766710 0.188368
Br6   Br    Br    0.337179 0.083826 0.568678 -0.509152

loop_
_geom_bond_atom_site_label_1
_geom_bond_atom_site_label_2
_ccdc_geom_bond_type
C31   N6    A    
C12   O3    A    
C18   C21   A    
C19   C20   A    
C3    C6    S    
C7    C8    T    
C39   H21   S    
C11   Br2   S    
C26   C27   A    
Cu2   N3    S    
Cu2   O4    S    
C5    H18   S    
C28   C29   A    
C40   H25   S    
C24   H14   S    
C1    O2    A    
C17   C19   A    
C22   N3    A    
C35   C36   S    
C16   C17   A    
C17   O9    S    
C9    C10   A    
C16   H4    S    
C21   H8    S    
C2    C34   S    
C13   C14   A    
C28   Br4   S    
C34   H1    S    
C14   H5    S    
C29   H10   S    
C39   H22   S    
C32   Br5   S    
C5    H19   S    
C30   N5    S    
C23   O5    A    
C35   C38   S    
C1    C9    S    
C24   C25   A    
Cu1   Cu2   S    
C40   H24   S    
C18   N2    S    
C25   C26   A    
O10   C40   S    
C10   Br3   S    
C33   C37   S    
C25   N4    S    
C19   C23   S    
C31   C32   A    
C8    C12   S    
C4    H20   S    
Cu1   O3    S    
C6    C37   T    
C31   H13   S    
C27   N3    A    
C33   O7    A    
Cu1   N6    S    
C22   C24   A    
C3    C4    S    
C27   H12   S    
C39   H23   S    
C36   Br6   S    
C12   O4    A    
C34   H9    S    
Cu2   O6    S    
C35   H16   S    
C34   C38   S    
Cu1   O1    S    
C23   O6    A    
C4    C5    S    
C40   H26   S    
C22   H15   S    
C4    H3    S    
C36   O10   S    
C35   H17   S    
N4    N5    D    
C28   C30   A    
C2    C3    S    
C9    C15   A    
C26   H11   S    
C30   C32   A    
O9    C39   S    
C11   C13   A    
C3    C36   S    
C2    H2    S    
C1    O1    A    
C7    C38   S    
Cu2   O8    S    
Cu1   O7    S    
N1    N2    D    
C20   H7    S    
C10   C11   A    
C29   N6    A    
C33   O8    A    
C13   N1    S    
C20   C21   A    
C16   C18   A    
Cu2   O2    S    
Cu1   O5    S    
C14   C15   A    
C15   H6    S    
C5    C38   S    
C2    Br1   S    
