data_mof_unit_9688.cif
_audit_creation_date              2012-12-10T19:42:53-0500
_audit_creation_method            fapswitch 2.2
_symmetry_space_group_name_H-M    P1
_symmetry_Int_Tables_number       1
_space_group_crystal_system       triclinic
_cell_length_a                    10.794679
_cell_length_b                    12.986662
_cell_length_c                    11.723563
_cell_angle_alpha                 101.016022
_cell_angle_beta                  94.247526
_cell_angle_gamma                 90.914433
_cell_volume                      1608.01384472

loop_
_atom_site_label
_atom_site_type_symbol
_atom_type_description
_atom_site_fract_x
_atom_site_fract_y
_atom_site_fract_z
_atom_type_partial_charge
C1    C     C_R   0.503102 0.298965 0.477294 0.867611
C2    C     C_R   0.496897 0.701035 0.522706 0.867629
C3    C     C_R   0.871422 0.499478 0.500953 -0.155472
C4    C     C_R   0.128578 0.500522 0.499047 -0.155501
C5    C     C_R   0.938705 0.421886 0.545986 -0.055171
C6    C     C_R   0.061295 0.578112 0.454012 -0.055197
C7    C     C_R   0.489799 0.815248 0.537443 -0.132820
C8    C     C_R   0.510198 0.184751 0.462556 -0.132813
C9    C     C_R   0.555189 0.011667 0.354692 0.179652
C10   C     C_R   0.444805 0.988332 0.645307 0.179654
C11   C     C_R   0.553172 0.120972 0.362052 -0.103681
C12   C     C_R   0.446822 0.879027 0.637946 -0.103702
C13   C     C_R   0.473276 0.139646 0.553953 -0.195083
C14   C     C_R   0.526721 0.860353 0.446047 -0.195087
C15   C     C_R   0.479547 0.032257 0.550354 0.040047
C16   C     C_R   0.520448 0.967743 0.449645 0.040056
C17   C     C_R   0.371943 0.412423 0.018080 -0.179915
C18   C     C_R   0.628068 0.587571 0.981917 -0.179977
C19   C     C_R   0.383710 0.418393 0.140147 0.162146
C20   C     C_R   0.616307 0.581589 0.859849 0.162132
C21   C     C_R   0.557011 0.536706 0.158025 0.111060
C22   C     C_R   0.442983 0.463302 0.841976 0.111080
C23   C     C_R   0.262489 0.501009 0.499891 0.877203
C24   C     C_R   0.737511 0.498991 0.500109 0.877212
C25   C     C_R   0.546758 0.531364 0.035329 0.043974
C26   C     C_R   0.453241 0.468641 0.964672 0.043933
C27   C     C_R   0.194754 0.844607 0.433580 -0.171815
C28   C     C_R   0.805255 0.155382 0.566393 -0.171800
C29   C     C_R   0.141547 0.763325 0.478161 -0.061638
C30   C     C_R   0.858463 0.236670 0.521821 -0.061635
C31   C     C_R   0.125049 0.662432 0.409063 0.070308
C32   C     C_R   0.874950 0.337561 0.590925 0.070275
C33   C     C_R   0.162476 0.643873 0.294893 -0.104085
C34   C     C_R   0.837513 0.356112 0.705092 -0.104066
C35   C     C_R   0.217579 0.725058 0.251184 0.314210
C36   C     C_R   0.782408 0.274921 0.748790 0.314202
C37   C     C_R   0.233237 0.825444 0.320453 -0.122998
C38   C     C_R   0.766761 0.174537 0.679516 -0.123009
C39   C     C_R   0.931999 0.577668 0.455736 0.220052
C40   C     C_R   0.068001 0.422332 0.544265 0.220054
Cu1   Cu    Cu3+1 0.509250 0.507730 0.615930 0.993037
Cu2   Cu    Cu3+1 0.490750 0.492270 0.384070 0.993013
H1    H     H_    0.275133 0.888590 0.286736 0.182736
H2    H     H_    0.724864 0.111387 0.713225 0.182725
H3    H     H_    0.371202 0.413813 0.787984 0.167917
H4    H     H_    0.628788 0.586199 0.212019 0.167919
H5    H     H_    0.299565 0.363013 0.964288 0.206119
H6    H     H_    0.700455 0.636975 0.035702 0.206068
H7    H     H_    0.206446 0.922466 0.486846 0.183213
H8    H     H_    0.793570 0.077525 0.513122 0.183215
H9    H     H_    0.111302 0.779232 0.565675 0.195472
H10   H     H_    0.888715 0.220769 0.434310 0.195466
H11   H     H_    0.148330 0.566784 0.240099 0.180706
H12   H     H_    0.851652 0.433199 0.759891 0.180802
H13   H     H_    0.560373 0.809810 0.371269 0.229546
H14   H     H_    0.439624 0.190190 0.628731 0.229549
N1    N     N_R   0.523180 0.519350 0.790130 -0.226294
N2    N     N_R   0.476820 0.480650 0.209870 -0.226305
O1    O     O_R   0.506570 0.354460 0.582000 -0.583589
O2    O     O_R   0.493430 0.645540 0.418000 -0.583590
O3    O     O_R   0.490940 0.341410 0.386200 -0.594705
O4    O     O_R   0.509060 0.658590 0.613800 -0.594692
O5    O     O_R   0.327460 0.506540 0.597900 -0.528695
O6    O     O_R   0.672540 0.493460 0.402100 -0.528709
O7    O     O_R   0.311830 0.493480 0.402100 -0.634080
O8    O     O_R   0.688170 0.506520 0.597900 -0.634024
C41   C     C_2   0.708048 0.644847 0.812013 0.388312
H15   H     H_    0.689380 0.670655 0.731041 0.126467
O9    O     O_2   0.808808 0.670869 0.865143 -0.515412
C42   C     C_2   0.292002 0.355089 0.187972 0.388218
H16   H     H_    0.310612 0.329395 0.269014 0.126555
O10   O     O_2   0.191332 0.328888 0.134747 -0.515382
Br1   Br    Br    0.269508 0.699560 0.096356 -0.444011
Br2   Br    Br    0.730458 0.300410 0.903611 -0.443998
Br3   Br    Br    0.838675 0.687080 0.400211 -0.516869
Br4   Br    Br    0.161325 0.312921 0.599791 -0.516855
C43   C     C_2   0.398409 0.833899 0.733709 0.460176
H17   H     H_    0.426642 0.868437 0.823813 0.135194
O11   O     O_2   0.322402 0.760814 0.713038 -0.522187
C44   C     C_2   0.601583 0.166100 0.266289 0.460201
H18   H     H_    0.573343 0.131565 0.176185 0.135201
O12   O     O_2   0.677595 0.239181 0.286958 -0.522199
Br5   Br    Br    0.611574 0.924061 0.215988 -0.486666
Br6   Br    Br    0.388416 0.075938 0.784009 -0.486591

loop_
_geom_bond_atom_site_label_1
_geom_bond_atom_site_label_2
_ccdc_geom_bond_type
C8    C13   A    
C27   C29   A    
C1    C8    S    
Cu1   Cu2   S    
C20   C41   S    
C2    C7    S    
Cu2   N2    S    
C22   N1    A    
C43   H17   S    
C17   C26   A    
C35   C37   A    
C9    C16   A    
C10   C15   A    
C1    O1    A    
C2    O2    A    
C15   C16   A    
C10   Br6   S    
C30   H10   S    
C17   C19   A    
C28   H8    S    
C7    C14   A    
C4    C40   A    
Cu2   O7    S    
C31   C33   A    
C42   H16   S    
C39   Br3   S    
C34   C36   A    
C24   O8    A    
C13   H14   S    
C23   O5    A    
C14   H13   S    
C3    C39   A    
C24   O6    A    
C3    C24   S    
C18   C25   A    
Cu1   O4    S    
C10   C12   A    
C43   O11   D    
C19   N2    A    
C33   H11   S    
C7    C12   A    
C41   H15   S    
Cu1   O1    S    
C44   O12   D    
Cu2   O2    S    
C4    C23   S    
C25   C26   A    
C40   Br4   S    
C18   H6    S    
C41   O9    D    
C32   C34   A    
C37   H1    S    
C38   H2    S    
C28   C38   A    
C12   C43   S    
C9    C11   A    
Cu2   O3    S    
C36   Br2   S    
C9    Br5   S    
C4    C6    A    
C34   H12   S    
C13   C15   A    
C14   C16   A    
Cu1   O5    S    
Cu2   O6    S    
C21   H4    S    
C29   H9    S    
C21   C25   A    
C35   Br1   S    
C17   H5    S    
C44   H18   S    
C3    C5    A    
C1    O3    A    
Cu1   O8    S    
C5    C32   S    
C28   C30   A    
Cu1   N1    S    
C21   N2    A    
C29   C31   A    
C30   C32   A    
C23   O7    A    
C27   C37   A    
C8    C11   A    
C36   C38   A    
C33   C35   A    
C6    C31   S    
C18   C20   A    
C11   C44   S    
C2    O4    A    
C22   H3    S    
C22   C26   A    
C5    C40   A    
C6    C39   A    
C19   C42   S    
C42   O10   D    
C20   N1    A    
C27   H7    S    
