data_mof_unit_53170.cif
_audit_creation_date              2012-12-11T16:16:57-0500
_audit_creation_method            fapswitch 2.2
_symmetry_space_group_name_H-M    P1
_symmetry_Int_Tables_number       1
_space_group_crystal_system       triclinic
_cell_length_a                    13.263419
_cell_length_b                    13.266142
_cell_length_c                    28.573358
_cell_angle_alpha                 89.995618
_cell_angle_beta                  89.952155
_cell_angle_gamma                 120.016459
_cell_volume                      4353.31176795

loop_
_atom_site_label
_atom_site_type_symbol
_atom_type_description
_atom_site_fract_x
_atom_site_fract_y
_atom_site_fract_z
_atom_type_partial_charge
C1    C     C_R   0.438835 0.549962 0.316393 0.547701
C2    C     C_R   0.550012 0.438987 0.683627 0.546153
C3    C     C_R   0.561155 0.111320 0.816543 0.540967
C4    C     C_R   0.889194 0.450126 0.683686 0.546032
C5    C     C_1   0.064822 0.526744 0.362317 0.076501
C6    C     C_1   0.464450 0.940273 0.138389 0.064807
C7    C     C_1   0.473262 0.537253 0.362088 0.078899
C8    C     C_1   0.061174 0.524730 0.138137 0.065564
C9    C     C_1   0.462553 0.937011 0.361941 0.079645
C10   C     C_1   0.475108 0.536476 0.138061 0.067197
C11   C     C_1   0.525319 0.062491 0.862119 0.067555
C12   C     C_R   0.111236 0.561147 0.183492 0.540576
C13   C     C_1   0.939318 0.463739 0.638474 0.076940
C14   C     C_1   0.535930 0.475398 0.861764 0.069806
C15   C     C_1   0.525987 0.063143 0.638054 0.078331
C16   C     C_1   0.938904 0.463441 0.861858 0.068146
C17   C     C_1   0.537022 0.474758 0.638192 0.076418
C18   C     C_R   0.016093 0.392335 0.476081 0.265124
C19   C     C_R   0.392333 0.011013 0.025949 0.247456
C20   C     C_R   0.604563 0.623993 0.475895 0.245473
C21   C     C_R   0.997390 0.384714 0.025140 0.261614
C22   C     C_R   0.378061 0.987197 0.475716 0.262006
C23   C     C_R   0.449948 0.888900 0.316397 0.548111
C24   C     C_R   0.616716 0.608858 0.025167 0.245786
C25   C     C_R   0.391048 0.010533 0.975980 0.212197
C26   C     C_R   0.990479 0.379519 0.524951 0.263092
C27   C     C_R   0.617391 0.610396 0.975205 0.207425
C28   C     C_R   0.391417 0.013476 0.524496 0.257363
C29   C     C_R   0.998229 0.384690 0.975167 0.254066
C30   C     C_R   0.618469 0.611428 0.524648 0.213769
C31   C     C_R   0.005163 0.570845 0.525163 -0.150870
C32   C     C_R   0.571978 0.003855 0.975995 -0.144457
C33   C     C_R   0.433217 0.427730 0.524392 -0.121693
C34   C     C_R   0.438898 0.550089 0.183485 0.540607
C35   C     C_R   0.997743 0.568704 0.975690 -0.145914
C36   C     C_R   0.572311 0.006618 0.523918 -0.123511
C37   C     C_R   0.426980 0.432708 0.975250 -0.118677
C38   C     C_R   0.567400 0.993723 0.024227 -0.141172
C39   C     C_R   0.016376 0.576815 0.477011 -0.149644
C40   C     C_R   0.421850 0.437187 0.023505 -0.123579
C41   C     C_R   0.566264 0.994973 0.475789 -0.122327
C42   C     C_R   0.007834 0.573989 0.023922 -0.140800
C43   C     C_R   0.427012 0.433367 0.476262 -0.124073
C44   C     C_R   0.021203 0.488727 0.452342 -0.023102
C45   C     C_R   0.111233 0.561155 0.316457 0.547297
C46   C     C_R   0.478892 0.997079 0.049306 -0.012962
C47   C     C_R   0.511459 0.529905 0.451921 -0.023234
C48   C     C_R   0.007273 0.483271 0.048783 -0.019536
C49   C     C_R   0.470541 0.985069 0.451583 -0.029348
C50   C     C_R   0.515362 0.523595 0.048586 -0.020381
C51   C     C_R   0.484857 0.011405 0.951732 -0.020525
C52   C     C_R   0.991349 0.473330 0.549201 -0.024604
C53   C     C_R   0.523315 0.517864 0.950988 -0.027985
C54   C     C_R   0.486311 0.015800 0.548377 -0.031542
C55   C     C_R   0.993150 0.475653 0.951175 -0.024856
C56   C     C_R   0.450050 0.888949 0.183535 0.540316
C57   C     C_R   0.527651 0.515114 0.548682 -0.025782
C58   C     C_1   0.968447 0.469405 0.598375 0.053521
C59   C     C_1   0.502783 0.033942 0.902384 0.051034
C60   C     C_1   0.531637 0.497277 0.597947 0.051946
C61   C     C_1   0.968932 0.470121 0.901944 0.052696
C62   C     C_1   0.503977 0.036277 0.597709 0.053391
C63   C     C_1   0.528793 0.498724 0.901806 0.052538
C64   C     C_1   0.472276 0.971543 0.098433 0.052427
C65   C     C_1   0.039654 0.505434 0.402858 0.053982
C66   C     C_1   0.497641 0.529399 0.097891 0.054089
C67   C     C_R   0.549988 0.438849 0.816491 0.541137
C68   C     C_1   0.467320 0.964149 0.402260 0.056730
C69   C     C_1   0.031269 0.501700 0.098030 0.052207
C70   C     C_1   0.494416 0.532398 0.402535 0.056241
C71   C     C_R   0.561102 0.111078 0.683620 0.546448
C72   C     C_R   0.888746 0.449888 0.816518 0.540765
Cr1   Cr    Cr6+3 0.505050 0.756260 0.250000 1.116290
Cr2   Cr    Cr6+3 0.251210 0.494950 0.250000 1.116421
Cr3   Cr    Cr6+3 0.243740 0.748790 0.250000 1.115554
Cr4   Cr    Cr6+3 0.756260 0.505050 0.750000 1.122206
Cr5   Cr    Cr6+3 0.494950 0.251210 0.750000 1.120731
Cr6   Cr    Cr6+3 0.748790 0.243740 0.750000 1.119624
H1    H     H_    0.003749 0.641425 0.543716 0.196552
H2    H     H_    0.635540 0.990748 0.457370 0.207609
H3    H     H_    0.016018 0.649544 0.042033 0.191872
H4    H     H_    0.354229 0.362999 0.457970 0.206168
H5    H     H_    0.109246 0.175589 0.460646 0.395395
H6    H     H_    0.186657 0.114102 0.050347 0.398641
H7    H     H_    0.812070 0.937159 0.460873 0.396367
H8    H     H_    0.906758 0.078282 0.048064 0.396530
H9    H     H_    0.065867 0.886450 0.461870 0.394509
H10   H     H_    0.927044 0.808582 0.049607 0.396897
H11   H     H_    0.133288 0.849892 0.974122 0.342135
H12   H     H_    0.644038 0.005521 0.957385 0.184588
H13   H     H_    0.883622 0.066244 0.538956 0.402302
H14   H     H_    0.719160 0.869066 0.973380 0.339810
H15   H     H_    0.182000 0.116424 0.539277 0.400366
H16   H     H_    0.081674 0.163305 0.952174 0.413686
H17   H     H_    0.867023 0.696935 0.506722 0.334389
H18   H     H_    0.365299 0.352891 0.542715 0.205398
H19   H     H_    0.993682 0.637998 0.957281 0.191597
H20   H     H_    0.646282 0.011408 0.542121 0.207851
H21   H     H_    0.355108 0.362095 0.956675 0.212976
H22   H     H_    0.633539 0.983085 0.042143 0.191552
H23   H     H_    0.023648 0.651996 0.458906 0.193089
H24   H     H_    0.344263 0.372369 0.041466 0.207719
O1    O     O_R   0.530190 0.870330 0.301660 -0.478943
O2    O     O_R   0.870330 0.530190 0.698340 -0.479437
O3    O     O_R   0.469810 0.340140 0.801660 -0.485434
O4    O     O_R   0.659860 0.129670 0.698340 -0.479758
O5    O     O_R   0.494300 0.651190 0.297490 -0.472838
O6    O     O_R   0.156890 0.505700 0.202510 -0.481628
O7    O     O_R   0.348810 0.843110 0.297490 -0.474139
O8    O     O_R   0.494300 0.651190 0.202510 -0.482550
O9    O     O_R   0.156890 0.505700 0.297490 -0.473481
O10   O     O_R   0.348810 0.843110 0.202510 -0.481763
O11   O     O_R   0.651190 0.494300 0.797490 -0.479540
O12   O     O_R   0.340140 0.469810 0.198340 -0.487293
O13   O     O_R   0.505700 0.156890 0.702510 -0.473969
O14   O     O_R   0.843110 0.348810 0.797490 -0.480934
O15   O     O_R   0.651190 0.494300 0.702510 -0.474198
O16   O     O_R   0.505700 0.156890 0.797490 -0.479430
O17   O     O_R   0.843110 0.348810 0.702510 -0.473705
O18   O     O_3   0.333333 0.666667 0.250000 -0.288435
O19   O     O_3   0.666667 0.333333 0.750000 -0.289983
O20   O     O_2   0.934896 0.197809 0.424858 -0.240089
O21   O     O_2   0.130366 0.355290 0.405239 -0.291151
O22   O     O_3   0.107364 0.237030 0.479681 -0.464925
O23   O     O_R   0.129670 0.659860 0.301660 -0.480552
O24   O     O_2   0.184711 0.915955 0.068652 -0.290762
O25   O     O_2   0.343819 0.087614 0.106046 -0.265771
O26   O     O_3   0.252923 0.119980 0.032095 -0.435376
O27   O     O_2   0.793910 0.745158 0.422363 -0.267632
O28   O     O_2   0.629964 0.776041 0.407216 -0.289908
O29   O     O_3   0.753703 0.872238 0.480297 -0.454957
O30   O     O_2   0.099061 0.277987 0.067163 -0.268312
O31   O     O_2   0.924440 0.257730 0.104970 -0.270378
O32   O     O_3   0.896526 0.137043 0.030591 -0.445536
O33   O     O_2   0.259267 0.061974 0.424437 -0.238375
O34   O     O_R   0.530190 0.870330 0.198340 -0.488543
O35   O     O_2   0.225353 0.867402 0.406092 -0.296880
O36   O     O_3   0.130595 0.890755 0.480688 -0.448905
O37   O     O_2   0.732823 0.815711 0.068100 -0.284645
O38   O     O_2   0.742246 0.654308 0.104971 -0.268089
O39   O     O_3   0.865535 0.744555 0.030874 -0.439817
O40   O     O_2   0.298575 0.127747 0.935284 -0.218479
O41   O     O_2   0.261847 0.948823 0.896426 -0.276210
O42   O     O_3   0.145899 0.929809 0.971389 -0.395769
O43   O     O_2   0.062392 0.257444 0.575660 -0.233213
O44   O     O_2   0.869903 0.228006 0.595048 -0.292129
O45   O     O_R   0.340140 0.469810 0.301660 -0.480683
O46   O     O_3   0.888652 0.131441 0.520220 -0.467040
O47   O     O_2   0.826481 0.699735 0.934011 -0.205260
O48   O     O_2   0.686040 0.739955 0.895743 -0.277779
O49   O     O_3   0.785289 0.854622 0.970615 -0.390929
O50   O     O_2   0.197932 0.938712 0.576024 -0.205419
O51   O     O_2   0.359069 0.132963 0.594495 -0.297234
O52   O     O_3   0.241078 0.110540 0.520089 -0.463181
O53   O     O_2   0.889502 0.175023 0.934076 -0.234794
O54   O     O_2   0.066217 0.324395 0.895583 -0.276473
O55   O     O_3   0.090797 0.230822 0.970446 -0.444491
O56   O     O_R   0.129670 0.659860 0.198340 -0.488112
O57   O     O_2   0.735453 0.806660 0.575222 -0.196398
O58   O     O_2   0.772300 0.648909 0.594726 -0.287367
O59   O     O_3   0.865521 0.765409 0.519652 -0.418248
O60   O     O_R   0.870330 0.530190 0.801660 -0.484442
O61   O     O_R   0.469810 0.340140 0.698340 -0.479861
O62   O     O_R   0.659860 0.129670 0.801660 -0.486398
S1    S     S_3+6 0.046754 0.294023 0.444726 0.064726
S2    S     S_3+6 0.295818 0.048608 0.555511 0.075765
S3    S     S_3+6 0.009681 0.276436 0.942169 0.081760
S4    S     S_3+6 0.748955 0.709301 0.555239 0.081503
S5    S     S_3+6 0.291189 0.032319 0.059813 0.059051
S6    S     S_3+6 0.697061 0.755713 0.444798 0.047046
S7    S     S_3+6 0.980713 0.263485 0.058601 0.071057
S8    S     S_3+6 0.247034 0.952104 0.445010 0.062779
S9    S     S_3+6 0.740313 0.708080 0.058910 0.059154
S10   S     S_3+6 0.273800 0.005475 0.943235 0.083667
S11   S     S_3+6 0.953114 0.247849 0.555690 0.067711
S12   S     S_3+6 0.730601 0.726709 0.942368 0.093413

loop_
_geom_bond_atom_site_label_1
_geom_bond_atom_site_label_2
_ccdc_geom_bond_type
H6    O26   S    
C20   S6    S    
O29   S6    S    
Cr6   O62   S    
C49   C68   S    
O51   S2    D    
O48   S12   D    
C16   C72   S    
C24   C27   A    
C31   C52   A    
O55   S3    S    
C41   H2    S    
C44   C65   S    
C19   C46   A    
Cr1   O8    S    
O40   S10   D    
C20   C30   A    
Cr3   O10   S    
C36   C54   A    
Cr4   O19   S    
H15   O52   S    
C37   C40   A    
C18   C44   A    
H17   O59   S    
Cr1   O5    S    
Cr2   O12   S    
C30   C57   A    
C55   C61   S    
O57   S4    D    
C6    C64   T    
C4    C13   S    
C35   C42   A    
Cr6   O19   S    
O35   S8    D    
Cr4   O60   S    
C25   S10   S    
H8    O32   S    
C23   O1    A    
O43   S11   D    
C45   O23   A    
O38   S9    D    
C18   C26   A    
C14   C67   S    
C4    O17   A    
O30   S7    D    
C32   C38   A    
H5    O22   S    
C48   C69   S    
C28   S2    S    
C21   C48   A    
C37   C53   A    
O26   S5    S    
O20   S1    D    
C22   C28   A    
C2    C17   S    
O39   S9    S    
Cr2   O6    S    
C36   C41   A    
C42   H3    S    
C7    C70   T    
C11   C59   T    
C24   S9    S    
C41   C49   A    
H13   O46   S    
C56   O34   A    
C18   S1    S    
C39   H23   S    
C10   C66   T    
C24   C50   A    
C34   O12   A    
C23   O7    A    
C32   H12   S    
Cr3   O7    S    
O46   S11   S    
O36   S8    S    
Cr5   O61   S    
C33   C43   A    
Cr2   O45   S    
Cr5   O19   S    
C5    C65   T    
Cr5   O16   S    
O53   S3    D    
Cr2   O9    S    
C12   O6    A    
C28   C54   A    
O59   S4    S    
C9    C23   S    
C57   C60   S    
C13   C58   T    
C54   C62   S    
O54   S3    D    
C21   S7    S    
C21   C29   A    
C35   C55   A    
O22   S1    S    
C46   C64   S    
Cr3   O23   S    
C2    O61   A    
Cr4   O2    S    
C25   C51   A    
C47   C70   S    
C3    O16   A    
C26   C52   A    
O27   S6    D    
Cr1   O34   S    
C8    C12   S    
O44   S11   D    
H14   O49   S    
C45   O9    A    
Cr4   O11   S    
C8    C69   T    
C71   O13   A    
C10   C34   S    
C42   C48   A    
O33   S8    D    
C50   C66   S    
C52   C58   S    
C3    O62   A    
C1    O5    A    
C22   C49   A    
Cr3   O56   S    
C38   H22   S    
H16   O55   S    
O32   S7    S    
C34   O8    A    
C1    O45   A    
C51   C59   S    
C16   C61   T    
H9    O36   S    
C33   H18   S    
H10   O39   S    
C37   H21   S    
C15   C71   S    
C32   C51   A    
C2    O15   A    
C33   C57   A    
O49   S12   S    
C1    C7    S    
Cr6   O14   S    
Cr3   O18   S    
C19   S5    S    
C6    C56   S    
C27   S12   S    
O50   S2    D    
C27   C53   A    
C31   H1    S    
C39   C44   A    
O25   S5    D    
H11   O42   S    
C29   C55   A    
C72   O14   A    
Cr4   O15   S    
Cr6   O4    S    
O47   S12   D    
C29   S3    S    
Cr5   O3    S    
Cr6   O17   S    
O31   S7    D    
C9    C68   T    
C30   S4    S    
O24   S5    D    
Cr5   O13   S    
H7    O29   S    
C53   C63   S    
C5    C45   S    
C26   S11   S    
O28   S6    D    
C40   C50   A    
C14   C63   T    
C4    O2    A    
C15   C62   T    
C31   C39   A    
O58   S4    D    
C67   O11   A    
C19   C25   A    
O37   S9    D    
C38   C46   A    
C20   C47   A    
C3    C11   S    
C17   C60   T    
C40   H24   S    
Cr2   O18   S    
O21   S1    D    
Cr1   O1    S    
C67   O3    A    
C71   O4    A    
O42   S10   S    
Cr1   O18   S    
C43   H4    S    
C72   O60   A    
O52   S2    S    
C36   H20   S    
O41   S10   D    
C12   O56   A    
C35   H19   S    
C43   C47   A    
C56   O10   A    
C22   S8    S    
