data_mof_unit_20427.cif
_audit_creation_date              2012-12-10T16:57:48-0500
_audit_creation_method            fapswitch 2.2
_symmetry_space_group_name_H-M    P1
_symmetry_Int_Tables_number       1
_space_group_crystal_system       triclinic
_cell_length_a                    7.745603
_cell_length_b                    8.576847
_cell_length_c                    19.261918
_cell_angle_alpha                 91.085052
_cell_angle_beta                  85.60343
_cell_angle_gamma                 93.740481
_cell_volume                      1273.01589474

loop_
_atom_site_label
_atom_site_type_symbol
_atom_type_description
_atom_site_fract_x
_atom_site_fract_y
_atom_site_fract_z
_atom_type_partial_charge
C1    C     C_R   0.545943 0.794866 0.498188 0.967566
C2    C     C_R   0.660410 0.528655 0.177939 0.132410
C3    C     C_R   0.494503 0.503526 0.855005 0.059340
C4    C     C_R   0.505347 0.498339 0.145015 0.059424
C5    C     C_R   0.652148 0.534039 0.815570 -0.254247
C6    C     C_R   0.347750 0.467464 0.184439 -0.254223
C7    C     C_R   0.658518 0.533342 0.743241 0.100584
C8    C     C_R   0.341459 0.467481 0.256756 0.100600
C9    C     C_R   0.504186 0.501019 0.709989 -0.056775
C10   C     C_R   0.495830 0.499472 0.290018 -0.056742
C11   C     C_R   0.504015 0.498903 0.069672 0.295164
C12   C     C_R   0.454057 0.205134 0.501812 0.967609
C13   C     C_R   0.495744 0.503205 0.930351 0.295235
C14   C     C_2   0.570173 0.958317 0.497146 -0.377343
C15   C     C_2   0.429827 0.041683 0.502854 -0.377352
C16   C     C_R   0.502033 0.500852 0.634392 0.887534
C17   C     C_R   0.497973 0.499201 0.365608 0.887571
C18   C     C_R   0.346366 0.470942 0.749663 -0.276948
C19   C     C_R   0.653601 0.529974 0.250363 -0.277044
C20   C     C_R   0.339470 0.472991 0.822086 0.132417
H1    H     H_    0.227419 0.446324 0.724239 0.159577
H2    H     H_    0.076371 0.417202 0.829657 0.172247
H3    H     H_    0.853954 0.447485 0.114106 0.189065
H4    H     H_    0.923446 0.584828 0.170389 0.172300
H5    H     H_    0.907411 0.486318 0.717001 0.177718
H6    H     H_    0.870376 0.678517 0.719880 0.180444
H7    H     H_    0.092702 0.514594 0.283236 0.177823
H8    H     H_    0.129385 0.322323 0.279851 0.180471
H9    H     H_    0.772559 0.554407 0.275801 0.159533
H10   H     H_    0.771548 0.557473 0.840924 0.151999
H11   H     H_    0.228322 0.444221 0.159083 0.151990
H12   H     H_    0.702658 0.009518 0.491699 0.180150
H13   H     H_    0.297342 0.990481 0.508301 0.180147
H14   H     H_    0.014159 0.382503 0.447616 0.199756
H15   H     H_    0.985841 0.617498 0.552383 0.199756
H16   H     H_    0.146046 0.554869 0.885750 0.188992
N1    N     N_R   0.611105 0.599447 0.962563 -0.178233
N2    N     N_3   0.178903 0.432472 0.295771 -0.442542
N3    N     N_R   0.388658 0.402672 0.037456 -0.178241
N4    N     N_R   0.614703 0.597729 0.031231 -0.138484
N5    N     N_R   0.385059 0.404390 0.968793 -0.138429
N6    N     N_2   0.950330 0.457950 0.481240 -0.173012
N7    N     N_2   0.049670 0.542050 0.518760 -0.173003
N8    N     N_3   0.175681 0.448173 0.862099 -0.434419
N9    N     N_3   0.824138 0.553964 0.137929 -0.434428
N10   N     N_3   0.821094 0.568097 0.704206 -0.442530
O1    O     O_R   0.389250 0.738570 0.504600 -0.613572
O2    O     O_R   0.610750 0.261430 0.495400 -0.613555
O3    O     O_R   0.678400 0.711620 0.492580 -0.630553
O4    O     O_R   0.321600 0.288380 0.507420 -0.630525
O5    O     O_R   0.355380 0.513500 0.607880 -0.630509
O6    O     O_R   0.644620 0.486500 0.392120 -0.630520
O7    O     O_R   0.644530 0.486550 0.595850 -0.598045
O8    O     O_R   0.355470 0.513450 0.404150 -0.598073
Zn1   Zn    Zn3+2 0.306930 0.517990 0.508030 0.950962
Zn2   Zn    Zn3+2 0.693070 0.482010 0.491970 0.950960

loop_
_geom_bond_atom_site_label_1
_geom_bond_atom_site_label_2
_ccdc_geom_bond_type
C2    C4    A    
C12   C15   S    
H3    N9    S    
O3    Zn2   S    
H15   N7    S    
C13   N1    A    
O4    Zn1   S    
C3    C13   S    
C16   O5    A    
H8    N2    S    
C10   C19   A    
C12   O2    A    
C13   N5    A    
C6    H11   S    
C5    C7    A    
C3    C20   A    
N3    N5    A    
C4    C11   S    
C11   N3    A    
C8    N2    S    
H4    N9    S    
C17   O8    A    
C17   O6    A    
C4    C6    A    
C20   N8    S    
C9    C16   S    
N1    N4    A    
C18   C20   A    
C2    N9    S    
C11   N4    A    
H16   N8    S    
N6    N7    D    
H6    N10   S    
C10   C17   S    
O6    Zn2   S    
C19   H9    S    
C7    N10   S    
C7    C9    A    
C9    C18   A    
O1    Zn1   S    
C5    H10   S    
O7    Zn2   S    
N7    Zn1   S    
O2    Zn2   S    
C18   H1    S    
O8    Zn1   S    
C1    O1    A    
C6    C8    A    
C1    C14   S    
H7    N2    S    
O5    Zn1   S    
N6    Zn2   S    
C2    C19   A    
C16   O7    A    
C1    O3    A    
H5    N10   S    
C15   H13   S    
C8    C10   A    
H2    N8    S    
C14   C15   D    
C14   H12   S    
C12   O4    A    
C3    C5    A    
H14   N6    S    
