data_mof_unit_38479.cif
_audit_creation_date              2012-12-11T17:41:18-0500
_audit_creation_method            fapswitch 2.2
_symmetry_space_group_name_H-M    P1
_symmetry_Int_Tables_number       1
_space_group_crystal_system       triclinic
_cell_length_a                    15.448775
_cell_length_b                    14.914087
_cell_length_c                    15.151219
_cell_angle_alpha                 108.886668
_cell_angle_beta                  121.00637
_cell_angle_gamma                 59.975884
_cell_volume                      2580.34929826

loop_
_atom_site_label
_atom_site_type_symbol
_atom_type_description
_atom_site_fract_x
_atom_site_fract_y
_atom_site_fract_z
_atom_type_partial_charge
C1    C     C_R   0.798937 0.942502 0.775311 -0.112502
C2    C     C_R   0.343952 0.382256 0.172472 -0.114773
C3    C     C_R   0.606546 0.732126 0.907141 -0.130807
C4    C     C_R   0.410979 0.280846 0.149577 -0.133058
C5    C     C_R   0.650869 0.806515 0.961654 0.124308
C6    C     C_R   0.365364 0.222128 0.060026 0.124938
C7    C     C_R   0.766061 0.775127 0.005703 -0.183110
C8    C     C_R   0.251962 0.266718 0.994433 -0.169668
C9    C     C_R   0.835591 0.670989 0.992746 -0.120310
C10   C     C_R   0.185090 0.368421 0.016900 -0.121167
C11   C     C_R   0.791020 0.597112 0.938955 -0.098946
C12   C     C_R   0.237656 0.012605 0.210488 -0.124607
C13   C     C_R   0.231121 0.426471 0.105676 -0.103824
C14   C     C_R   0.585925 0.943238 0.082328 -0.226777
C15   C     C_R   0.429205 0.086104 0.934934 -0.236579
C16   C     C_R   0.202941 0.274736 0.443349 -0.120619
C17   C     C_R   0.744982 0.711481 0.502779 -0.095787
C18   C     C_R   0.513265 0.041074 0.106040 0.059673
C19   C     C_R   0.498762 0.986533 0.910202 0.065612
C20   C     C_R   0.436267 0.114972 0.033760 0.013327
C21   C     C_R   0.578721 0.914349 0.984161 0.007093
C22   C     C_2   0.027012 0.350216 0.464637 -0.298018
C23   C     C_R   0.138805 0.273020 0.480249 0.152752
C24   C     C_2   0.828949 0.603283 0.380453 -0.315638
C25   C     C_2   0.971457 0.425481 0.400445 0.027818
C26   C     C_2   0.922450 0.532770 0.442829 -0.001614
C27   C     C_2   0.978768 0.960540 0.849357 -0.235058
C28   C     C_2   0.136791 0.894736 0.105099 -0.215305
C29   C     C_R   0.111319 0.818309 0.535729 -0.212948
C30   C     C_R   0.889350 0.276948 0.660896 -0.173223
C31   C     C_R   0.224332 0.754965 0.581151 -0.238742
C32   C     C_R   0.779909 0.349076 0.630719 -0.246259
C33   C     C_R   0.279161 0.686539 0.519580 0.034732
C34   C     C_R   0.772382 0.702562 0.426139 0.159345
C35   C     C_R   0.719286 0.365037 0.682851 0.030538
C36   C     C_R   0.219120 0.682694 0.410318 0.206190
C37   C     C_R   0.770440 0.307326 0.767823 0.203968
C38   C     C_R   0.105946 0.749015 0.366004 -0.240661
C39   C     C_R   0.882205 0.235594 0.798369 -0.254300
C40   C     C_R   0.595763 0.229469 0.552583 -0.143042
C41   C     C_R   0.404538 0.786743 0.513852 -0.146342
C42   C     C_R   0.051778 0.817247 0.428093 0.293563
C43   C     C_R   0.941494 0.219839 0.744849 0.275205
C44   C     C_R   0.404924 0.512627 0.574541 -0.259359
C45   C     C_R   0.505986 0.324230 0.546856 0.057051
C46   C     C_R   0.593415 0.545598 0.655307 -0.259315
C47   C     C_R   0.507393 0.426922 0.595241 0.044127
C48   C     C_R   0.490865 0.623422 0.602880 0.066873
C49   C     C_R   0.604401 0.445686 0.647567 0.044262
C50   C     C_R   0.393938 0.609794 0.570657 0.041481
C51   C     C_2   0.034345 0.892847 0.920118 -0.119841
C52   C     C_2   0.127353 0.903555 0.015096 -0.122019
C53   C     C_R   0.406207 0.006771 0.723064 -0.149693
C54   C     C_R   0.595304 0.008378 0.285629 -0.166254
C55   C     C_R   0.411126 0.305262 0.478917 -0.119872
C56   C     C_R   0.493047 0.703599 0.568307 0.079465
C57   C     C_R   0.587525 0.711935 0.587997 -0.140460
C58   C     C_R   0.592052 0.933959 0.798761 -0.116123
C59   C     C_R   0.411079 0.078792 0.206901 -0.117240
C60   C     C_R   0.198626 0.183811 0.531370 -0.151515
C61   C     C_R   0.747576 0.801076 0.411210 -0.145519
C62   C     C_R   0.803454 0.031132 0.685455 -0.185858
C63   C     C_R   0.234709 0.921994 0.301207 -0.168243
C64   C     C_R   0.863575 0.980823 0.775033 0.160325
C65   C     C_R   0.201784 0.940003 0.201793 0.153357
C66   C     C_R   0.986964 0.564934 0.552551 0.195140
C67   C     C_R   0.498669 0.968759 0.812612 0.061998
C68   C     C_R   0.981312 0.547427 0.634929 -0.183267
C69   C     C_R   0.038908 0.581595 0.736476 -0.112285
C70   C     C_R   0.102577 0.633281 0.756656 -0.083980
C71   C     C_R   0.108884 0.650747 0.675340 -0.106359
C72   C     C_R   0.051361 0.616790 0.573585 -0.152411
C73   C     C_R   0.976504 0.405082 0.299019 0.141662
C74   C     C_R   0.982590 0.309054 0.239712 -0.121251
C75   C     C_R   0.004911 0.282903 0.154113 -0.137996
C76   C     C_R   0.015867 0.353932 0.123327 -0.097426
C77   C     C_R   0.006319 0.450806 0.179193 -0.099506
C78   C     C_R   0.506065 0.052602 0.198918 0.057721
C79   C     C_R   0.987570 0.476218 0.266941 -0.193694
C80   C     C_3   0.930035 0.886531 0.379051 -0.413254
C81   C     C_3   0.909505 0.973552 0.329255 -0.899063
C82   C     C_3   0.060585 0.143246 0.776702 -0.407894
C83   C     C_3   0.071650 0.044691 0.703327 -0.940331
C84   C     C_3   0.270780 0.605178 0.339373 -0.390628
C85   C     C_3   0.272995 0.658240 0.269911 -0.927900
C86   C     C_3   0.705726 0.314266 0.820338 -0.388795
C87   C     C_3   0.758702 0.339905 0.936831 -0.889802
C88   C     C_R   0.676844 0.627505 0.897732 -0.117737
H1    H     H_    0.823169 0.889039 0.825905 0.081664
H2    H     H_    0.498487 0.248619 0.201080 0.110231
H3    H     H_    0.801725 0.831312 0.050163 0.113033
H4    H     H_    0.215806 0.222263 0.926350 0.099812
H5    H     H_    0.924144 0.647298 0.025873 0.095816
H6    H     H_    0.097739 0.402217 0.965442 0.100487
H7    H     H_    0.643273 0.885606 0.138302 0.134057
H8    H     H_    0.372798 0.143046 0.878331 0.133907
H9    H     H_    0.788236 0.584030 0.297927 0.157471
H10   H     H_    0.005739 0.361197 0.526409 0.136617
H11   H     H_    0.180782 0.327973 0.394063 0.112603
H12   H     H_    0.222094 0.048313 0.149274 0.084751
H13   H     H_    0.751400 0.649589 0.530970 0.098139
H14   H     H_    0.069562 0.866388 0.584494 0.139068
H15   H     H_    0.933953 0.266116 0.619090 0.123400
H16   H     H_    0.268384 0.756363 0.664639 0.137983
H17   H     H_    0.741656 0.392772 0.565698 0.144220
H18   H     H_    0.058800 0.745491 0.282699 0.131417
H19   H     H_    0.922598 0.190816 0.862902 0.131537
H20   H     H_    0.330107 0.502646 0.547308 0.132699
H21   H     H_    0.668575 0.557538 0.692713 0.137399
H22   H     H_    0.682490 0.210934 0.592396 0.124457
H23   H     H_    0.088069 0.862800 0.106882 0.125654
H24   H     H_    0.319378 0.817114 0.499315 0.125621
H25   H     H_    0.320006 0.035866 0.706322 0.104445
H26   H     H_    0.681483 0.986733 0.307916 0.107410
H27   H     H_    0.326201 0.360976 0.451582 0.090475
H28   H     H_    0.672171 0.669667 0.640001 0.090565
H29   H     H_    0.677901 0.898146 0.852198 0.100886
H30   H     H_    0.326349 0.121295 0.154700 0.099554
H31   H     H_    0.168142 0.153277 0.560003 0.098218
H32   H     H_    0.758468 0.820601 0.356102 0.095623
H33   H     H_    0.835657 0.056952 0.654438 0.117523
H34   H     H_    0.014168 0.009787 0.853873 0.141331
H35   H     H_    0.215516 0.874391 0.322946 0.121863
H36   H     H_    0.175180 0.935905 0.012503 0.131012
H37   H     H_    0.000885 0.842767 0.917693 0.127251
H38   H     H_    0.930596 0.509369 0.620494 0.096699
H39   H     H_    0.033641 0.568538 0.799477 0.107152
H40   H     H_    0.146866 0.659970 0.835283 0.111933
H41   H     H_    0.158133 0.690909 0.691332 0.117085
H42   H     H_    0.056322 0.631424 0.511144 0.111549
H43   H     H_    0.975083 0.252473 0.262517 0.121036
H44   H     H_    0.013938 0.207234 0.111670 0.110563
H45   H     H_    0.845073 0.516244 0.930256 0.104856
H46   H     H_    0.031968 0.333710 0.056295 0.107822
H47   H     H_    0.016006 0.505376 0.155914 0.102836
H48   H     H_    0.986268 0.549636 0.311807 0.119070
H49   H     H_    0.954321 0.021539 0.388270 0.259698
H50   H     H_    0.937758 0.940915 0.266912 0.252630
H51   H     H_    0.819497 0.024215 0.294926 0.249621
H52   H     H_    0.884431 0.839470 0.319302 0.180445
H53   H     H_    0.896173 0.922038 0.437580 0.188796
H54   H     H_    0.025590 0.006622 0.702870 0.255019
H55   H     H_    0.039126 0.062722 0.623589 0.263290
H56   H     H_    0.178837 0.505636 0.121557 0.107766
H57   H     H_    0.160395 0.989923 0.729310 0.257556
H58   H     H_    0.107210 0.178917 0.774119 0.185557
H59   H     H_    0.098422 0.122658 0.856695 0.182607
H60   H     H_    0.188860 0.714849 0.224736 0.249268
H61   H     H_    0.329813 0.697667 0.317107 0.272756
H62   H     H_    0.304526 0.599981 0.214353 0.253992
H63   H     H_    0.356890 0.550375 0.382556 0.202928
H64   H     H_    0.221875 0.558040 0.291563 0.180620
H65   H     H_    0.833419 0.270665 0.973242 0.256699
H66   H     H_    0.780987 0.406083 0.955873 0.264355
H67   H     H_    0.642776 0.569844 0.859272 0.135460
H68   H     H_    0.699916 0.360799 0.968946 0.255823
H69   H     H_    0.619571 0.374075 0.789726 0.199233
H70   H     H_    0.700555 0.238532 0.804598 0.205160
H71   H     H_    0.380782 0.425930 0.241699 0.122345
H72   H     H_    0.518316 0.754557 0.875366 0.107772
N1    N     N_R   0.705410 0.966550 0.689210 -0.045645
N2    N     N_R   0.556610 0.796750 0.548620 -0.041542
N3    N     N_R   0.556610 0.951620 0.703500 -0.041178
N4    N     N_R   0.443390 0.048380 0.296500 -0.039904
N5    N     N_R   0.294590 0.131500 0.522480 -0.042145
N6    N     N_R   0.705410 0.868500 0.477520 -0.044413
N7    N     N_R   0.705410 0.023370 0.632390 -0.043619
N8    N     N_R   0.294590 0.976630 0.367610 -0.041707
N9    N     N_R   0.294590 0.033450 0.310790 -0.042647
N10   N     N_R   0.294590 0.188320 0.465660 -0.047739
N11   N     N_R   0.705410 0.811680 0.534340 -0.047978
N12   N     N_R   0.556610 0.157790 0.497330 -0.041013
N13   N     N_R   0.443390 0.842210 0.502670 -0.041993
N14   N     N_R   0.443390 0.997080 0.657540 -0.037039
N15   N     N_R   0.556610 0.002920 0.342460 -0.036158
N16   N     N_R   0.443390 0.203250 0.451380 -0.039637
Ni1   Ni    Ni4+2 0.629830 0.882720 0.617850 0.212172
Ni2   Ni    Ni4+2 0.370170 0.117280 0.382150 0.220148
Ni3   Ni    Ni4+2 0.629830 0.013030 0.487540 0.207946
Ni4   Ni    Ni4+2 0.370170 0.986970 0.512460 0.211943

loop_
_geom_bond_atom_site_label_1
_geom_bond_atom_site_label_2
_ccdc_geom_bond_type
C66   C68   A    
C63   C65   A    
C42   C80   S    
C22   H10   S    
C9    H5    S    
C29   C42   A    
C28   C52   D    
C73   C74   A    
C14   C18   A    
N7    Ni3   S    
C85   H60   S    
C82   H59   S    
C47   C49   A    
N2    N13   A    
C81   H49   S    
C79   H48   S    
C46   C49   A    
N10   Ni2   S    
C6    C8    A    
C81   H50   S    
C14   C21   A    
C35   C37   A    
C24   C26   D    
C38   C42   A    
C11   H45   S    
C13   H56   S    
C10   H6    S    
C70   H40   S    
C33   C36   A    
C56   C57   A    
N4    N15   A    
C48   C56   S    
C61   N6    A    
C45   C47   S    
C2    C13   A    
C17   H13   S    
C85   H62   S    
N2    Ni1   S    
C62   C64   A    
C59   N4    A    
C83   H57   S    
C66   C72   A    
C57   N2    A    
C53   H25   S    
C2    H71   S    
C41   H24   S    
C30   H15   S    
N3    Ni1   S    
C31   C33   A    
C19   C67   S    
C70   C71   A    
C8    H4    S    
C43   C82   S    
C25   C73   S    
C44   C47   A    
N16   Ni2   S    
C62   N7    A    
C1    N1    A    
N6    N11   A    
C74   H43   S    
C61   H32   S    
C23   C60   A    
C40   C45   A    
C58   N3    A    
C59   C78   A    
C82   H58   S    
C27   H34   S    
C27   C51   D    
C53   N14   A    
C57   H28   S    
C4    H2    S    
C44   H20   S    
C28   H23   S    
C15   C20   A    
C46   C48   A    
C87   H66   S    
C74   C75   A    
C51   C52   S    
C51   H37   S    
C88   H67   S    
C37   C86   S    
C76   C77   A    
C4    C6    A    
C15   H8    S    
C5    C7    A    
C76   H46   S    
C86   C87   S    
C68   C69   A    
C39   C43   A    
N13   Ni4   S    
C25   C26   S    
C80   H52   S    
C22   C25   D    
C34   C61   A    
C24   C34   S    
C24   H9    S    
C26   C66   S    
C54   N15   A    
C38   H18   S    
C15   C19   A    
C75   C76   A    
C32   C35   A    
C41   C56   A    
C35   C49   S    
C71   H41   S    
C9    C11   A    
C63   H35   S    
C11   C88   A    
C18   C78   S    
C7    H3    S    
C83   H55   S    
C87   H65   S    
C14   H7    S    
C73   C79   A    
C77   C79   A    
C84   C85   S    
C86   H70   S    
C45   C55   A    
N1    N7    A    
C84   H64   S    
N12   Ni3   S    
C8    C10   A    
N8    N9    A    
C82   C83   S    
C59   H30   S    
C32   H17   S    
N15   Ni3   S    
C3    H72   S    
C30   C43   A    
C17   C34   A    
N1    Ni1   S    
C1    C64   A    
C68   H38   S    
N9    Ni2   S    
C40   N12   A    
N4    Ni2   S    
C75   H44   S    
C44   C50   A    
N5    N10   A    
C7    C9    A    
C41   N13   A    
C63   N8    A    
C1    H1    S    
C19   C21   A    
C3    C88   A    
C22   C23   S    
N11   Ni1   S    
C80   C81   S    
C3    C5    A    
C10   C13   A    
C39   H19   S    
C83   H54   S    
C40   H22   S    
C17   N11   A    
C16   H11   S    
C72   H42   S    
C12   N9    A    
C16   C23   A    
C6    C20   S    
C12   C65   A    
N14   Ni4   S    
C60   N5    A    
C81   H51   S    
C31   H16   S    
C36   C38   A    
C28   C65   S    
C33   C50   S    
C71   C72   A    
C29   C31   A    
N8    Ni4   S    
C30   C32   A    
C52   H36   S    
C55   H27   S    
C36   C84   S    
C2    C4    A    
C54   H26   S    
C48   C50   A    
C29   H14   S    
C18   C20   A    
C58   H29   S    
C69   C70   A    
C53   C67   A    
C86   H69   S    
C85   H61   S    
C55   N16   A    
C12   H12   S    
C27   C64   S    
C84   H63   S    
C16   N10   A    
C58   C67   A    
C5    C21   S    
C69   H39   S    
C37   C39   A    
C80   H53   S    
C46   H21   S    
N5    Ni4   S    
C87   H68   S    
C60   H31   S    
N6    Ni3   S    
C77   H47   S    
N3    N14   A    
C62   H33   S    
N12   N16   A    
C54   C78   A    
