data_mof_unit_7072.cif
_audit_creation_date              2012-12-10T17:38:48-0500
_audit_creation_method            fapswitch 2.2
_symmetry_space_group_name_H-M    P1
_symmetry_Int_Tables_number       1
_space_group_crystal_system       triclinic
_cell_length_a                    12.31875
_cell_length_b                    13.24494
_cell_length_c                    23.546765
_cell_angle_alpha                 77.566809
_cell_angle_beta                  101.634222
_cell_angle_gamma                 116.838104
_cell_volume                      3323.54742785

loop_
_atom_site_label
_atom_site_type_symbol
_atom_type_description
_atom_site_fract_x
_atom_site_fract_y
_atom_site_fract_z
_atom_type_partial_charge
C1    C     C_R   0.854519 0.287483 0.502319 0.785481
C2    C     C_R   0.818771 0.356752 0.025425 -0.033577
C3    C     C_R   0.822798 0.361720 0.966090 -0.137320
C4    C     C_R   0.922103 0.445000 0.937787 -0.061322
C5    C     C_R   0.020938 0.527183 0.968946 -0.016356
C6    C     C_R   0.119176 0.613686 0.939253 -0.084171
C7    C     C_R   0.217290 0.697195 0.970994 -0.077454
C8    C     C_R   0.220469 0.689065 0.032228 -0.084929
C9    C     C_R   0.923074 0.448167 0.878145 0.577998
C10   C     C_R   0.116839 0.610200 0.879033 0.596476
C11   C     C_R   0.943267 0.564890 0.747270 -0.275032
C12   C     C_R   0.002876 0.504538 0.608743 0.825563
C13   C     C_R   0.940780 0.562853 0.687923 0.417208
C14   C     C_R   0.010139 0.516179 0.670781 -0.193372
C15   C     C_R   0.090525 0.484050 0.713538 -0.432262
C16   C     C_R   0.097015 0.490487 0.772973 0.512241
C17   C     C_R   0.019522 0.527535 0.789652 0.237227
C18   C     C_R   0.928559 0.533837 0.225028 -0.281527
C19   C     C_R   0.917755 0.527096 0.283966 0.421220
C20   C     C_R   0.001505 0.500667 0.328145 -0.185987
C21   C     C_R   0.088828 0.474356 0.311908 -0.374290
C22   C     C_R   0.093932 0.474848 0.252980 0.492024
C23   C     C_R   0.145298 0.713409 0.493475 0.825438
C24   C     C_R   0.015122 0.507207 0.209530 0.239400
C25   C     C_R   0.259684 0.032751 0.453682 0.020359
C26   C     C_R   0.227472 0.835784 0.486853 -0.190851
C27   C     C_R   0.818008 0.085046 0.509677 -0.135362
C28   C     C_R   0.740417 0.970939 0.505686 -0.179625
C29   C     C_R   0.614356 0.935469 0.494611 -0.118666
C30   C     C_R   0.563299 0.015194 0.484929 0.100703
C31   C     C_R   0.643598 0.132179 0.476145 0.066465
C32   C     C_R   0.435179 0.982740 0.480185 -0.053655
C33   C     C_R   0.387337 0.065076 0.454901 -0.015928
C34   C     C_R   0.000080 0.500172 0.390920 0.840691
C35   C     C_R   0.469293 0.175418 0.431296 -0.002233
C36   C     C_R   0.595034 0.208287 0.443888 -0.257636
C37   C     C_R   0.353836 0.871725 0.502325 0.366814
C38   C     C_R   0.180859 0.916835 0.464991 -0.241403
C39   C     C_R   0.771031 0.167294 0.495584 -0.120020
C40   C     C_R   0.321473 0.294897 0.571757 -0.204436
C41   C     C_R   0.765156 0.653268 0.425384 0.067579
C42   C     C_R   0.672384 0.690321 0.411086 -0.262710
C43   C     C_R   0.566511 0.632329 0.438908 -0.204692
C44   C     C_R   0.552574 0.536440 0.481914 0.022246
C45   C     C_R   0.112662 0.598613 0.121406 0.600618
C46   C     C_R   0.651415 0.503291 0.495756 0.262312
C47   C     C_R   0.444674 0.471773 0.511463 -0.030312
C48   C     C_R   0.433431 0.369223 0.549338 0.001086
C49   C     C_R   0.535110 0.344149 0.564899 -0.264759
C50   C     C_R   0.642400 0.412047 0.540365 -0.114378
C51   C     C_R   0.346191 0.502993 0.504257 -0.057367
C52   C     C_R   0.233502 0.337294 0.568139 0.636618
C53   C     C_R   0.928504 0.426441 0.119781 0.513244
C54   C     C_R   0.920828 0.434264 0.058541 -0.089608
C55   C     C_R   0.020770 0.521856 0.029660 -0.005847
C56   C     C_R   0.120217 0.603365 0.061511 -0.099566
Cu1   Cu    Cu3+1 0.098270 0.475410 0.513370 0.985423
Cu2   Cu    Cu3+1 0.901730 0.524590 0.486630 0.940934
H1    H     H_    0.153622 0.453292 0.344791 0.196180
H2    H     H_    0.082653 0.890059 0.459141 0.207149
H3    H     H_    0.915165 0.109162 0.522020 0.215797
H4    H     H_    0.559100 0.846228 0.490586 0.187490
H5    H     H_    0.777637 0.909245 0.511671 0.161465
H6    H     H_    0.745126 0.301781 0.941275 0.221017
H7    H     H_    0.653914 0.290893 0.422681 0.168371
H8    H     H_    0.535956 0.274821 0.598632 0.143573
H9    H     H_    0.347058 0.578522 0.475589 0.163350
H10   H     H_    0.846884 0.698824 0.403524 0.167353
H11   H     H_    0.496742 0.663421 0.425445 0.148169
H12   H     H_    0.682280 0.763807 0.378075 0.173962
H13   H     H_    0.716546 0.389815 0.558177 0.206932
H14   H     H_    0.887279 0.597646 0.760400 0.173837
H15   H     H_    0.147755 0.453260 0.700897 0.178473
H16   H     H_    0.868889 0.559635 0.190887 0.165586
N1    N     N_R   0.019896 0.510199 0.148803 -0.425018
N2    N     N_R   0.019589 0.529179 0.850368 -0.434345
N3    N     N_R   0.246280 0.438190 0.533650 -0.236751
N4    N     N_R   0.754320 0.561190 0.466710 -0.223704
O1    O     O_R   0.972510 0.318130 0.516820 -0.518745
O2    O     O_2   0.847639 0.335073 0.150906 -0.573600
O3    O     O_2   0.828859 0.369780 0.848054 -0.528900
O4    O     O_2   0.211048 0.685069 0.849113 -0.534075
O5    O     O_R   0.806530 0.359650 0.494230 -0.626498
O6    O     O_R   0.082990 0.479200 0.593420 -0.570915
O7    O     O_R   0.917010 0.520720 0.570830 -0.556934
O8    O     O_R   0.193470 0.640350 0.505770 -0.537982
O9    O     O_R   0.027490 0.681870 0.483180 -0.608645
O10   O     O_R   0.082990 0.479280 0.429170 -0.594075
O11   O     O_R   0.917010 0.520800 0.406580 -0.545635
O12   O     O_2   0.194789 0.682439 0.152199 -0.519532
C57   C     C_2   0.702020 0.275577 0.049309 0.458734
H17   H     H_    0.669566 0.297176 0.082421 0.111100
O13   O     O_2   0.638514 0.184590 0.030779 -0.494600
O14   O     O_3   0.832025 0.555650 0.297735 -0.558227
C58   C     C_3   0.713757 0.467282 0.286668 0.078724
H18   H     H_    0.703343 0.388451 0.318142 0.142816
H19   H     H_    0.694428 0.447024 0.241151 0.147641
C59   C     C_3   0.618459 0.504920 0.294167 -0.750491
H20   H     H_    0.629834 0.585867 0.264717 0.257815
H21   H     H_    0.525220 0.438116 0.283178 0.214011
H22   H     H_    0.628492 0.518138 0.340125 0.243989
O15   O     O_3   0.180096 0.449775 0.237083 -0.573973
C60   C     C_3   0.142697 0.330429 0.249100 0.056425
H23   H     H_    0.044096 0.282148 0.232908 0.169023
H24   H     H_    0.158350 0.303623 0.297035 0.188812
C61   C     C_3   0.217867 0.299116 0.218112 -0.660014
H25   H     H_    0.316869 0.345161 0.233078 0.253605
H26   H     H_    0.190997 0.205658 0.228074 0.229685
H27   H     H_    0.201516 0.322800 0.170007 0.231435
C62   C     C_2   0.430235 0.256036 0.388552 0.286557
H28   H     H_    0.480201 0.347116 0.390146 0.075762
O16   O     O_2   0.346013 0.221889 0.349685 -0.550821
C63   C     C_2   0.207372 0.116992 0.446664 0.489296
H29   H     H_    0.265597 0.203746 0.455379 0.050425
O17   O     O_2   0.097825 0.089685 0.432605 -0.554422
O18   O     O_3   0.396738 0.798124 0.539891 -0.590853
C64   C     C_3   0.391571 0.805168 0.598193 0.095528
H30   H     H_    0.297925 0.789385 0.605078 0.122577
H31   H     H_    0.458568 0.890778 0.609885 0.144657
C65   C     C_3   0.424137 0.714396 0.639055 -0.769207
H32   H     H_    0.421427 0.719438 0.685178 0.191183
H33   H     H_    0.357366 0.627996 0.628698 0.250712
H34   H     H_    0.517655 0.727936 0.633937 0.248853
O19   O     O_3   0.128295 0.272984 0.595127 -0.527951
C66   C     C_3   0.158324 0.268890 0.656510 0.094396
H35   H     H_    0.217832 0.355479 0.668768 0.093206
H36   H     H_    0.207644 0.214351 0.674628 0.166468
C67   C     C_3   0.040631 0.217065 0.684922 -0.723477
H37   H     H_    0.985892 0.126915 0.676973 0.249130
H38   H     H_    0.062808 0.219282 0.732880 0.216056
H39   H     H_    0.984997 0.265615 0.666166 0.244434
C68   C     C_2   0.289816 0.170592 0.591941 0.309233
H40   H     H_    0.358885 0.138202 0.602899 0.072087
O20   O     O_2   0.183286 0.100315 0.593592 -0.531496
C69   C     C_2   0.318741 0.794007 0.941617 0.578871
H41   H     H_    0.412388 0.804238 0.954755 0.042973
O21   O     O_2   0.298555 0.866031 0.904918 -0.470534
C70   C     C_2   0.332200 0.767816 0.065555 0.429093
H42   H     H_    0.377170 0.733335 0.103841 0.108003
O22   O     O_2   0.373155 0.871263 0.051184 -0.478138
O23   O     O_3   0.872145 0.609083 0.646983 -0.559722
C71   C     C_3   0.947618 0.726405 0.631960 0.107659
H43   H     H_    0.034452 0.739981 0.617223 0.124734
H44   H     H_    0.969933 0.773090 0.669900 0.152022
C72   C     C_3   0.880327 0.777060 0.581875 -0.751994
H45   H     H_    0.793742 0.766458 0.595087 0.239200
H46   H     H_    0.939308 0.869475 0.570303 0.222864
H47   H     H_    0.858859 0.733681 0.542964 0.258124
O24   O     O_3   0.170037 0.452177 0.816329 -0.565855
C73   C     C_3   0.292616 0.503549 0.803624 0.075452
H48   H     H_    0.322312 0.594932 0.783523 0.157632
H49   H     H_    0.303872 0.455172 0.773806 0.133879
C74   C     C_3   0.376469 0.499782 0.860303 -0.719041
H50   H     H_    0.351575 0.409811 0.881130 0.256339
H51   H     H_    0.473112 0.539070 0.850974 0.197930
H52   H     H_    0.367687 0.547930 0.891029 0.249599

loop_
_geom_bond_atom_site_label_1
_geom_bond_atom_site_label_2
_ccdc_geom_bond_type
C55   C56   A    
C67   H39   S    
C52   O19   S    
C41   C42   A    
Cu1   O1    S    
C35   C36   A    
C50   H13   S    
Cu2   O9    S    
C8    C56   A    
C72   H45   S    
C58   C59   S    
C69   H41   S    
C37   O18   S    
C3    H6    S    
Cu1   O8    S    
C23   O8    A    
C12   O7    A    
C18   C24   A    
C28   C29   A    
C21   H1    S    
C64   H31   S    
C5    C6    A    
C16   C17   A    
C61   H25   S    
Cu2   O5    S    
C15   C16   A    
C42   H12   S    
O18   C64   S    
C12   O6    A    
C8    C70   S    
C18   C19   A    
C23   C26   S    
C62   H28   S    
C27   H3    S    
C29   H4    S    
C10   N2    A    
C58   H18   S    
C45   C56   A    
C27   C39   A    
C68   H40   S    
C73   C74   S    
C17   N2    S    
C16   O24   S    
C9    N2    A    
C13   O23   S    
C74   H51   S    
C65   H34   S    
C20   C34   S    
C40   C68   S    
C43   H11   S    
C23   O9    A    
C13   C14   A    
C67   H37   S    
C71   C72   S    
C53   N1    A    
C72   H46   S    
C44   C46   A    
C41   H10   S    
C71   H43   S    
C49   H8    S    
O15   C60   S    
Cu1   N3    S    
C7    C8    A    
C53   O2    S    
C2    C54   A    
C64   C65   S    
C41   N4    A    
C46   N4    A    
Cu2   N4    S    
C36   H7    S    
C26   C38   A    
C51   H9    S    
C53   C54   A    
C10   O4    S    
C43   C44   A    
C51   N3    A    
C7    C69   S    
C29   C30   A    
C25   C63   S    
C25   C38   A    
C57   O13   D    
C47   C48   A    
C14   C15   A    
C58   H19   S    
Cu1   O6    S    
O14   C58   S    
C60   H24   S    
C34   O10   A    
C32   C37   A    
C20   C21   A    
C74   H52   S    
C45   O12   S    
C35   C62   S    
C19   O14   S    
C70   O22   D    
C38   H2    S    
C68   O20   D    
C48   C49   A    
C15   H15   S    
C12   C14   S    
C49   C50   A    
C59   H21   S    
O23   C71   S    
C66   H35   S    
C1    O1    A    
C69   O21   D    
C73   H49   S    
C42   C43   A    
C52   N3    A    
Cu2   O7    S    
C57   H17   S    
C72   H47   S    
C65   H32   S    
C65   H33   S    
C63   H29   S    
C40   C48   A    
C54   C55   A    
C11   C17   A    
C11   H14   S    
C5    C55   A    
C4    C5    A    
C67   H38   S    
C6    C10   A    
C47   C51   A    
C44   C47   A    
C24   N1    S    
C6    C7    A    
C1    O5    A    
C59   H22   S    
C46   C50   A    
C64   H30   S    
C22   O15   S    
Cu1   O10   S    
C45   N1    A    
C32   C33   A    
C19   C20   A    
C2    C3    A    
C74   H50   S    
C34   O11   A    
C40   C52   A    
O24   C73   S    
C30   C32   A    
C11   C13   A    
Cu1   Cu2   S    
C30   C31   A    
C61   H26   S    
C66   C67   S    
C33   C35   A    
C31   C39   A    
C60   C61   S    
C22   C24   A    
C2    C57   S    
Cu2   O11   S    
C62   O16   D    
C70   H42   S    
C1    C39   S    
C28   H5    S    
C26   C37   A    
C18   H16   S    
C59   H20   S    
C9    O3    S    
C60   H23   S    
C66   H36   S    
C31   C36   A    
O19   C66   S    
C63   O17   D    
C4    C9    A    
C21   C22   A    
C71   H44   S    
C3    C4    A    
C25   C33   A    
C73   H48   S    
C27   C28   A    
C61   H27   S    
