data_mof_unit_63380.cif
_audit_creation_date              2012-12-10T19:37:10-0500
_audit_creation_method            fapswitch 2.2
_symmetry_space_group_name_H-M    P1
_symmetry_Int_Tables_number       1
_space_group_crystal_system       triclinic
_cell_length_a                    14.34816
_cell_length_b                    15.831849
_cell_length_c                    17.130125
_cell_angle_alpha                 96.198293
_cell_angle_beta                  91.218476
_cell_angle_gamma                 91.503269
_cell_volume                      3866.02735698

loop_
_atom_site_label
_atom_site_type_symbol
_atom_type_description
_atom_site_fract_x
_atom_site_fract_y
_atom_site_fract_z
_atom_type_partial_charge
C1    C     C_R   0.501916 0.489416 0.348629 0.849941
C2    C     C_R   0.498084 0.510584 0.651371 0.849941
C3    C     C_R   0.542846 0.408423 0.136175 -0.208506
C4    C     C_R   0.457154 0.591577 0.863825 -0.208506
C5    C     C_R   0.541246 0.411245 0.217758 0.350206
C6    C     C_R   0.458754 0.588756 0.782242 0.350205
C7    C     C_R   0.451914 0.754088 0.463090 0.543032
C8    C     C_R   0.548086 0.245912 0.536910 0.543032
C9    C     C_R   0.455797 0.843009 0.465896 -0.282811
C10   C     C_R   0.544203 0.156990 0.534104 -0.282811
C11   C     C_R   0.519767 0.891383 0.516746 0.327134
C12   C     C_R   0.480233 0.108617 0.483254 0.327134
C13   C     C_R   0.578434 0.847363 0.564050 -0.284418
C14   C     C_R   0.421566 0.152637 0.435950 -0.284418
C15   C     C_R   0.572741 0.757943 0.559708 0.037049
C16   C     C_R   0.427259 0.242057 0.440292 0.037048
C17   C     C_R   0.330955 0.500569 0.499897 0.826960
C18   C     C_R   0.669045 0.499431 0.500103 0.826960
C19   C     C_1   0.228714 0.501565 0.499960 -0.134310
C20   C     C_1   0.771285 0.498435 0.500040 -0.134310
C21   C     C_1   0.143331 0.501361 0.499983 0.025154
C22   C     C_1   0.856669 0.498639 0.500017 0.025154
C23   C     C_1   0.042702 0.500460 0.499996 0.033493
C24   C     C_1   0.957298 0.499540 0.500004 0.033493
C25   C     C_R   0.505932 0.483254 0.262596 -0.129778
C26   C     C_R   0.494068 0.516746 0.737404 -0.129779
C27   C     C_R   0.474412 0.551365 0.224192 -0.257272
C28   C     C_R   0.525588 0.448634 0.775808 -0.257270
C29   C     C_R   0.476365 0.547971 0.142880 -0.145121
C30   C     C_R   0.523634 0.452029 0.857120 -0.145121
C31   C     C_R   0.510628 0.475939 0.098104 0.316423
C32   C     C_R   0.489371 0.524061 0.901896 0.316423
Cu1   Cu    Cu3+1 0.495850 0.415220 0.496180 1.032026
Cu2   Cu    Cu3+1 0.504150 0.584780 0.503820 1.032026
H1    H     H_    0.552680 0.392704 0.742998 0.225534
H2    H     H_    0.447320 0.607295 0.257002 0.225535
H3    H     H_    0.570164 0.353399 0.101906 0.183958
H4    H     H_    0.429837 0.646601 0.898094 0.183959
H5    H     H_    0.628621 0.882189 0.604225 0.170725
H6    H     H_    0.371379 0.117811 0.395775 0.170725
N1    N     N_2   0.514666 0.468642 0.015052 -0.233555
N2    N     N_2   0.485333 0.531358 0.984948 -0.233555
N3    N     N_R   0.510380 0.712130 0.509560 -0.191413
N4    N     N_R   0.489620 0.287870 0.490440 -0.191413
N5    N     N_2   0.527245 0.982716 0.522204 -0.209850
N6    N     N_2   0.472755 0.017284 0.477796 -0.209850
O1    O     O_R   0.496120 0.420530 0.382500 -0.539955
O2    O     O_R   0.503880 0.579470 0.617500 -0.539956
O3    O     O_R   0.503120 0.563720 0.388950 -0.552121
O4    O     O_R   0.496880 0.436280 0.611050 -0.552121
O5    O     O_R   0.372550 0.428390 0.496770 -0.591870
O6    O     O_R   0.627450 0.571610 0.503230 -0.591870
O7    O     O_R   0.379550 0.571580 0.503220 -0.498097
O8    O     O_R   0.620450 0.428420 0.496780 -0.498096
H7    H     H_    0.549010 0.398283 0.884513 0.178301
H8    H     H_    0.450989 0.601716 0.115487 0.178302
Cl1   Cl    Cl    0.588747 0.324680 0.260114 -0.577944
Cl2   Cl    Cl    0.411253 0.675320 0.739886 -0.577944
Cl3   Cl    Cl    0.631178 0.300088 0.601978 -0.614160
Cl4   Cl    Cl    0.368822 0.699912 0.398022 -0.614160
H9    H     H_    0.591350 0.126420 0.571693 0.195439
H10   H     H_    0.408650 0.873580 0.428307 0.195439
H11   H     H_    0.618529 0.725245 0.596610 0.155807
H12   H     H_    0.381471 0.274755 0.403390 0.155807

loop_
_geom_bond_atom_site_label_1
_geom_bond_atom_site_label_2
_ccdc_geom_bond_type
C3    C31   A    
C23   C24   T    
C16   N4    A    
C29   H8    S    
C7    N3    A    
C27   H2    S    
Cu1   O5    S    
C2    O4    A    
N1    N2    D    
C6    Cl2   S    
Cu2   O6    S    
C5    Cl1   S    
C17   O5    A    
C28   C30   A    
Cu1   Cu2   S    
C12   C14   A    
C18   O6    A    
C29   C31   A    
C4    C32   A    
N5    N6    D    
C1    C25   S    
C9    C11   A    
C6    C26   A    
C10   C12   A    
C11   N5    S    
C5    C25   A    
C22   C24   S    
C8    C10   A    
C26   C28   A    
C19   C21   T    
C20   C22   T    
C18   C20   S    
C13   C15   A    
C8    Cl3   S    
C16   H12   S    
Cu1   O1    S    
C14   C16   A    
C13   H5    S    
C10   H9    S    
C25   C27   A    
C18   O8    A    
C15   N3    A    
C9    H10   S    
C30   C32   A    
C17   C19   S    
C17   O7    A    
C7    Cl4   S    
C11   C13   A    
Cu2   O2    S    
C27   C29   A    
C3    H3    S    
Cu2   O7    S    
C2    C26   S    
C4    C6    A    
C30   H7    S    
Cu1   O8    S    
C7    C9    A    
C15   H11   S    
C1    O1    A    
Cu2   O3    S    
C32   N2    S    
C31   N1    S    
C2    O2    A    
Cu1   O4    S    
Cu1   N4    S    
C14   H6    S    
C21   C23   S    
Cu2   N3    S    
C8    N4    A    
C28   H1    S    
C4    H4    S    
C3    C5    A    
C12   N6    S    
C1    O3    A    
