data_mof_unit_39289.cif
_audit_creation_date              2013-03-05T15:43:52-0500
_audit_creation_method            fapswitch 2.2
_symmetry_space_group_name_H-M    P1
_symmetry_Int_Tables_number       1
_space_group_crystal_system       triclinic
_cell_length_a                    13.489496
_cell_length_b                    13.487408
_cell_length_c                    27.503453
_cell_angle_alpha                 90.658789
_cell_angle_beta                  89.882763
_cell_angle_gamma                 59.995088
_cell_volume                      4332.85608831

loop_
_atom_site_label
_atom_site_type_symbol
_atom_site_description
_atom_site_fract_x
_atom_site_fract_y
_atom_site_fract_z
_atom_type_partial_charge
O1    O     O_R   0.301710 0.195650 0.554160 -0.487706
O2    O     O_R   0.522390 0.158990 0.550460 -0.492851
C1    C     C_R   0.619572 0.101071 0.570524 0.553053
O3    O     O_R   0.694390 0.003530 0.554040 -0.489669
O4    O     O_R   0.657700 0.819660 0.549320 -0.496920
C2    C     C_R   0.599513 0.779584 0.568675 0.546121
O5    O     O_R   0.501930 0.803280 0.552920 -0.482224
O6    O     O_R   0.318170 0.023580 0.549580 -0.476448
C3    C     C_R   0.278438 0.121615 0.569887 0.560321
O7    O     O_R   0.303010 0.193990 0.446760 -0.526121
O8    O     O_R   0.523600 0.157450 0.450900 -0.501434
C4    C     C_R   0.622505 0.099345 0.431192 0.549307
O9    O     O_R   0.695690 0.001860 0.446640 -0.511180
O10   O     O_R   0.658900 0.818120 0.449760 -0.502676
C5    C     C_R   0.602892 0.774828 0.430683 0.542544
O11   O     O_R   0.503220 0.801620 0.445520 -0.514554
O12   O     O_R   0.319370 0.022040 0.450020 -0.447457
C6    C     C_R   0.276302 0.121713 0.431320 0.587613
Cr1   Cr    Cr6+3 0.417550 0.169090 0.500530 1.068950
Cr2   Cr    Cr6+3 0.669180 0.913420 0.499920 1.062614
Cr3   Cr    Cr6+3 0.413260 0.917540 0.499520 1.108920
O13   O     O_3   0.499990 0.000010 0.499990 -0.279122
C7    C     C_3   0.737410 0.574333 0.735815 0.208188
C8    C     C_3   0.778695 0.634052 0.771820 -0.097160
H1    H     H_    0.868607 0.602281 0.782853 0.181382
H2    H     H_    0.721971 0.815178 0.736860 0.131712
C9    C     C_1   0.697406 0.608192 0.900388 0.007074
C10   C     C_1   0.629945 0.733507 0.616369 0.052572
C11   C     C_3   0.639842 0.591680 0.770468 -0.084914
C12   C     C_3   0.678642 0.655254 0.806012 -0.023755
C13   C     C_3   0.562919 0.707257 0.745929 0.210104
C14   C     C_3   0.659561 0.687452 0.710783 0.024084
C15   C     C_3   0.598705 0.771196 0.782160 -0.120784
C16   C     C_3   0.698184 0.750205 0.746859 -0.174565
C17   C     C_1   0.688330 0.634171 0.858262 -0.028972
C18   C     C_1   0.647042 0.707652 0.658465 0.050401
H3    H     H_    0.540058 0.852729 0.801496 0.124898
H4    H     H_    0.615575 0.526823 0.780062 0.138841
C19   C     C_3   0.103984 0.130236 0.740578 0.016642
C20   C     C_3   0.195306 0.055291 0.778141 -0.116685
H5    H     H_    0.210358 0.972129 0.792170 0.178792
H6    H     H_    0.373609 0.009721 0.741913 0.139507
C21   C     C_1   0.102759 0.198380 0.903139 0.000686
C22   C     C_1   0.235086 0.136069 0.618519 0.073894
C23   C     C_3   0.066895 0.238603 0.772432 -0.091360
C24   C     C_3   0.160091 0.163785 0.809280 -0.019974
C25   C     C_3   0.157069 0.256630 0.745964 0.238957
C26   C     C_3   0.191696 0.150951 0.713743 0.052147
C27   C     C_3   0.249123 0.184951 0.783359 -0.119555
C28   C     C_3   0.284361 0.076523 0.751042 -0.148307
C29   C     C_1   0.134618 0.177569 0.861443 -0.034141
C30   C     C_1   0.211390 0.143858 0.661117 0.084702
H7    H     H_    0.308333 0.208669 0.801127 0.128534
H8    H     H_    0.977875 0.306051 0.781490 0.155331
C31   C     C_3   0.623816 0.273483 0.741383 -0.060049
C32   C     C_3   0.547177 0.259122 0.779496 -0.099735
H9    H     H_    0.464263 0.328505 0.794169 0.142946
H10   H     H_    0.604052 0.354891 0.723739 0.167337
H11   H     H_    0.496616 0.130197 0.742897 0.110411
C33   C     C_1   0.688599 0.206353 0.903810 -0.004553
C34   C     C_1   0.632057 0.131813 0.619362 0.023497
C35   C     C_3   0.730639 0.198364 0.772411 -0.082478
C36   C     C_3   0.654033 0.183686 0.809748 0.033814
C37   C     C_3   0.748401 0.089539 0.745185 -0.096037
C38   C     C_3   0.641919 0.164838 0.714814 0.053327
C39   C     C_3   0.671877 0.075101 0.783165 -0.113448
C40   C     C_3   0.564947 0.150163 0.752016 -0.110300
C41   C     C_1   0.668649 0.194729 0.862041 -0.047335
C42   C     C_1   0.637469 0.150083 0.662045 -0.011595
H12   H     H_    0.691201 0.993762 0.800770 0.116951
H13   H     H_    0.830549 0.019186 0.730406 0.135443
H14   H     H_    0.798291 0.219152 0.781723 0.130037
C43   C     C_R   0.736704 0.707499 0.359931 -0.119408
C44   C     C_R   0.749915 0.686768 0.309770 -0.014510
C45   C     C_R   0.760988 0.670046 0.206950 -0.057480
C46   C     C_R   0.851182 0.670624 0.233886 -0.011396
C47   C     C_R   0.841552 0.683795 0.284749 -0.086900
C48   C     C_R   0.756566 0.670064 0.155072 -0.018868
H15   H     H_    0.794793 0.727466 0.379168 0.142074
H16   H     H_    0.908034 0.687759 0.305295 0.193787
C49   C     C_R   0.680636 0.640390 0.132528 0.027953
C50   C     C_R   0.569435 0.684323 0.359660 -0.127075
C51   C     C_R   0.578753 0.668405 0.309673 0.009330
C52   C     C_R   0.667705 0.672652 0.284209 0.064739
C53   C     C_R   0.495122 0.656988 0.284600 -0.127058
C54   C     C_R   0.496394 0.654703 0.234311 -0.120685
C55   C     C_R   0.583845 0.659293 0.208747 0.004801
C56   C     C_R   0.671666 0.666520 0.233256 0.044851
C57   C     C_R   0.588192 0.648252 0.158979 -0.148177
C58   C     C_R   0.641981 0.713700 0.384200 0.002546
H17   H     H_    0.523635 0.635166 0.141384 0.137902
H18   H     H_    0.429489 0.648201 0.215334 0.129725
H19   H     H_    0.427030 0.653015 0.303829 0.141944
H20   H     H_    0.497762 0.686161 0.378488 0.137596
C59   C     C_R   0.179227 0.076824 0.361936 -0.025827
C60   C     C_R   0.172689 0.077270 0.310159 -0.051466
C61   C     C_R   0.140413 0.097358 0.208299 -0.005466
C62   C     C_R   0.148444 0.002878 0.232196 -0.090754
C63   C     C_R   0.170028 0.988534 0.282317 -0.000226
C64   C     C_R   0.115296 0.112807 0.158682 -0.128955
H21   H     H_    0.096270 0.053994 0.139236 0.128145
H22   H     H_    0.142665 0.937508 0.211125 0.160629
C65   C     C_R   0.106473 0.208703 0.135109 0.004422
C66   C     C_R   0.208487 0.240623 0.359092 -0.114806
C67   C     C_R   0.181477 0.255998 0.310280 -0.008691
C68   C     C_R   0.170434 0.170256 0.284954 0.008927
C69   C     C_R   0.175887 0.350125 0.285440 0.211638
C70   C     C_R   0.167262 0.353464 0.235036 -0.112963
C71   C     C_R   0.155098 0.270339 0.209615 -0.033554
C72   C     C_R   0.156043 0.178764 0.234322 0.054061
C73   C     C_R   0.133747 0.282677 0.160063 -0.126360
C74   C     C_R   0.215112 0.148134 0.384578 0.014637
H23   H     H_    0.128497 0.356173 0.141961 0.132919
H24   H     H_    0.164713 0.424301 0.215786 0.160492
H25   H     H_    0.232478 0.297501 0.376690 0.196291
C75   C     C_R   0.568371 0.238114 0.363386 -0.129360
C76   C     C_R   0.574494 0.256256 0.313730 0.005340
C77   C     C_R   0.583319 0.287088 0.213156 0.006764
C78   C     C_R   0.504276 0.377606 0.242913 -0.109146
C79   C     C_R   0.499593 0.362135 0.292882 -0.099958
C80   C     C_R   0.594813 0.303344 0.163734 -0.133446
H26   H     H_    0.544983 0.387948 0.148446 0.125322
H27   H     H_    0.502390 0.305149 0.385974 0.136333
H28   H     H_    0.446468 0.460269 0.227582 0.134931
H29   H     H_    0.438175 0.433066 0.315288 0.163931
C81   C     C_R   0.678364 0.212549 0.135327 -0.000662
C82   C     C_R   0.729504 0.044373 0.354063 -0.123738
C83   C     C_R   0.733249 0.059321 0.304519 -0.000117
C84   C     C_R   0.654878 0.165186 0.284033 0.061251
C85   C     C_R   0.811564 0.968289 0.274988 -0.109367
C86   C     C_R   0.811633 0.981509 0.225001 -0.117451
C87   C     C_R   0.735605 0.086943 0.204341 0.002278
C88   C     C_R   0.657229 0.179619 0.233784 0.063101
C89   C     C_R   0.742022 0.102990 0.155057 -0.123872
C90   C     C_R   0.643841 0.131021 0.383282 0.001282
H30   H     H_    0.804874 0.031995 0.132969 0.138538
H31   H     H_    0.873073 0.910381 0.202659 0.144449
H32   H     H_    0.872220 0.886827 0.290540 0.157624
H33   H     H_    0.788190 0.961262 0.369010 0.141471
O14   O     O_R   0.818720 0.150820 0.967160 -0.500328
O15   O     O_R   0.006410 0.181720 0.970200 -0.495945
C91   C     C_R   0.050435 0.235595 0.950149 0.542552
O16   O     O_R   0.027890 0.334070 0.964920 -0.500173
O17   O     O_R   0.809600 0.521790 0.967960 -0.482330
C92   C     C_R   0.711616 0.563099 0.948293 0.554115
O18   O     O_R   0.635520 0.542770 0.964420 -0.503389
O19   O     O_R   0.665950 0.325030 0.970100 -0.493616
C93   C     C_R   0.721882 0.225219 0.951054 0.548167
O20   O     O_R   0.816620 0.158530 0.074540 -0.515768
O21   O     O_R   0.004460 0.188870 0.069750 -0.503054
C94   C     C_R   0.048272 0.244883 0.088387 0.541491
O22   O     O_R   0.025800 0.341780 0.072300 -0.515927
O23   O     O_R   0.807650 0.528950 0.067500 -0.446860
C95   C     C_R   0.706560 0.576931 0.086021 0.589305
O24   O     O_R   0.633420 0.550490 0.071810 -0.537243
O25   O     O_R   0.664000 0.332180 0.069640 -0.503000
C96   C     C_R   0.718137 0.234038 0.089293 0.548512
Cr4   Cr    Cr6+3 0.909170 0.177380 0.020380 1.036808
Cr5   Cr    Cr6+3 0.912710 0.429210 0.018220 1.081569
Cr6   Cr    Cr6+3 0.657170 0.432570 0.019030 1.035027
O26   O     O_3   0.826350 0.346390 0.019210 -0.261748
N1    N     N_R   0.136017 0.367937 0.729739 0.106127
O27   O     O_R   0.105635 0.451134 0.761162 -0.334412
O28   O     O_R   0.150531 0.384049 0.684368 -0.281993
C97   C     C_2   0.808390 0.725147 0.125514 0.210262
H34   H     H_    0.843854 0.772638 0.143053 0.101813
O29   O     O_2   0.804998 0.725857 0.081171 -0.491464
N2    N     N_R   0.813267 0.468169 0.709752 0.080586
O30   O     O_R   0.800167 0.379495 0.713991 -0.375515
O31   O     O_R   0.891995 0.462997 0.680758 -0.259785
C98   C     C_2   0.962066 0.643631 0.211281 0.195763
H35   H     H_    0.990108 0.595127 0.177407 0.098418
O32   O     O_2   0.024365 0.673735 0.230601 -0.455279
C99   C     C_2   0.124902 0.024459 0.391732 0.224993
H36   H     H_    0.078121 0.988042 0.374380 0.122211
O33   O     O_2   0.123424 0.028843 0.436089 -0.467975
C100  C     C_2   0.204398 0.874335 0.302709 0.197406
H37   H     H_    0.255205 0.846060 0.335475 0.103719
O34   O     O_2   0.178223 0.809470 0.282669 -0.466760
N3    N     N_R   0.174226 0.444934 0.310782 0.069223
O35   O     O_R   0.107196 0.491367 0.348378 -0.346004
O36   O     O_R   0.221160 0.498823 0.291010 -0.312510
N4    N     N_R   0.444166 0.747300 0.733105 0.076868
O37   O     O_R   0.372240 0.754232 0.766353 -0.343872
O38   O     O_R   0.409151 0.776628 0.688808 -0.321054
C101  C     C_2   0.022980 0.097809 0.718371 0.300904
H38   H     H_    0.974486 0.073349 0.741761 0.078344
O39   O     O_2   0.012074 0.097431 0.674361 -0.440045

loop_
_geom_bond_atom_site_label_1
_geom_bond_atom_site_label_2
_geom_bond_distance
_ccdc_geom_bond_type
C31   C32   1.551004 S    
C60   C63   1.429000 A    
C97   H34   1.082671 S    
C50   H20   1.084994 S    
C75   H27   1.084246 S    
C69   N3    1.439522 S    
C43   C44   1.397693 A    
C59   C60   1.426842 A    
C55   C56   1.408755 A    
C83   C84   1.408923 A    
O14   C93   1.269311 A    
C61   C62   1.396066 A    
C25   C27   1.536820 S    
C75   C90   1.404262 A    
C78   H28   1.082373 S    
C70   C71   1.392529 A    
C20   C24   1.540999 S    
C98   O32   1.221310 D    
C24   C27   1.541499 S    
O8    Cr1   1.922713 S    
C35   C36   1.538345 S    
C12   C17   1.461516 S    
C14   C18   1.461919 S    
O25   C96   1.276283 A    
C59   C99   1.495280 S    
C6    C74   1.477039 S    
C43   C58   1.404833 A    
C63   C100  1.486140 S    
C59   C74   1.414311 A    
N4    O38   1.300163 A    
C92   O18   1.268087 A    
O4    C2    1.273116 A    
C20   C28   1.557538 S    
N2    O31   1.299915 A    
C81   C96   1.461518 S    
O18   Cr6   2.041888 S    
C5    O11   1.270147 A    
C62   C63   1.404949 A    
C31   C35   1.547889 S    
H11   C40   1.110264 S    
C32   H9    1.110050 S    
C65   C73   1.397958 A    
C37   H13   1.109600 S    
C70   H24   1.083117 S    
C77   C78   1.403113 A    
C35   C37   1.547482 S    
Cr4   O26   1.974870 S    
O14   Cr4   2.047421 S    
C99   H36   1.083078 S    
C19   C101  1.494287 S    
C53   H19   1.083578 S    
H2    C16   1.110370 S    
C2    C10   1.428713 S    
O19   C93   1.273658 A    
O6    C3    1.272998 A    
C38   C40   1.539501 S    
C4    C90   1.461519 S    
C11   H4    1.110563 S    
C7    C8    1.540144 S    
C13   C15   1.538904 S    
C82   C83   1.384247 A    
C57   H17   1.084970 S    
C76   C84   1.411673 A    
O20   Cr4   2.039779 S    
O9    Cr2   2.040283 S    
C65   C94   1.463269 S    
C19   C23   1.546449 S    
C49   C57   1.399234 A    
C22   C30   1.203283 T    
C23   C25   1.537838 S    
C39   C40   1.550470 S    
O2    Cr1   1.929769 S    
C36   C39   1.536045 S    
C97   O29   1.220500 D    
Cr3   O13   1.976719 S    
C25   N1    1.457057 S    
C82   H33   1.084720 S    
O19   Cr6   1.926520 S    
C81   C89   1.402358 A    
C66   C67   1.382335 A    
C31   C38   1.535458 S    
N3    O36   1.301037 A    
C15   C16   1.559473 S    
N1    O28   1.300193 A    
C1    C34   1.436108 S    
O1    Cr1   2.040669 S    
C25   C26   1.529202 S    
O10   Cr2   1.926876 S    
O25   Cr6   1.923128 S    
Cr1   O13   1.974876 S    
O1    C3    1.267126 A    
C8    H1    1.109711 S    
C76   C79   1.402518 A    
C19   C20   1.546097 S    
O4    Cr2   1.924484 S    
C54   C55   1.400163 A    
C87   C88   1.409756 A    
C89   H30   1.085039 S    
C9    C17   1.202977 T    
C53   C54   1.383004 A    
C48   C97   1.494167 S    
C24   C29   1.462480 S    
C44   C47   1.396229 A    
C64   C65   1.404650 A    
C8    C16   1.559224 S    
C49   C95   1.471260 S    
C77   C80   1.399907 A    
C37   C39   1.547876 S    
O23   Cr5   1.923175 S    
C46   C98   1.484176 S    
C45   C46   1.429062 A    
N4    O37   1.299985 A    
C11   C12   1.548059 S    
C86   H31   1.083494 S    
C66   H25   1.080691 S    
C67   C69   1.417239 A    
C45   C56   1.425505 A    
C51   C52   1.414145 A    
O7    Cr1   2.046682 S    
C9    C92   1.430198 S    
Cr5   O26   1.976778 S    
O6    Cr3   1.923320 S    
C43   H15   1.084413 S    
C32   C36   1.537152 S    
C35   H14   1.110060 S    
C73   H23   1.084802 S    
C46   C47   1.405652 A    
O17   Cr5   1.927465 S    
C98   H35   1.084461 S    
C95   O24   1.266350 A    
C80   H26   1.084321 S    
C77   C88   1.411656 A    
H6    C28   1.110367 S    
C84   C88   1.400393 A    
N2    O30   1.299888 A    
C51   C53   1.395155 A    
Cr2   O13   1.976583 S    
C23   H8    1.110230 S    
C100  H37   1.084570 S    
C55   C57   1.373117 A    
C8    C12   1.546075 S    
C69   C70   1.390781 A    
C101  O39   1.219882 D    
C1    O3    1.269392 A    
C85   H32   1.082922 S    
C7    C11   1.541771 S    
C61   C64   1.399398 A    
N3    O35   1.301509 A    
C66   C74   1.401537 A    
N1    O27   1.300119 A    
C68   C72   1.404471 A    
C47   H16   1.084336 S    
C34   C42   1.206612 T    
C60   C68   1.426995 A    
C36   C41   1.468040 S    
C20   H5    1.109375 S    
C3    C22   1.430310 S    
O21   Cr4   1.929142 S    
C12   C15   1.542230 S    
C13   N4    1.457268 S    
O24   Cr6   2.043219 S    
O10   C5    1.273901 A    
C13   C14   1.531626 S    
C52   C56   1.402194 A    
C44   C52   1.404123 A    
O17   C92   1.274108 A    
C83   C85   1.399818 A    
C78   C79   1.398443 A    
O11   Cr3   2.040705 S    
O16   Cr5   2.040344 S    
C2    O5    1.267848 A    
C32   C40   1.552325 S    
C67   C68   1.413823 A    
C50   C58   1.398053 A    
O12   C6    1.282685 A    
C33   C41   1.206670 T    
Cr6   O26   1.976469 S    
C71   C73   1.388119 A    
O2    C1    1.273565 A    
C101  H38   1.081481 S    
C80   C81   1.405086 A    
C11   C13   1.539963 S    
C62   H22   1.084643 S    
O15   C91   1.274471 A    
C7    C14   1.526169 S    
C5    C58   1.459591 S    
O5    Cr3   2.044085 S    
C61   C72   1.405796 A    
C48   C49   1.414434 A    
C21   C29   1.203551 T    
C39   H12   1.110246 S    
O7    C6    1.266012 A    
C38   C42   1.468046 S    
C75   C76   1.399747 A    
C37   C38   1.535518 S    
C26   C28   1.548050 S    
C64   H21   1.084221 S    
C79   H29   1.083067 S    
C100  O34   1.221689 D    
C15   H3    1.110275 S    
C85   C86   1.388412 A    
C82   C90   1.403866 A    
C45   C48   1.428187 A    
C99   O33   1.220382 D    
O22   Cr5   2.044629 S    
C27   H7    1.110249 S    
C7    N2    1.455737 S    
O3    Cr2   2.045030 S    
C23   C24   1.544597 S    
O15   Cr4   1.923541 S    
C26   C30   1.464433 S    
C4    O9    1.265002 A    
C10   C18   1.202182 T    
C87   C89   1.384439 A    
C27   C28   1.558120 S    
C31   H10   1.110005 S    
C91   O16   1.266756 A    
O21   C94   1.273430 A    
C21   C91   1.431377 S    
C54   H18   1.083802 S    
C33   C93   1.436570 S    
C50   C51   1.384761 A    
O23   C95   1.282489 A    
C71   C72   1.411031 A    
O20   C96   1.265630 A    
C94   O22   1.270132 A    
C86   C87   1.399714 A    
O8    C4    1.276539 A    
C14   C16   1.547943 S    
C19   C26   1.534443 S    
O12   Cr3   1.926109 S    
