data_mof_unit_59255.cif
_audit_creation_date              2012-12-10T18:58:46-0500
_audit_creation_method            fapswitch 2.2
_symmetry_space_group_name_H-M    P1
_symmetry_Int_Tables_number       1
_space_group_crystal_system       triclinic
_cell_length_a                    13.004515
_cell_length_b                    10.836859
_cell_length_c                    9.545033
_cell_angle_alpha                 90.462767
_cell_angle_beta                  95.978597
_cell_angle_gamma                 90.238216
_cell_volume                      1337.78627059

loop_
_atom_site_label
_atom_site_type_symbol
_atom_type_description
_atom_site_fract_x
_atom_site_fract_y
_atom_site_fract_z
_atom_type_partial_charge
C1    C     C_R   0.497559 0.262398 0.499080 0.800956
C2    C     C_R   0.027947 0.498245 0.567591 0.177023
C3    C     C_R   0.972118 0.496488 0.432464 0.176479
C4    C     C_R   0.864735 0.495827 0.420280 -0.267895
C5    C     C_R   0.868079 0.498570 0.675259 -0.200921
C6    C     C_R   0.975541 0.498851 0.688393 -0.216083
C7    C     C_R   0.478462 0.065168 0.620479 0.126725
C8    C     C_R   0.486415 0.129471 0.496135 -0.099105
C9    C     C_R   0.479788 0.063364 0.368190 -0.217178
C10   C     C_R   0.480455 0.934650 0.368995 -0.215780
C11   C     C_R   0.487812 0.871073 0.497744 -0.099471
C12   C     C_R   0.300536 0.499689 0.473848 0.804892
C13   C     C_R   0.479204 0.938113 0.621486 0.133190
C14   C     C_3   0.543755 0.935459 0.760327 -0.489957
C15   C     C_3   0.542327 0.075313 0.759240 -0.452706
C16   C     C_R   0.587847 0.528473 0.086449 0.261765
C17   C     C_R   0.416620 0.459109 0.062173 -0.089990
C18   C     C_R   0.416594 0.459142 0.913472 -0.084119
C19   C     C_R   0.588141 0.527507 0.939119 0.255753
C20   C     C_3   0.648230 0.644914 0.942767 -0.515395
C21   C     C_3   0.646983 0.646711 0.101515 -0.496762
C22   C     C_R   0.498237 0.737821 0.500009 0.803245
C23   C     C_R   0.699472 0.499315 0.526151 0.806038
C24   C     C_R   0.812253 0.497908 0.541224 -0.050540
C25   C     C_R   0.187779 0.498752 0.458793 -0.049204
C26   C     C_R   0.024503 0.495706 0.311629 -0.216481
C27   C     C_R   0.131975 0.496901 0.324720 -0.196436
C28   C     C_R   0.135334 0.499316 0.579805 -0.266842
Cu1   Cu    Cu3+1 0.499990 0.499980 0.640670 0.939837
Cu2   Cu    Cu3+1 0.500010 0.500020 0.359330 0.939099
H1    H     H_    0.822328 0.493615 0.316384 0.145479
H2    H     H_    0.622051 0.896873 0.752270 0.197592
H3    H     H_    0.619610 0.117412 0.751106 0.200365
H4    H     H_    0.348574 0.427357 0.107445 0.137179
H5    H     H_    0.348501 0.427250 0.848580 0.138471
H6    H     H_    0.726777 0.632016 0.909343 0.188847
H7    H     H_    0.603176 0.720387 0.889631 0.215255
H8    H     H_    0.724979 0.635265 0.159140 0.190076
H9    H     H_    0.601027 0.723893 0.139947 0.212042
H10   H     H_    0.828898 0.498764 0.769867 0.148460
H11   H     H_    0.982472 0.494385 0.207410 0.130468
H12   H     H_    0.017537 0.499717 0.792630 0.130221
H13   H     H_    0.171229 0.496335 0.230061 0.148791
H14   H     H_    0.177802 0.500707 0.683790 0.145298
H15   H     H_    0.480454 0.885782 0.269570 0.162309
H16   H     H_    0.500793 0.896148 0.844460 0.197263
N1    N     N_R   0.500660 0.500930 0.148010 -0.185047
N2    N     N_R   0.500660 0.500890 0.852110 -0.183584
O1    O     O_R   0.500000 0.319640 0.618810 -0.579342
O2    O     O_R   0.500010 0.319680 0.381230 -0.584435
O3    O     O_R   0.348990 0.499960 0.599490 -0.593167
O4    O     O_R   0.349000 0.500000 0.361910 -0.593874
O5    O     O_R   0.499990 0.680320 0.618770 -0.575610
O6    O     O_R   0.500000 0.680360 0.381190 -0.584086
O7    O     O_R   0.651000 0.500000 0.638090 -0.587765
O8    O     O_R   0.651010 0.500040 0.400510 -0.584835
H17   H     H_    0.498362 0.115997 0.842017 0.197711
H18   H     H_    0.479594 0.110368 0.268450 0.165780

loop_
_geom_bond_atom_site_label_1
_geom_bond_atom_site_label_2
_ccdc_geom_bond_type
C17   H4    S    
C23   C24   S    
C23   O7    A    
C16   C21   S    
C25   C27   A    
C1    C8    S    
Cu2   O6    S    
C9    C10   A    
C11   C22   S    
C19   C20   S    
C21   H9    S    
C7    C13   A    
C12   C25   S    
C18   N2    A    
C10   H15   S    
C7    C15   S    
C17   C18   A    
Cu2   O2    S    
C7    C8    A    
C22   O6    A    
Cu1   O1    S    
C13   C14   S    
C6    H12   S    
C25   C28   A    
C20   H7    S    
C15   H17   S    
C23   O8    A    
C26   C27   A    
Cu1   Cu2   S    
C5    C24   A    
Cu1   O5    S    
C16   C19   A    
C16   N1    A    
C12   O4    A    
C28   H14   S    
C2    C3    A    
C22   O5    A    
Cu1   O3    S    
C5    C6    A    
C4    C24   A    
C4    H1    S    
C10   C11   A    
C26   H11   S    
Cu1   N2    S    
C3    C4    A    
C20   H6    S    
C27   H13   S    
Cu2   N1    S    
C11   C13   A    
C12   O3    A    
C20   C21   S    
C18   H5    S    
C14   H16   S    
C9    H18   S    
C1    O2    A    
C5    H10   S    
Cu2   O4    S    
C14   C15   S    
C2    C28   A    
Cu1   O7    S    
C19   N2    A    
Cu2   O8    S    
C15   H3    S    
C3    C26   A    
C21   H8    S    
C2    C6    A    
C17   N1    A    
C14   H2    S    
C8    C9    A    
C1    O1    A    
