data_mof_unit_37562.cif
_audit_creation_date              2012-12-11T16:24:23-0500
_audit_creation_method            fapswitch 2.2
_symmetry_space_group_name_H-M    P1
_symmetry_Int_Tables_number       1
_space_group_crystal_system       triclinic
_cell_length_a                    14.749707
_cell_length_b                    14.77059
_cell_length_c                    33.258012
_cell_angle_alpha                 96.038479
_cell_angle_beta                  96.184423
_cell_angle_gamma                 61.2277
_cell_volume                      6302.29860022

loop_
_atom_site_label
_atom_site_type_symbol
_atom_type_description
_atom_site_fract_x
_atom_site_fract_y
_atom_site_fract_z
_atom_type_partial_charge
C1    C     C_R   0.390892 0.699794 0.446126 0.569158
C2    C     C_1   0.316093 0.340328 0.229014 0.024219
C3    C     C_1   0.320887 0.344718 0.265362 0.008410
C4    C     C_R   0.405862 0.386375 0.434000 0.542457
C5    C     C_R   0.291569 0.294662 0.101676 -0.003758
C6    C     C_R   0.755371 0.373759 0.409872 0.021868
C7    C     C_R   0.787438 0.436052 0.393016 -0.126378
C8    C     C_R   0.815147 0.415986 0.353091 -0.116297
C9    C     C_R   0.811565 0.333128 0.329381 0.034233
C10   C     C_R   0.789065 0.265098 0.347408 -0.110499
C11   C     C_R   0.761115 0.285292 0.387384 -0.123153
C12   C     C_R   0.330715 0.348145 0.308653 0.037674
C13   C     C_R   0.829032 0.314020 0.203874 0.349430
C14   C     C_R   0.821777 0.323953 0.285416 0.346953
C15   C     C_R   0.831504 0.391639 0.141399 -0.117312
C16   C     C_R   0.700616 0.410075 0.447481 0.547579
C17   C     C_R   0.863296 0.379826 0.102440 -0.129288
C18   C     C_R   0.906978 0.198738 0.098737 -0.129038
C19   C     C_R   0.875092 0.210594 0.137804 -0.111644
C20   C     C_R   0.841889 0.305991 0.160155 0.036167
C21   C     C_R   0.906013 0.282160 0.081565 0.020813
C22   C     C_R   0.371083 0.755221 0.409144 0.026929
C23   C     C_R   0.412550 0.265526 0.328306 -0.098828
C24   C     C_R   0.275183 0.790979 0.386482 0.374332
C25   C     C_R   0.265918 0.819059 0.346968 -0.076849
C26   C     C_R   0.351541 0.812558 0.329517 -0.024898
C27   C     C_R   0.443873 0.787024 0.353469 -0.140695
C28   C     C_R   0.393435 0.701382 0.561238 0.542992
C29   C     C_R   0.453558 0.758618 0.392960 -0.189457
C30   C     C_R   0.343914 0.829128 0.204393 0.347510
C31   C     C_R   0.347148 0.822957 0.285743 0.351771
C32   C     C_R   0.258235 0.832624 0.135425 -0.117439
C33   C     C_R   0.238405 0.863057 0.095845 -0.129350
C34   C     C_R   0.432179 0.274418 0.370086 -0.123615
C35   C     C_R   0.382246 0.900918 0.104668 -0.127939
C36   C     C_R   0.402170 0.870318 0.144303 -0.114430
C37   C     C_R   0.337070 0.840794 0.160605 0.033475
C38   C     C_R   0.296973 0.902351 0.080821 0.019705
C39   C     C_R   0.369812 0.367784 0.584337 -0.000938
C40   C     C_R   0.407259 0.388788 0.548967 0.545683
C41   C     C_R   0.273052 0.439082 0.598768 -0.103695
C42   C     C_R   0.245998 0.429994 0.636617 0.095656
C43   C     C_R   0.317881 0.349031 0.660897 0.042742
C44   C     C_R   0.410477 0.273029 0.644503 -0.141901
C45   C     C_R   0.397507 0.255252 0.165193 0.103367
C46   C     C_R   0.436038 0.282134 0.606703 -0.137411
C47   C     C_R   0.304326 0.340559 0.785340 0.337949
C48   C     C_R   0.305194 0.345409 0.704075 0.360718
C49   C     C_R   0.215632 0.403933 0.850108 -0.119139
C50   C     C_R   0.208090 0.386107 0.889726 -0.130389
C51   C     C_R   0.380562 0.238890 0.889115 -0.128094
C52   C     C_R   0.701413 0.413586 0.562660 0.544993
C53   C     C_R   0.387477 0.255958 0.849515 -0.119705
C54   C     C_R   0.303384 0.335707 0.829140 0.036914
C55   C     C_R   0.288699 0.300385 0.908835 0.021900
C56   C     C_R   0.386895 0.237364 0.123320 -0.102426
C57   C     C_R   0.754748 0.380267 0.602803 0.019330
C58   C     C_R   0.780654 0.446531 0.629156 -0.115721
C59   C     C_R   0.809593 0.425922 0.669921 -0.100355
C60   C     C_R   0.813396 0.338834 0.684697 0.039062
C61   C     C_R   0.794123 0.269117 0.658240 -0.110523
C62   C     C_R   0.765266 0.289441 0.617473 -0.123773
C63   C     C_R   0.887829 0.212437 0.822590 -0.110620
C64   C     C_R   0.370267 0.366519 0.392513 0.015732
C65   C     C_R   0.914831 0.201185 0.864027 -0.126726
C66   C     C_R   0.872135 0.382146 0.873388 -0.124749
C67   C     C_R   0.209242 0.375662 0.122133 -0.133074
C68   C     C_R   0.845010 0.393185 0.832008 -0.109696
C69   C     C_R   0.855762 0.307686 0.806426 0.040937
C70   C     C_1   0.840828 0.316432 0.763401 -0.019624
C71   C     C_1   0.829343 0.325366 0.727421 -0.019366
C72   C     C_R   0.910706 0.285137 0.889610 0.019815
C73   C     C_R   0.376121 0.755158 0.601920 0.019260
C74   C     C_R   0.280741 0.790341 0.619018 -0.115357
C75   C     C_R   0.271101 0.819814 0.660238 -0.101644
C76   C     C_R   0.283616 0.446219 0.372817 -0.117347
C77   C     C_R   0.356361 0.814826 0.684763 0.040526
C78   C     C_R   0.219505 0.393468 0.163943 -0.132919
C79   C     C_R   0.449649 0.786172 0.667625 -0.109148
C80   C     C_R   0.459485 0.756831 0.626347 -0.125519
C81   C     C_R   0.396374 0.885412 0.832608 -0.110305
C82   C     C_R   0.376697 0.912637 0.873457 -0.125858
C83   C     C_R   0.228290 0.881746 0.862779 -0.126225
C84   C     C_R   0.248272 0.854418 0.821977 -0.109141
C85   C     C_R   0.330544 0.858977 0.806661 0.040291
C86   C     C_1   0.342729 0.843268 0.763896 -0.017135
C87   C     C_1   0.349956 0.831224 0.727842 -0.015830
C88   C     C_R   0.264275 0.437117 0.331003 -0.107433
C89   C     C_R   0.312192 0.331303 0.185672 0.048606
C90   C     C_R   0.290384 0.914317 0.888672 0.019625
C91   C     C_R   0.963304 0.264267 0.045474 0.546212
C92   C     C_R   0.272776 0.259504 0.059999 0.546520
C93   C     C_R   0.259257 0.959579 0.043751 0.545974
C94   C     C_R   0.962688 0.267593 0.930709 0.542911
C95   C     C_R   0.270753 0.263739 0.945183 0.545354
C96   C     C_R   0.256116 0.965096 0.928940 0.543052
Cr1   Cr    Cr6+3 0.576280 0.580550 0.506370 1.021249
Cr2   Cr    Cr6+3 0.346780 0.572400 0.496520 1.063350
Cr3   Cr    Cr6+3 0.576960 0.347070 0.497150 1.022044
Cr4   Cr    Cr6+3 0.087320 0.083240 0.984860 1.015649
Cr5   Cr    Cr6+3 0.087720 0.316210 0.996740 1.015795
Cr6   Cr    Cr6+3 0.317350 0.090340 0.995890 1.018034
F1    F     F_    0.192010 0.793121 0.401416 -0.616450
H1    H     H_    0.451577 0.175009 0.108162 0.151740
H2    H     H_    0.173028 0.861967 0.077963 0.132482
H3    H     H_    0.192847 0.841296 0.329456 0.163906
H4    H     H_    0.510771 0.782769 0.340998 0.156047
H5    H     H_    0.208122 0.808021 0.146904 0.138996
H6    H     H_    0.429271 0.930105 0.093770 0.138079
H7    H     H_    0.464367 0.876148 0.162856 0.150227
H8    H     H_    0.219572 0.504056 0.581239 0.150797
H9    H     H_    0.510793 0.225185 0.596214 0.139838
H10   H     H_    0.136501 0.435114 0.904255 0.129367
H11   H     H_    0.466831 0.209078 0.661886 0.140904
H12   H     H_    0.737494 0.235407 0.399690 0.137043
H13   H     H_    0.464127 0.196242 0.311099 0.143986
H14   H     H_    0.150112 0.466498 0.835023 0.133644
H15   H     H_    0.444543 0.172952 0.903155 0.131395
H16   H     H_    0.456932 0.203684 0.834193 0.130537
H17   H     H_    0.944829 0.125337 0.875503 0.129066
H18   H     H_    0.896146 0.145877 0.802957 0.113555
H19   H     H_    0.797158 0.201357 0.669440 0.114624
H20   H     H_    0.745759 0.236899 0.598021 0.130229
H21   H     H_    0.773101 0.517160 0.618870 0.140374
H22   H     H_    0.819841 0.467336 0.819724 0.113766
H23   H     H_    0.860180 0.445870 0.089688 0.132773
H24   H     H_    0.868091 0.448221 0.892252 0.128540
H25   H     H_    0.499386 0.211709 0.384350 0.136163
H26   H     H_    0.824710 0.480177 0.690240 0.127612
H27   H     H_    0.425777 0.937687 0.892531 0.128198
H28   H     H_    0.460390 0.888916 0.820969 0.114526
H29   H     H_    0.516019 0.782216 0.686444 0.115718
H30   H     H_    0.534101 0.729666 0.614169 0.131911
H31   H     H_    0.215164 0.789933 0.601053 0.142196
H32   H     H_    0.197091 0.833718 0.802050 0.120636
H33   H     H_    0.161173 0.882431 0.873496 0.129160
H34   H     H_    0.834337 0.468556 0.340253 0.140289
H35   H     H_    0.198488 0.842174 0.673300 0.124084
H36   H     H_    0.234550 0.518150 0.389216 0.159010
H37   H     H_    0.153533 0.452588 0.179556 0.124259
H38   H     H_    0.134809 0.421131 0.106324 0.138584
H39   H     H_    0.200578 0.501287 0.315912 0.128946
H40   H     H_    0.784926 0.504121 0.409759 0.136207
H41   H     H_    0.786906 0.199871 0.330001 0.148200
H42   H     H_    0.804050 0.466741 0.157571 0.140879
H43   H     H_    0.938958 0.122624 0.083201 0.133578
H44   H     H_    0.882757 0.143486 0.151328 0.146782
H45   H     H_    0.528043 0.732668 0.409749 0.146497
I1    I     I_    0.541443 0.160250 0.196215 -0.375032
I2    I     I_    0.094757 0.540765 0.653273 -0.375141
N1    N     N_R   0.822683 0.397936 0.226982 -0.227556
N2    N     N_R   0.425083 0.826541 0.268854 -0.216444
N3    N     N_R   0.423125 0.830312 0.228951 -0.219421
N4    N     N_R   0.246514 0.430481 0.766804 -0.221464
N5    N     N_R   0.248014 0.432937 0.726977 -0.175755
N6    N     N_R   0.361968 0.255545 0.722758 -0.239568
N7    N     N_R   0.361370 0.253104 0.762523 -0.232466
N8    N     N_R   0.818788 0.402952 0.266901 -0.226212
N9    N     N_R   0.827592 0.240050 0.262335 -0.210700
N10   N     N_R   0.831909 0.234846 0.222331 -0.206718
N11   N     N_R   0.266318 0.825203 0.221322 -0.224623
N12   N     N_R   0.268077 0.821825 0.261162 -0.224458
O1    O     O_R   0.679450 0.499830 0.463150 -0.516255
O2    O     O_R   0.340240 0.172500 0.045430 -0.516694
O3    O     O_R   0.309670 0.000990 0.032050 -0.501036
O4    O     O_R   0.480650 0.664000 0.464630 -0.519211
O5    O     O_R   0.168330 0.982130 0.939200 -0.519986
O6    O     O_R   0.000140 0.178170 0.944610 -0.502019
O7    O     O_R   0.983010 0.336750 0.948660 -0.518811
O8    O     O_R   0.181800 0.312190 0.959860 -0.501300
O9    O     O_R   0.338500 0.175680 0.956950 -0.519761
O10   O     O_R   0.308050 0.003930 0.950020 -0.501929
O11   O     O_3   0.164130 0.163270 0.992500 -0.237897
O12   O     O_R   0.356040 0.477400 0.534170 -0.501575
O13   O     O_R   0.323930 0.675950 0.455370 -0.434509
O14   O     O_R   0.354700 0.475360 0.451930 -0.498652
O15   O     O_R   0.494470 0.320860 0.448390 -0.517474
O16   O     O_R   0.662580 0.357570 0.460050 -0.500602
O17   O     O_R   0.680900 0.502040 0.551870 -0.515452
O18   O     O_R   0.481990 0.666040 0.546870 -0.503946
O19   O     O_R   0.325370 0.678160 0.544080 -0.511202
O20   O     O_R   0.495910 0.323070 0.537100 -0.517291
O21   O     O_R   0.663920 0.359620 0.542290 -0.501223
O22   O     O_3   0.500010 0.500010 0.500010 -0.249756
O23   O     O_R   0.170070 0.978950 0.027680 -0.518859
O24   O     O_R   0.001760 0.175230 0.026640 -0.500848
O25   O     O_R   0.984760 0.333570 0.037150 -0.519314
O26   O     O_R   0.183410 0.309240 0.041890 -0.500017

loop_
_geom_bond_atom_site_label_1
_geom_bond_atom_site_label_2
_ccdc_geom_bond_type
C66   C68   A    
C63   C65   A    
C84   H32   S    
C31   N2    A    
C22   C29   A    
C46   H9    S    
C27   C29   A    
C18   C21   A    
C41   C42   A    
C5    C56   A    
Cr5   O11   S    
C35   C36   A    
C28   O18   A    
C52   O21   A    
C4    O15   A    
C5    C67   A    
C29   H45   S    
C7    H40   S    
C81   C82   A    
C7    C8    A    
C39   C41   A    
C53   C54   A    
Cr6   O11   S    
C12   C23   A    
C26   C27   A    
C14   N8    A    
Cr4   O5    S    
N6    N7    A    
Cr3   O15   S    
C94   O7    A    
C47   N7    A    
Cr2   O12   S    
C17   H23   S    
Cr1   O17   S    
Cr1   O4    S    
C51   H15   S    
C66   H24   S    
C18   C19   A    
C73   C74   A    
Cr3   O20   S    
C3    C12   S    
C23   H13   S    
C65   H17   S    
C30   N3    A    
C49   H14   S    
C63   C69   A    
C45   C56   A    
C16   O16   A    
C8    C9    A    
Cr1   O1    S    
C36   C37   A    
Cr5   O7    S    
C70   C71   T    
C82   H27   S    
Cr5   O26   S    
C45   C89   A    
C43   C48   S    
C76   C88   A    
C13   N10   A    
Cr3   O21   S    
C35   H6    S    
C72   C94   S    
C92   O2    A    
C48   N6    A    
C31   N12   A    
C93   O3    A    
C59   C60   A    
C16   O1    A    
C61   C62   A    
C67   C78   A    
C28   C73   S    
C88   H39   S    
C62   H20   S    
C63   H18   S    
C44   C46   A    
C25   H3    S    
N11   N12   A    
C40   O20   A    
C77   C79   A    
C78   C89   A    
Cr6   O10   S    
C15   C20   A    
C77   C87   S    
C66   C72   A    
C74   C75   A    
C12   C88   A    
N1    N8    A    
C57   C62   A    
C35   C38   A    
C33   H2    S    
C84   C85   A    
C13   N1    A    
Cr3   O16   S    
C55   C95   S    
C52   C57   S    
C94   O6    A    
C6    C11   A    
C15   H42   S    
C86   C87   T    
C68   C69   A    
Cr1   O18   S    
C41   H8    S    
C60   C71   S    
C58   C59   A    
C85   C86   S    
C19   H44   S    
C80   H30   S    
C8    H34   S    
C30   C37   S    
C60   C61   A    
C51   C53   A    
C2    C89   S    
Cr4   O24   S    
C9    C14   S    
C21   C91   S    
Cr2   O14   S    
C1    C22   S    
N9    N10   A    
C27   H4    S    
C23   C34   A    
C34   C64   A    
C64   C76   A    
C96   O5    A    
C32   H5    S    
Cr5   O8    S    
C44   H11   S    
C10   H41   S    
C32   C37   A    
C24   C25   A    
C75   C77   A    
C56   H1    S    
C83   H33   S    
C47   C54   S    
C34   H25   S    
C91   O24   A    
Cr6   O3    S    
C39   C46   A    
C43   C44   A    
C4    O14   A    
C22   C24   A    
C83   C84   A    
C42   C43   A    
C67   H38   S    
C45   I1    S    
C53   H16   S    
C39   C40   S    
C11   H12   S    
Cr1   O22   S    
Cr3   O22   S    
C9    C10   A    
C76   H36   S    
Cr6   O9    S    
C15   C17   A    
C83   C90   A    
C91   O25   A    
C1    O13   A    
C13   C20   S    
C48   N5    A    
C50   C55   A    
C18   H43   S    
C75   H35   S    
C78   H37   S    
C92   O26   A    
C90   C96   S    
C6    C7    A    
C47   N4    A    
C65   C72   A    
C4    C64   S    
C58   H21   S    
C33   C38   A    
C82   C90   A    
C14   N9    A    
Cr4   O6    S    
C24   F1    S    
C32   C33   A    
C50   H10   S    
C19   C20   A    
C59   H26   S    
Cr4   O23   S    
C25   C26   A    
C52   O17   A    
C36   H7    S    
Cr2   O13   S    
C57   C58   A    
C1    O4    A    
Cr2   O19   S    
C28   O19   A    
C79   H29   S    
C74   H31   S    
C38   C93   S    
C73   C80   A    
C2    C3    T    
C51   C55   A    
Cr2   O22   S    
C69   C70   S    
C42   I2    S    
C95   O8    A    
C17   C21   A    
C5    C92   S    
C81   H28   S    
C10   C11   A    
C6    C16   S    
C79   C80   A    
N4    N5    A    
C26   C31   S    
N2    N3    A    
C40   O12   A    
Cr6   O2    S    
C49   C50   A    
C96   O10   A    
Cr4   O11   S    
C61   H19   S    
C30   N11   A    
Cr5   O25   S    
C95   O9    A    
C68   H22   S    
C81   C85   A    
C49   C54   A    
C93   O23   A    
