data_mof_unit_41891.cif
_audit_creation_date              2012-12-11T15:15:13-0500
_audit_creation_method            fapswitch 2.2
_symmetry_space_group_name_H-M    P1
_symmetry_Int_Tables_number       1
_space_group_crystal_system       triclinic
_cell_length_a                    18.818592
_cell_length_b                    18.837903
_cell_length_c                    20.392483
_cell_angle_alpha                 107.301083
_cell_angle_beta                  106.47575
_cell_angle_gamma                 111.011946
_cell_volume                      5792.70443179

loop_
_atom_site_label
_atom_site_type_symbol
_atom_type_description
_atom_site_fract_x
_atom_site_fract_y
_atom_site_fract_z
_atom_type_partial_charge
C1    C     C_R   0.088581 0.087432 0.355157 -0.141470
C2    C     C_R   0.757572 0.994706 0.549854 0.083425
C3    C     C_R   0.757507 0.797048 0.274508 0.118445
C4    C     C_R   0.962639 0.218575 0.464583 0.075910
C5    C     C_R   0.230298 0.228772 0.645732 -0.164926
C6    C     C_R   0.921034 0.756541 0.495017 -0.148172
C7    C     C_R   0.175631 0.928668 0.480092 -0.139529
C8    C     C_R   0.030182 0.053117 0.718494 -0.127693
C9    C     C_R   0.961400 0.911479 0.654205 -0.129187
C10   C     C_R   0.245516 0.070093 0.544837 -0.131974
C11   C     C_R   0.152837 0.222359 0.709894 -0.098559
C12   C     C_R   0.761577 0.925843 0.505396 -0.129978
C13   C     C_R   0.998358 0.763033 0.430585 -0.153631
C14   C     C_R   0.228998 0.273367 0.712417 0.100032
C15   C     C_R   0.946685 0.709141 0.450802 0.087644
C16   C     C_R   0.253605 0.997517 0.535093 0.080246
C17   C     C_R   0.014952 0.979173 0.726891 0.043462
C18   C     C_R   0.945786 0.577569 0.374968 -0.261571
C19   C     C_R   0.915419 0.617052 0.421596 0.113182
C20   C     C_R   0.860899 0.569577 0.445480 -0.263437
C21   C     C_R   0.846574 0.487675 0.432395 0.143097
C22   C     C_R   0.885869 0.452415 0.393527 0.029839
C23   C     C_R   0.838930 0.817735 0.281525 -0.045601
C24   C     C_R   0.932246 0.495870 0.361542 0.142328
C25   C     C_R   0.800419 0.443900 0.463898 -0.207884
C26   C     C_R   0.800760 0.370045 0.463948 -0.199601
C27   C     C_R   0.847506 0.339805 0.432726 0.137706
C28   C     C_R   0.886390 0.378320 0.393735 0.026814
C29   C     C_R   0.933594 0.348306 0.362252 0.134427
C30   C     C_R   0.971883 0.386803 0.323392 -0.198293
C31   C     C_R   0.971220 0.460433 0.323048 -0.206710
C32   C     C_R   0.864073 0.278363 0.447388 -0.243530
C33   C     C_R   0.922080 0.258361 0.426651 0.123584
C34   C     C_R   0.947738 0.194656 0.519657 -0.098144
C35   C     C_R   0.949761 0.287006 0.377710 -0.235039
C36   C     C_R   0.330100 0.915800 0.552693 -0.255129
C37   C     C_R   0.330557 0.994138 0.573196 0.114629
C38   C     C_R   0.407247 0.069728 0.622355 -0.256598
C39   C     C_R   0.483753 0.068609 0.638351 0.141836
C40   C     C_R   0.482858 0.990524 0.607082 0.027641
C41   C     C_R   0.405962 0.913507 0.567828 0.140324
C42   C     C_R   0.560509 0.144899 0.677519 -0.203600
C43   C     C_R   0.634632 0.144468 0.678277 -0.205115
C44   C     C_R   0.632287 0.067753 0.639843 0.142590
C45   C     C_R   0.761049 0.812700 0.346560 -0.131789
C46   C     C_R   0.557295 0.990104 0.607659 0.028121
C47   C     C_R   0.554403 0.912705 0.568812 0.142481
C48   C     C_R   0.479576 0.835749 0.537148 -0.203653
C49   C     C_R   0.405542 0.836138 0.536788 -0.202789
C50   C     C_R   0.700894 0.068063 0.626479 -0.258266
C51   C     C_R   0.694466 0.992029 0.579581 0.113403
C52   C     C_R   0.623530 0.914148 0.555726 -0.256848
C53   C     C_R   0.287749 0.364266 0.764265 -0.010767
C54   C     C_R   0.259332 0.420544 0.795037 0.576181
C55   C     C_R   0.319554 0.506736 0.844054 -0.355229
C56   C     C_R   0.025810 0.201061 0.454886 -0.096410
C57   C     C_R   0.406171 0.534756 0.865930 0.175519
C58   C     C_R   0.432592 0.479289 0.832271 -0.166622
C59   C     C_R   0.373885 0.394941 0.781620 -0.258728
C60   C     C_R   0.607139 0.763277 0.084544 -0.285445
C61   C     C_R   0.680859 0.801952 0.152634 0.554204
C62   C     C_R   0.605781 0.700604 0.192512 -0.230843
C63   C     C_R   0.532435 0.665004 0.126066 -0.158213
C64   C     C_R   0.533635 0.693681 0.070434 0.139934
C65   C     C_2   0.470899 0.617105 0.931642 -0.180910
C66   C     C_2   0.460163 0.643011 0.995211 -0.183270
C67   C     C_R   0.831057 0.066184 0.569708 -0.143239
C68   C     C_R   0.681269 0.766885 0.205410 -0.082057
C69   C     C_R   0.114187 0.025124 0.240782 0.135080
C70   C     C_R   0.123152 0.955559 0.202552 -0.174927
C71   C     C_R   0.161152 0.958522 0.153239 -0.151851
C72   C     C_R   0.190364 0.030951 0.141078 0.225742
C73   C     C_R   0.187663 0.102788 0.183761 -0.181517
C74   C     C_R   0.149456 0.099817 0.233010 -0.161316
C75   C     C_R   0.136588 0.045584 0.935876 -0.147254
C76   C     C_R   0.098325 0.048216 0.868237 -0.185577
C77   C     C_R   0.054172 0.899653 0.797058 -0.168419
C78   C     C_R   0.018621 0.947155 0.290980 -0.003169
C79   C     C_R   0.092215 0.896884 0.865186 -0.182245
C80   C     C_R   0.133378 0.969638 0.935215 0.223199
C81   C     C_2   0.209048 0.028769 0.075371 -0.228707
C82   C     C_2   0.157541 0.961044 0.006769 -0.211035
C83   C     C_R   0.055854 0.975212 0.798103 0.142413
C84   C     C_R   0.069253 0.020321 0.289252 0.055154
H1    H     H_    0.138567 0.152024 0.378932 0.086480
H2    H     H_    0.870727 0.732580 0.511122 0.087033
H3    H     H_    0.158067 0.862288 0.458344 0.098094
H4    H     H_    0.070926 0.117687 0.762270 0.086562
H5    H     H_    0.937617 0.844656 0.638781 0.095033
H6    H     H_    0.293174 0.135049 0.583344 0.094970
H7    H     H_    0.125107 0.241219 0.746806 0.121086
H8    H     H_    0.019180 0.745239 0.387134 0.086530
H9    H     H_    0.985630 0.611951 0.353853 0.116712
H10   H     H_    0.834653 0.597865 0.479368 0.117099
H11   H     H_    0.768718 0.469631 0.492771 0.129428
H12   H     H_    0.722036 0.859797 0.489501 0.082505
H13   H     H_    0.769515 0.340137 0.493046 0.130660
H14   H     H_    0.838177 0.253068 0.481437 0.118529
H15   H     H_    0.990770 0.268580 0.357685 0.119446
H16   H     H_    0.007210 0.363483 0.297917 0.130615
H17   H     H_    0.005859 0.492588 0.297116 0.129249
H18   H     H_    0.271343 0.856580 0.518501 0.118993
H19   H     H_    0.408520 0.130372 0.642206 0.117146
H20   H     H_    0.562195 0.205207 0.702865 0.129284
H21   H     H_    0.692356 0.204461 0.704371 0.128841
H22   H     H_    0.756097 0.128555 0.647697 0.116294
H23   H     H_    0.859000 0.812305 0.236573 0.138522
H24   H     H_    0.618516 0.854713 0.521705 0.116925
H25   H     H_    0.476967 0.775745 0.508312 0.129325
H26   H     H_    0.346978 0.776436 0.507516 0.130420
H27   H     H_    0.604234 0.674104 0.232852 0.140186
H28   H     H_    0.398963 0.609422 0.994123 0.131493
H29   H     H_    0.499289 0.500104 0.848288 0.125913
H30   H     H_    0.606957 0.786883 0.042152 0.188097
H31   H     H_    0.396283 0.352573 0.758028 0.142540
H32   H     H_    0.902511 0.198299 0.541284 0.091102
H33   H     H_    0.534216 0.644362 0.934989 0.137978
H34   H     H_    0.300370 0.552401 0.866736 0.136414
H35   H     H_    0.475979 0.611373 0.115989 0.122755
H36   H     H_    0.099930 0.898182 0.209569 0.109269
H37   H     H_    0.099954 0.107239 0.871841 0.112492
H38   H     H_    0.022840 0.842384 0.744017 0.114592
H39   H     H_    0.118374 0.900093 0.003192 0.135815
H40   H     H_    0.209715 0.159227 0.174957 0.111491
H41   H     H_    0.163956 0.102158 0.988643 0.111569
H42   H     H_    0.144323 0.154674 0.262385 0.113189
H43   H     H_    0.709310 0.804951 0.361936 0.105399
H44   H     H_    0.248981 0.089301 0.078771 0.131945
H45   H     H_    0.164563 0.903041 0.122375 0.114621
H46   H     H_    0.087418 0.837238 0.863458 0.117550
H47   H     H_    0.052865 0.210532 0.416159 0.093776
H48   H     H_    0.856003 0.129593 0.613210 0.087151
H49   H     H_    0.002306 0.883081 0.255173 0.065292
H50   H     H_    0.273061 0.255260 0.623060 0.101041
N1    N     N_R   0.052580 0.056040 0.395500 -0.032874
N2    N     N_R   0.954640 0.834860 0.500130 -0.038715
N3    N     N_R   0.122510 0.958490 0.460420 -0.049139
N4    N     N_R   0.990180 0.030970 0.644220 -0.041928
N5    N     N_R   0.947420 0.943960 0.604500 -0.040894
N6    N     N_R   0.165270 0.045500 0.500140 -0.045166
N7    N     N_R   0.109790 0.150600 0.644220 -0.048142
N8    N     N_R   0.002890 0.838860 0.460420 -0.039855
N9    N     N_R   0.834730 0.954500 0.499860 -0.034346
N10   N     N_R   0.890210 0.849400 0.355780 -0.055815
N11   N     N_R   0.997110 0.161140 0.539580 -0.039311
N12   N     N_R   0.841950 0.845400 0.395490 -0.045269
N13   N     N_R   0.045360 0.165140 0.499870 -0.042257
N14   N     N_R   0.877490 0.041510 0.539580 -0.036389
N15   N     N_R   0.009820 0.969030 0.355780 -0.038223
N16   N     N_R   0.158050 0.154600 0.604510 -0.040939
Ni1   Ni    Ni4+2 0.104370 0.104380 0.500010 0.222091
Ni2   Ni    Ni4+2 0.895630 0.895620 0.499990 0.216519
Ni3   Ni    Ni4+2 0.006300 0.904810 0.408930 0.216585
Ni4   Ni    Ni4+2 0.993700 0.095190 0.591070 0.228982
O1    O     O_3   0.172605 0.390500 0.770949 -0.679691
C85   C     C_3   0.150634 0.421078 0.830473 0.177834
H51   H     H_    0.080444 0.390962 0.804544 0.135544
H52   H     H_    0.173048 0.490316 0.852654 0.097720
C86   C     C_3   0.178495 0.396636 0.895265 -0.366187
H53   H     H_    0.152665 0.326740 0.871315 0.197182
H54   H     H_    0.248633 0.427383 0.924690 0.195324
C87   C     C_3   0.147013 0.424392 0.954329 -0.986800
H55   H     H_    0.173134 0.494420 0.980148 0.264062
H56   H     H_    0.168130 0.406213 0.000347 0.268522
H57   H     H_    0.076743 0.392945 0.927337 0.264370
S1    S     S_3+6 0.767739 0.895655 0.170065 -0.064623
O2    O     O_2   0.815330 0.955867 0.253891 -0.298282
O3    O     O_2   0.826026 0.872589 0.142369 -0.332626
O4    O     O_3   0.732253 0.944006 0.122069 -0.533744
H58   H     H_    0.783860 0.994574 0.133475 0.376908

loop_
_geom_bond_atom_site_label_1
_geom_bond_atom_site_label_2
_ccdc_geom_bond_type
C15   C19   S    
C40   C41   A    
C73   C74   A    
C3    C23   A    
C19   C20   A    
C43   C44   A    
C2    C12   A    
C81   C82   D    
C53   C59   A    
C53   C54   A    
C1    C84   A    
C40   C46   A    
C26   C27   A    
C29   C30   A    
C10   N6    A    
C18   C24   A    
C76   H37   S    
C31   H17   S    
C8    N4    A    
C36   C37   A    
C3    C68   S    
C18   C19   A    
C43   H21   S    
C38   C39   A    
C33   C35   A    
C34   N11   A    
N7    Ni4   S    
C77   C83   A    
C34   H32   S    
C30   H16   S    
N5    Ni2   S    
C36   H18   S    
C61   S1    S    
O4    H58   S    
C20   H10   S    
N10   Ni3   S    
N15   Ni3   S    
N2    N8    A    
C77   H38   S    
N2    Ni2   S    
C6    C15   A    
C4    C33   S    
C60   H30   S    
C7    H3    S    
C62   H27   S    
C67   H48   S    
C70   H36   S    
C58   H29   S    
C6    N2    A    
C86   H54   S    
C70   C71   A    
C75   C80   A    
C72   C81   S    
C16   C37   S    
N4    Ni4   S    
C48   H25   S    
C22   C28   A    
C21   C22   A    
C4    C56   A    
S1    O3    D    
C36   C41   A    
C5    H50   S    
N14   Ni4   S    
C35   H15   S    
C76   C83   A    
C41   C49   A    
N11   N13   A    
C44   C46   A    
N7    N16   A    
C39   C42   A    
C87   H56   S    
C77   C79   A    
C1    H1    S    
N9    N14   A    
N3    N6    A    
C4    C34   A    
O1    C85   S    
C63   C64   A    
C45   N12   A    
C47   C48   A    
N10   N12   A    
C2    C67   A    
N4    N5    A    
C9    H5    S    
C54   O1    S    
C7    N3    A    
C58   C59   A    
N1    N15   A    
C79   H46   S    
C3    C45   A    
C5    N16   A    
C51   C52   A    
C60   C61   A    
C8    H4    S    
C64   C66   S    
C37   C38   A    
N13   Ni1   S    
C75   C76   A    
C38   H19   S    
C78   C84   A    
C71   H45   S    
C87   H57   S    
C63   H35   S    
C75   H41   S    
C86   H53   S    
C30   C31   A    
C73   H40   S    
C23   H23   S    
C62   C63   A    
C50   C51   A    
C86   C87   S    
N3    Ni3   S    
C69   C74   A    
C46   C47   A    
C13   N8    A    
C11   N7    A    
N6    Ni1   S    
C52   H24   S    
C5    C14   A    
N12   Ni2   S    
N11   Ni4   S    
C9    C17   A    
C48   C49   A    
C25   H11   S    
C55   C57   A    
C81   H44   S    
S1    O2    D    
C22   C24   A    
C23   N10   A    
C42   C43   A    
C82   H39   S    
C39   C40   A    
C87   H55   S    
C44   C50   A    
C21   C25   A    
C54   C55   A    
C28   C29   A    
C27   C32   A    
C85   C86   S    
C7    C16   A    
C57   C65   S    
C72   C73   A    
C42   H20   S    
C47   C52   A    
C29   C35   A    
C8    C17   A    
C6    H2    S    
C12   N9    A    
C62   C68   A    
C60   C64   A    
C66   H28   S    
C32   C33   A    
C56   N13   A    
C13   C15   A    
C25   C26   A    
C24   C31   A    
C71   C72   A    
C13   H8    S    
C69   C84   S    
C10   C16   A    
C9    N5    A    
C61   C68   A    
C57   C58   A    
C74   H42   S    
C45   H43   S    
N1    Ni1   S    
C85   H52   S    
C11   C14   A    
C80   C82   S    
C32   H14   S    
N8    Ni3   S    
C69   C70   A    
C78   H49   S    
C56   H47   S    
C2    C51   S    
C26   H13   S    
C79   C80   A    
C11   H7    S    
C14   C53   S    
C85   H51   S    
C20   C21   A    
C10   H6    S    
S1    O4    S    
C59   H31   S    
C65   C66   D    
C67   N14   A    
C50   H22   S    
C18   H9    S    
C65   H33   S    
N16   Ni1   S    
C12   H12   S    
C17   C83   S    
C1    N1    A    
N9    Ni2   S    
C78   N15   A    
C49   H26   S    
C27   C28   A    
C55   H34   S    
