data_mof_unit_17108.cif
_audit_creation_date              2012-12-10T17:24:48-0500
_audit_creation_method            fapswitch 2.2
_symmetry_space_group_name_H-M    P1
_symmetry_Int_Tables_number       1
_space_group_crystal_system       triclinic
_cell_length_a                    19.225319
_cell_length_b                    18.12699
_cell_length_c                    18.630056
_cell_angle_alpha                 107.703901
_cell_angle_beta                  110.652632
_cell_angle_gamma                 108.602673
_cell_volume                      5082.99779285

loop_
_atom_site_label
_atom_site_type_symbol
_atom_type_description
_atom_site_fract_x
_atom_site_fract_y
_atom_site_fract_z
_atom_type_partial_charge
C1    C     C_R   0.618787 0.622052 0.499699 0.899595
C2    C     C_R   0.678880 0.768727 0.502164 -0.060728
C3    C     C_R   0.821345 0.834030 0.526259 -0.139978
C4    C     C_R   0.378407 0.499580 0.379172 0.994835
C5    C     C_R   0.838576 0.780914 0.565341 0.104612
C6    C     C_R   0.769736 0.704249 0.545263 0.109674
C7    C     C_R   0.687390 0.694575 0.506940 -0.085363
C8    C     C_R   0.921285 0.802692 0.625775 -0.193721
C9    C     C_R   0.935909 0.744052 0.655350 0.448972
C10   C     C_R   0.868323 0.663621 0.626489 -0.141988
C11   C     C_R   0.786133 0.644373 0.573199 -0.183005
C12   C     C_3   0.174156 0.451912 0.248915 -0.248893
C13   C     C_R   0.776817 0.671935 0.751597 -0.325112
C14   C     C_R   0.845685 0.752800 0.818453 0.328101
C15   C     C_R   0.910428 0.754368 0.886135 0.390921
C16   C     C_R   0.384159 0.379521 0.504052 0.906753
C17   C     C_R   0.903974 0.674378 0.884229 -0.169002
C18   C     C_R   0.832918 0.591977 0.817800 0.048581
C19   C     C_R   0.769844 0.591680 0.749979 -0.002462
C20   C     C_R   0.819145 0.510013 0.819037 0.030333
C21   C     C_R   0.747137 0.430117 0.747794 0.004100
C22   C     C_R   0.706551 0.431522 0.670823 -0.051180
C23   C     C_3   0.252351 0.536329 0.329863 -0.221652
C24   C     C_R   0.703386 0.510419 0.678922 -0.055859
C25   C     C_R   0.714609 0.348556 0.747936 -0.237613
C26   C     C_R   0.656220 0.269649 0.670372 0.362734
C27   C     C_R   0.640017 0.270140 0.590113 0.297553
C28   C     C_R   0.626535 0.505025 0.618921 0.899326
C29   C     C_R   0.669509 0.353578 0.591228 0.331469
C30   C     C_R   0.402113 0.361320 0.661025 0.333427
C31   C     C_R   0.397829 0.386140 0.738485 0.324864
C32   C     C_R   0.322189 0.341817 0.735449 -0.233707
C33   C     C_R   0.252018 0.274245 0.657281 -0.192031
C34   C     C_3   0.309782 0.499054 0.312103 -0.098176
C35   C     C_R   0.252285 0.257105 0.578096 0.046502
C36   C     C_R   0.325107 0.309283 0.579638 -0.062746
C37   C     C_R   0.179550 0.192418 0.497330 -0.122772
C38   C     C_R   0.166170 0.204071 0.421918 -0.109946
C39   C     C_R   0.233452 0.272983 0.429439 0.044229
C40   C     C_3   0.320019 0.543851 0.255327 -0.168507
C41   C     C_R   0.315432 0.314094 0.502170 -0.072354
C42   C     C_R   0.086811 0.157303 0.342651 0.287971
C43   C     C_R   0.067615 0.200233 0.293135 0.320791
C44   C     C_R   0.133237 0.271224 0.303825 -0.281346
C45   C     C_R   0.612160 0.784885 0.503836 0.405383
C46   C     C_R   0.215990 0.303377 0.367062 -0.210033
C47   C     C_R   0.996844 0.621821 0.115335 0.911124
C48   C     C_R   0.122313 0.498962 0.124922 0.986453
C49   C     C_R   0.995819 0.379914 0.876063 0.943725
C50   C     C_R   0.883880 0.505019 0.885713 0.966714
C51   C     C_R   0.998876 0.875933 0.382177 0.975220
C52   C     C_3   0.261567 0.579672 0.272124 0.422295
C53   C     C_R   0.882322 0.887277 0.508931 0.884879
C54   C     C_R   0.000201 0.120179 0.620516 0.776845
C55   C     C_R   0.118026 0.120427 0.497584 0.889377
C56   C     C_R   0.628599 0.872461 0.542631 -0.122411
C57   C     C_R   0.130983 0.812632 0.213000 -0.056158
C58   C     C_R   0.208627 0.885518 0.278104 -0.115752
C59   C     C_R   0.222029 0.926296 0.361535 0.364832
C60   C     C_R   0.155672 0.898080 0.377782 -0.229843
C61   C     C_R   0.074705 0.828425 0.310440 0.060257
C62   C     C_R   0.065056 0.777371 0.230463 0.097384
C63   C     C_R   0.003813 0.807262 0.321688 -0.048682
C64   C     C_3   0.185129 0.496502 0.192820 -0.203912
C65   C     C_R   0.934749 0.722508 0.269211 -0.196644
C66   C     C_R   0.920069 0.673200 0.186451 -0.069512
C67   C     C_R   0.693178 0.936780 0.544076 -0.194937
C68   C     C_R   0.990518 0.693815 0.172105 -0.079452
C69   C     C_R   0.883547 0.682166 0.299167 0.257563
C70   C     C_R   0.800491 0.613739 0.237811 0.288614
C71   C     C_R   0.776258 0.579412 0.149868 -0.290358
C72   C     C_R   0.835150 0.607097 0.123305 0.436412
C73   C     C_R   0.021040 0.409987 0.730000 0.432768
C74   C     C_R   0.067165 0.435889 0.690264 -0.167943
C75   C     C_R   0.087514 0.378551 0.644543 -0.177306
C76   C     C_3   0.242020 0.459636 0.176941 0.314099
C77   C     C_R   0.062354 0.295402 0.638772 -0.135815
C78   C     C_R   0.733794 0.908901 0.501214 0.294776
C79   C     C_R   0.026464 0.272937 0.688375 0.068158
C80   C     C_R   0.011027 0.333266 0.740809 -0.022151
C81   C     C_R   0.012241 0.193793 0.691511 -0.055993
C82   C     C_R   0.004193 0.184100 0.760797 -0.113926
C83   C     C_R   0.965411 0.227071 0.793336 -0.114875
C84   C     C_R   0.983085 0.311134 0.797395 -0.049915
C85   C     C_R   0.035606 0.138577 0.802874 0.359311
C86   C     C_R   0.005927 0.117692 0.856463 -0.277279
C87   C     C_R   0.945751 0.139349 0.867700 0.239447
C88   C     C_3   0.232488 0.414257 0.232897 -0.220263
C89   C     C_R   0.743550 0.834769 0.503871 -0.029686
C90   C     C_R   0.920792 0.189807 0.830538 0.339247
H1    H     H_    0.692877 0.998748 0.554172 0.232439
H2    H     H_    0.974733 0.866651 0.655118 0.210336
H3    H     H_    0.093676 0.745156 0.835629 0.409062
H4    H     H_    0.735546 0.584798 0.558835 0.182522
H5    H     H_    0.508580 0.031423 0.437488 0.397640
H6    H     H_    0.950111 0.894902 0.794601 0.357636
H7    H     H_    0.110385 0.954760 0.991892 0.395664
H8    H     H_    0.953694 0.678773 0.938167 0.212526
H9    H     H_    0.372596 0.578724 0.246648 0.236886
H10   H     H_    0.728619 0.345238 0.807570 0.253589
H11   H     H_    0.481945 0.099849 0.655918 0.397422
H12   H     H_    0.729683 0.672333 0.699006 0.200765
H13   H     H_    0.745353 0.310008 0.435566 0.400494
H14   H     H_    0.120065 0.299801 0.261193 0.197855
H15   H     H_    0.569522 0.328053 0.765629 0.398462
H16   H     H_    0.420664 0.532837 0.889186 0.360189
H17   H     H_    0.152103 0.035501 0.341911 0.360525
H18   H     H_    0.971303 0.293976 0.254178 0.342809
H19   H     H_    0.358745 0.420273 0.130531 0.365000
H20   H     H_    0.264641 0.357318 0.371023 0.140594
H21   H     H_    0.710959 0.531568 0.101375 0.257381
H22   H     H_    0.123786 0.788016 0.149122 0.210199
H23   H     H_    0.317996 0.357160 0.794161 0.235550
H24   H     H_    0.353157 0.936438 0.506053 0.356530
H25   H     H_    0.168437 0.932563 0.443017 0.210937
H26   H     H_    0.060458 0.716912 0.421664 0.357906
H27   H     H_    0.736500 0.462346 0.268059 0.368465
H28   H     H_    0.700354 0.608119 0.931644 0.421700
H29   H     H_    0.798618 0.004108 0.838176 0.393037
H30   H     H_    0.222897 0.346251 0.216179 0.199123
H31   H     H_    0.935718 0.497371 0.628422 0.378530
H32   H     H_    0.077978 0.496062 0.685172 0.179525
H33   H     H_    0.118205 0.396498 0.609118 0.169025
H34   H     H_    0.195936 0.240210 0.659407 0.180895
H35   H     H_    0.178679 0.112732 0.930763 0.373203
H36   H     H_    0.032640 0.087618 0.892428 0.241102
H37   H     H_    0.702676 0.063424 0.756105 0.420668
H38   H     H_    0.112411 0.416813 0.244099 0.206397
H39   H     H_    0.258279 0.568580 0.394362 0.179503
H40   H     H_    0.534996 0.634271 0.326499 0.390201
H41   H     H_    0.581002 0.887133 0.551722 0.217677
H42   H     H_    0.258455 0.909482 0.263423 0.198406
H43   H     H_    0.075162 0.250608 0.598648 0.117406
H44   H     H_    0.878923 0.617919 0.649379 0.220473
H45   H     H_    0.314486 0.741080 0.433745 0.350131
H46   H     H_    0.623320 0.978111 0.399455 0.385306
O1    O     O_R   0.592010 0.539900 0.448660 -0.561058
O2    O     O_R   0.948620 0.908400 0.356980 -0.537784
O3    O     O_R   0.960510 0.908410 0.552140 -0.612073
O4    O     O_R   0.591210 0.643320 0.551330 -0.618296
O5    O     O_R   0.856270 0.908390 0.447890 -0.548758
O6    O     O_R   0.051380 0.091620 0.643040 -0.572423
O7    O     O_R   0.947140 0.091600 0.538800 -0.588205
O8    O     O_R   0.143730 0.091640 0.552130 -0.594083
O9    O     O_R   0.039490 0.091610 0.447890 -0.596702
O10   O     O_R   0.408080 0.448290 0.356360 -0.613299
O11   O     O_R   0.407280 0.551710 0.459030 -0.585576
O12   O     O_R   0.054870 0.643310 0.094700 -0.637264
O13   O     O_R   0.408790 0.356680 0.448670 -0.574374
O14   O     O_R   0.407990 0.460100 0.551340 -0.646774
O15   O     O_R   0.592720 0.448290 0.540970 -0.581338
O16   O     O_R   0.591920 0.551710 0.643640 -0.576653
O17   O     O_R   0.951440 0.539900 0.094740 -0.610577
O18   O     O_2   0.304689 0.719766 0.242657 -0.192120
O19   O     O_2   0.189719 0.685259 0.276078 -0.373366
O20   O     O_3   0.343063 0.759487 0.402431 -0.441748
O21   O     O_2   0.768297 0.999948 0.416813 -0.258017
O22   O     O_2   0.693485 0.838502 0.332627 -0.179416
O23   O     O_R   0.044440 0.448270 0.096110 -0.605787
O24   O     O_3   0.609481 0.915876 0.368633 -0.455682
O25   O     O_2   0.076913 0.734853 0.679472 -0.229620
O26   O     O_2   0.092741 0.869798 0.782467 -0.248386
O27   O     O_3   0.034063 0.726469 0.795520 -0.536475
O28   O     O_2   0.553725 0.178715 0.412981 -0.195107
O29   O     O_2   0.663201 0.148148 0.493055 -0.256323
O30   O     O_3   0.518942 0.084114 0.485317 -0.379109
O31   O     O_2   0.780497 0.828364 0.727698 -0.365102
O32   O     O_2   0.820925 0.888229 0.881095 -0.150002
O33   O     O_3   0.940161 0.923201 0.841743 -0.494304
O34   O     O_R   0.147870 0.551680 0.096080 -0.560280
O35   O     O_2   0.972904 0.919855 0.009064 -0.121140
O36   O     O_2   0.044726 0.837060 0.047535 -0.323822
O37   O     O_3   0.066965 0.895558 0.942515 -0.485837
O38   O     O_2   0.624424 0.102570 0.634220 -0.214780
O39   O     O_2   0.640083 0.193861 0.772186 -0.273699
O40   O     O_3   0.502629 0.137098 0.630934 -0.376220
O41   O     O_2   0.614150 0.340467 0.429644 -0.228409
O42   O     O_2   0.756809 0.457817 0.542968 -0.319421
O43   O     O_3   0.733575 0.299170 0.480088 -0.415009
O44   O     O_2   0.486966 0.311993 0.582469 -0.296676
O45   O     O_R   0.952810 0.356650 0.912880 -0.574846
O46   O     O_2   0.569209 0.446193 0.723640 -0.314543
O47   O     O_3   0.508937 0.294932 0.720548 -0.457334
O48   O     O_2   0.545844 0.439503 0.876063 -0.160293
O49   O     O_2   0.530492 0.549088 0.830010 -0.257583
O50   O     O_3   0.453362 0.504614 0.911617 -0.468963
O51   O     O_2   0.949507 0.999657 0.265879 -0.170058
O52   O     O_2   0.035251 0.017224 0.195763 -0.186392
O53   O     O_3   0.095820 0.004957 0.335701 -0.605028
O54   O     O_2   0.936430 0.090439 0.131277 -0.078265
O55   O     O_2   0.903402 0.133250 0.247797 -0.239276
O56   O     O_R   0.056240 0.460060 0.912840 -0.598064
O57   O     O_3   0.955537 0.248186 0.197314 -0.493306
O58   O     O_2   0.145144 0.330310 0.011881 -0.269386
O59   O     O_2   0.249975 0.470216 0.038521 -0.255817
O60   O     O_3   0.303270 0.368202 0.084890 -0.426870
O61   O     O_2   0.359949 0.069866 0.410593 -0.187673
O62   O     O_2   0.313675 0.070444 0.517591 -0.263255
O63   O     O_3   0.382144 0.971021 0.483544 -0.448725
O64   O     O_2   0.899675 0.719594 0.455838 -0.239314
O65   O     O_2   0.916462 0.594110 0.387394 -0.247323
O66   O     O_3   0.040030 0.749875 0.454461 -0.510768
O67   O     O_R   0.859800 0.448280 0.911500 -0.592139
O68   O     O_2   0.728786 0.654558 0.332989 -0.227163
O69   O     O_2   0.636155 0.524421 0.190389 -0.237665
O70   O     O_3   0.741158 0.512425 0.313754 -0.433637
O71   O     O_2   0.857482 0.635033 0.999009 -0.404961
O72   O     O_2   0.753477 0.485689 0.957344 -0.287909
O73   O     O_3   0.714021 0.611120 0.989282 -0.430707
O74   O     O_2   0.963572 0.077986 0.984385 -0.158689
O75   O     O_2   0.938058 0.204782 0.011805 -0.184006
O76   O     O_3   0.811836 0.051206 0.892787 -0.414846
O77   O     O_2   0.881033 0.395678 0.736452 -0.329925
O78   O     O_R   0.963240 0.551690 0.911470 -0.602090
O79   O     O_2   0.993739 0.545100 0.788518 -0.307685
O80   O     O_3   0.901946 0.439864 0.623301 -0.463031
O81   O     O_2   0.118116 0.050108 0.767785 -0.285948
O82   O     O_2   0.183267 0.206298 0.803039 -0.231246
O83   O     O_3   0.191775 0.168979 0.928085 -0.427814
O84   O     O_2   0.811874 0.216697 0.880944 -0.206450
O85   O     O_2   0.801077 0.226763 0.749337 -0.250229
O86   O     O_3   0.747249 0.071520 0.739708 -0.553581
O87   O     O_2   0.451856 0.696984 0.454144 -0.280107
O88   O     O_2   0.485199 0.754455 0.361391 -0.188210
O89   O     O_R   0.052860 0.908430 0.461230 -0.602859
O90   O     O_3   0.504920 0.618580 0.357573 -0.625033
S1    S     S_3+6 0.273803 0.688200 0.296847 0.085652
S2    S     S_3+6 0.485493 0.471769 0.840378 0.125186
S3    S     S_3+6 0.038248 0.041666 0.281838 0.114125
S4    S     S_3+6 0.962516 0.164729 0.215447 0.148096
S5    S     S_3+6 0.233058 0.406253 0.073847 0.089525
S6    S     S_3+6 0.321202 0.014215 0.445518 0.092984
S7    S     S_3+6 0.934436 0.685780 0.401144 0.086448
S8    S     S_3+6 0.723710 0.576473 0.268284 0.128986
S9    S     S_3+6 0.791213 0.582810 0.013788 0.048419
S10   S     S_3+6 0.916346 0.118685 0.942415 0.194776
S11   S     S_3+6 0.948163 0.449377 0.723255 0.033983
S12   S     S_3+6 0.703179 0.916068 0.402719 0.120983
S13   S     S_3+6 0.133643 0.140259 0.822667 0.118370
S14   S     S_3+6 0.818623 0.179219 0.801246 0.113312
S15   S     S_3+6 0.509887 0.712586 0.417591 0.033924
S16   S     S_3+6 0.038782 0.771365 0.729431 0.066881
S17   S     S_3+6 0.593865 0.169714 0.492819 0.175054
S18   S     S_3+6 0.844648 0.849243 0.815955 0.068959
S19   S     S_3+6 0.999738 0.853946 0.975249 0.125420
S20   S     S_3+6 0.607442 0.173528 0.678556 0.144409
S21   S     S_3+6 0.692614 0.364698 0.508895 0.140472
S22   S     S_3+6 0.494503 0.355448 0.669489 0.066759
Zn1   Zn    Zn3+2 0.500540 0.430950 0.431450 1.191835
Zn2   Zn    Zn3+2 0.499460 0.569050 0.568550 1.104826
Zn3   Zn    Zn3+2 0.934770 0.430930 0.003810 1.189703
Zn4   Zn    Zn3+2 0.072900 0.569020 0.003770 1.137432
Zn5   Zn    Zn3+2 0.069600 0.000030 0.569620 1.172294
Zn6   Zn    Zn3+2 0.930400 0.000000 0.430410 1.230360

loop_
_geom_bond_atom_site_label_1
_geom_bond_atom_site_label_2
_ccdc_geom_bond_type
O38   S20   D    
C66   C68   A    
C63   C65   A    
O11   Zn2   S    
C22   C29   A    
C45   S15   S    
O1    Zn1   S    
C27   C29   A    
C3    C53   S    
C73   C74   A    
C2    C7    A    
C80   C84   A    
O43   S21   S    
C40   H9    S    
O16   Zn2   S    
C81   C82   A    
C44   H14   S    
C43   S4    S    
O71   S9    D    
C57   C62   A    
C39   C41   A    
C49   O56   A    
O32   S18   D    
C50   O67   A    
C75   H33   S    
C5    C6    A    
O17   Zn3   S    
C12   C23   S    
O19   S1    D    
H29   O76   S    
C60   H25   S    
O6    Zn5   S    
C30   S22   S    
O35   S19   D    
H28   O73   S    
C34   C40   S    
O80   S11   S    
O57   S4    S    
C49   C84   S    
C40   C52   S    
O69   S8    D    
O3    Zn5   S    
O87   S15   D    
C38   C42   A    
O77   S11   D    
C30   C31   A    
C12   C64   S    
O62   S6    D    
H19   O60   S    
C55   O9    A    
C57   H22   S    
C86   H36   S    
C50   O78   A    
H13   O43   S    
O75   S10   D    
C23   H39   S    
O27   S16   S    
C21   C25   A    
C18   C19   A    
C70   S8    S    
O83   S13   S    
C61   C63   A    
C69   S7    S    
C20   C50   S    
C14   C15   A    
C25   H10   S    
H37   O86   S    
C21   C22   A    
C14   S18   S    
O39   S20   D    
C66   C72   A    
H24   O63   S    
C15   S19   S    
C45   C56   A    
C58   H42   S    
C8    C9    A    
O7    Zn6   S    
C71   H21   S    
C51   O89   A    
C33   H34   S    
O68   S8    D    
O31   S18   D    
C70   C71   A    
O79   S11   D    
O74   S10   D    
C32   H23   S    
O26   S16   D    
C90   S14   S    
C17   H8    S    
C76   C88   S    
C18   C20   A    
C8    H2    S    
C22   C24   A    
C54   O7    A    
C59   C60   A    
C78   S12   S    
C1    C7    S    
C31   S2    S    
O30   S17   S    
C29   S21   S    
C36   C41   A    
C61   C62   A    
C67   C78   A    
C77   H43   S    
O82   S13   D    
C30   C36   A    
C9    S16   S    
O76   S10   S    
C44   C46   A    
O14   Zn2   S    
C57   C58   A    
C77   C79   A    
C78   C89   A    
O13   Zn1   S    
C38   C39   A    
C48   O23   A    
C4    C34   S    
O12   Zn4   S    
H7    O37   S    
C74   C75   A    
C13   C19   A    
O85   S14   D    
O34   Zn4   S    
H31   O80   S    
C10   H44   S    
C51   C63   S    
O64   S7    D    
H16   O50   S    
O15   Zn1   S    
H27   O70   S    
O45   Zn3   S    
C6    C11   A    
C79   C81   A    
C12   C88   S    
O29   S17   D    
O90   S15   S    
O40   S20   S    
O10   Zn1   S    
C58   C59   A    
C85   C86   A    
O49   S2    D    
C87   S10   S    
C79   C80   A    
C60   C61   A    
C85   S13   S    
C35   C36   A    
O51   S3    D    
C26   C27   A    
C2    C89   A    
O53   S3    S    
O63   S6    S    
O73   S9    S    
C73   S11   S    
C37   C38   A    
O46   S22   D    
C52   S1    S    
O65   S7    D    
C83   C84   A    
C54   O6    A    
O60   S5    S    
C23   C34   S    
C4    O10   A    
H17   O53   S    
C76   S5    S    
C67   H1    S    
C17   C18   A    
C64   C76   S    
O59   S5    D    
C34   C88   S    
C51   O2    A    
H15   O47   S    
C75   C77   A    
O72   S9    D    
O25   S16   D    
C16   O13   A    
C1    O4    A    
O24   S12   S    
O22   S12   D    
C39   C46   A    
C49   O45   A    
H35   O83   S    
C11   H4    S    
C74   H32   S    
C28   O16   A    
H6    O33   S    
C46   H20   S    
C43   C44   A    
C52   C64   S    
O67   Zn3   S    
O9    Zn6   S    
C88   H30   S    
C42   C43   A    
O48   S2    D    
O33   S18   S    
O52   S3    D    
C82   C85   A    
H5    O30   S    
O44   S22   D    
C47   C68   S    
C1    O1    A    
C86   C87   A    
C9    C10   A    
O61   S6    D    
O37   S19   S    
C15   C17   A    
C83   C90   A    
O5    Zn6   S    
C47   O12   A    
C55   O8    A    
C35   C37   A    
C53   O3    A    
O58   S5    D    
C31   C32   A    
C24   C28   S    
O20   S1    S    
C3    C5    A    
C27   S17   S    
C5    C8    A    
H26   O66   S    
C13   H12   S    
C6    C7    A    
C12   H38   S    
C59   S6    S    
C56   C67   A    
C47   O17   A    
O8    Zn5   S    
C72   S9    S    
C62   C68   A    
O18   S1    D    
C3    C89   A    
H46   O24   S    
C32   C33   A    
C19   C24   A    
C25   C26   A    
C2    C45   A    
O23   Zn3   S    
C71   C72   A    
O56   Zn4   S    
O66   S7    S    
O78   Zn4   S    
C4    O11   A    
C23   C52   S    
O41   S21   D    
O36   S19   D    
O70   S8    S    
O55   S4    D    
C65   C69   A    
C48   O34   A    
O86   S14   S    
C33   C35   A    
C73   C80   A    
O2    Zn6   S    
C53   O5    A    
O47   S22   S    
C65   C66   A    
C69   C70   A    
O88   S15   D    
C56   H41   S    
C48   C64   S    
C10   C11   A    
H45   O20   S    
O42   S21   D    
C37   C55   S    
C42   S3    S    
C40   C76   S    
O21   S12   D    
O50   S2    S    
C20   C21   A    
H40   O90   S    
C28   O15   A    
O89   Zn5   S    
C82   C83   A    
C87   C90   A    
H3    O27   S    
O81   S13   D    
O84   S14   D    
H11   O40   S    
C16   O14   A    
O54   S4    D    
H18   O57   S    
C13   C14   A    
O28   S17   D    
C16   C41   S    
C54   C81   S    
O4    Zn2   S    
C26   S20   S    
