data_mof_unit_15904.cif
_audit_creation_date              2012-10-26T18:32:03-0400
_audit_creation_method            fapswitch 2.2
_symmetry_space_group_name_H-M    P1
_symmetry_Int_Tables_number       1
_space_group_crystal_system       triclinic
_cell_length_a                    12.349765
_cell_length_b                    13.290996
_cell_length_c                    14.255579
_cell_angle_alpha                 93.359784
_cell_angle_beta                  107.6268
_cell_angle_gamma                 116.865906
_cell_volume                      1936.07902841

loop_
_atom_site_label
_atom_site_type_symbol
_atom_type_description
_atom_site_fract_x
_atom_site_fract_y
_atom_site_fract_z
_atom_type_partial_charge
C1    C     C_R   0.652150 0.714287 0.510376 0.539100
C2    C     C_R   0.164340 0.429241 0.000778 0.053259
C3    C     C_R   0.117785 0.450946 0.074883 0.031344
C4    C     C_R   0.617462 0.515397 0.686604 0.544412
C5    C     C_R   0.278767 0.421146 0.029235 -0.130247
C6    C     C_R   0.349767 0.437535 0.130941 -0.139068
C7    C     C_R   0.193250 0.470630 0.176910 -0.135375
C8    C     C_R   0.164552 0.962352 0.394036 -0.128039
C9    C     C_R   0.255964 0.163106 0.472892 -0.003626
C10   C     C_R   0.746480 0.917203 0.596109 -0.159738
C11   C     C_R   0.856315 0.025195 0.640692 -0.086167
C12   C     C_R   0.834956 0.479408 0.915588 0.033126
C13   C     C_R   0.966532 0.057308 0.615979 0.106288
C14   C     C_R   0.959753 0.985487 0.532644 0.040647
C15   C     C_R   0.847382 0.873916 0.488594 0.006134
C16   C     C_R   0.346053 0.285566 0.486043 0.550964
C17   C     C_R   0.060193 0.017779 0.492461 0.025661
C18   C     C_R   0.059349 0.933554 0.425766 0.049828
C19   C     C_R   0.948740 0.825075 0.384408 -0.135358
C20   C     C_R   0.840660 0.799558 0.409221 -0.117925
C21   C     C_R   0.153861 0.133172 0.507717 -0.144773
C22   C     C_R   0.264591 0.076726 0.419799 -0.132155
C23   C     C_R   0.778726 0.486888 0.987116 0.051500
C24   C     C_R   0.745326 0.837756 0.526446 -0.009821
C25   C     C_R   0.253213 0.684644 0.661653 -0.148270
C26   C     C_R   0.655204 0.344589 0.361861 0.080752
C27   C     C_R   0.732914 0.312043 0.328886 0.070492
C28   C     C_R   0.380210 0.481314 0.313084 0.545962
C29   C     C_R   0.868727 0.370958 0.381427 -0.122682
C30   C     C_R   0.927929 0.463558 0.466109 -0.028524
C31   C     C_R   0.843615 0.494617 0.495256 0.166098
C32   C     C_R   0.067382 0.527163 0.522315 -0.013312
C33   C     C_R   0.118546 0.620724 0.605158 0.037254
C34   C     C_R   0.941204 0.456883 0.942643 0.031324
C35   C     C_R   0.035335 0.650468 0.631364 -0.174099
C36   C     C_R   0.901516 0.589137 0.577822 -0.098237
C37   C     C_R   0.159534 0.502659 0.500746 0.036448
C38   C     C_R   0.337902 0.656219 0.636565 0.039007
C39   C     C_R   0.675768 0.512982 0.792069 -0.002895
C40   C     C_R   0.307850 0.463589 0.205292 -0.002562
C41   C     C_R   0.671294 0.505587 0.960105 -0.134472
C42   C     C_R   0.619207 0.517414 0.862729 -0.135887
C43   C     C_R   0.784842 0.497523 0.819847 -0.134106
C44   C     C_R   0.000523 0.457116 0.045041 0.032569
C45   C     C_R   0.939785 0.462042 0.113737 -0.139479
C46   C     C_R   0.830088 0.475476 0.084672 -0.137460
C47   C     C_R   0.988471 0.431992 0.870457 -0.140607
C48   C     C_R   0.097052 0.416984 0.899204 -0.130252
Cu1   Cu    Cu3+1 0.416420 0.526630 0.522910 0.924818
Cu2   Cu    Cu3+1 0.583580 0.473370 0.477090 0.912768
H1    H     H_    0.786363 0.478620 0.139494 0.105415
H2    H     H_    0.441763 0.705399 0.680135 0.118837
H3    H     H_    0.166747 0.495279 0.236101 0.121414
H4    H     H_    0.074177 0.722407 0.694437 0.114632
H5    H     H_    0.292829 0.756347 0.725079 0.096976
H6    H     H_    0.129233 0.432693 0.439488 0.115700
H7    H     H_    0.550480 0.298954 0.321523 0.137683
H8    H     H_    0.925820 0.343612 0.354130 0.090614
H9    H     H_    0.847175 0.619649 0.604004 0.183519
H10   H     H_    0.437984 0.431150 0.151329 0.121645
H11   H     H_    0.130185 0.398142 0.841613 0.116706
H12   H     H_    0.313995 0.403254 0.972831 0.109064
H13   H     H_    0.626890 0.510022 0.014066 0.100935
H14   H     H_    0.534237 0.528825 0.842564 0.127899
H15   H     H_    0.830523 0.501743 0.765659 0.120578
H16   H     H_    0.972226 0.452014 0.190012 0.100344
H17   H     H_    0.941276 0.419983 0.790321 0.111989
H18   H     H_    0.166265 0.140180 0.692979 0.241534
H19   H     H_    0.098527 0.230154 0.671046 0.223984
H20   H     H_    0.633010 0.245995 0.179252 0.220992
H21   H     H_    0.741650 0.202236 0.227936 0.234034
H22   H     H_    0.343133 0.098508 0.392042 0.133926
H23   H     H_    0.942472 0.762624 0.327612 0.108629
H24   H     H_    0.166436 0.897543 0.345736 0.113993
H25   H     H_    0.143168 0.201428 0.540455 0.135701
H26   H     H_    0.668026 0.891780 0.624481 0.128674
H27   H     H_    0.860189 0.080495 0.702014 0.138567
H28   H     H_    0.751977 0.720234 0.365228 0.147851
N1    N     N_R   0.290690 0.566960 0.557640 -0.232259
N2    N     N_R   0.709100 0.433710 0.442970 -0.257467
N3    N     N_3   0.086309 0.151198 0.688076 -0.655663
N4    N     N_3   0.671985 0.218642 0.241725 -0.641178
O1    O     O_R   0.545970 0.684450 0.528810 -0.497234
O2    O     O_R   0.687130 0.639470 0.490120 -0.525334
O3    O     O_R   0.519670 0.535100 0.660030 -0.502412
O4    O     O_R   0.660830 0.490120 0.621340 -0.520010
O5    O     O_R   0.312870 0.360530 0.509880 -0.511244
O6    O     O_R   0.454030 0.315550 0.471190 -0.501821
O7    O     O_R   0.339170 0.509880 0.378660 -0.506262
O8    O     O_R   0.480330 0.464900 0.339970 -0.515572

loop_
_geom_bond_atom_site_label_1
_geom_bond_atom_site_label_2
_ccdc_geom_bond_type
C27   C29   A    
C41   C42   A    
Cu1   O5    S    
C19   C20   A    
C36   H9    S    
Cu2   O2    S    
C31   N2    A    
C45   C46   A    
C1    O2    A    
C37   N1    A    
C12   C23   A    
C26   C27   A    
H18   N3    S    
C9    C16   S    
C12   C43   A    
C3    C7    A    
C30   C31   A    
C9    C22   A    
C4    O4    A    
C38   N1    A    
C28   C40   S    
C13   N3    S    
C18   C19   A    
C47   H17   S    
C11   H27   S    
C37   H6    S    
C10   H26   S    
Cu2   O8    S    
C35   C36   A    
C16   O5    A    
C8    C22   A    
C7    C40   A    
C28   O7    A    
Cu2   O6    S    
H21   N4    S    
C23   C46   A    
C13   C14   A    
C35   H4    S    
C14   C17   A    
C22   H22   S    
C39   C42   A    
C15   C20   A    
C3    C44   A    
C6    H10   S    
C19   H23   S    
C34   C44   A    
C39   C43   A    
C4    O3    A    
C2    C48   A    
C46   H1    S    
C17   C21   A    
Cu1   N1    S    
C29   C30   A    
Cu1   O3    S    
C25   C38   A    
C47   C48   A    
C4    C39   S    
C43   H15   S    
C8    H24   S    
C17   C18   A    
C32   C37   A    
C15   C24   A    
C6    C40   A    
C2    C5    A    
C7    H3    S    
C12   C34   A    
C42   H14   S    
C44   C45   A    
C14   C15   A    
C27   N4    S    
C25   H5    S    
Cu1   O7    S    
Cu2   N2    S    
C1    O1    A    
C21   H25   S    
C23   C41   A    
C20   H28   S    
C10   C24   A    
C32   C33   A    
Cu1   O1    S    
C2    C3    A    
C30   C32   A    
C11   C13   A    
C9    C21   A    
C48   H11   S    
C5    C6    A    
C33   C35   A    
C5    H12   S    
C8    C18   A    
H20   N4    S    
C26   H7    S    
C26   N2    A    
H19   N3    S    
C10   C11   A    
Cu2   O4    S    
C38   H2    S    
C29   H8    S    
C1    C24   S    
Cu1   Cu2   S    
C45   H16   S    
C16   O6    A    
C41   H13   S    
C31   C36   A    
C28   O8    A    
C34   C47   A    
C25   C33   A    
