data_mof_unit_15182.cif
_audit_creation_date              2012-12-10T17:51:23-0500
_audit_creation_method            fapswitch 2.2
_symmetry_space_group_name_H-M    P1
_symmetry_Int_Tables_number       1
_space_group_crystal_system       triclinic
_cell_length_a                    9.879202
_cell_length_b                    10.72659
_cell_length_c                    16.704493
_cell_angle_alpha                 91.694933
_cell_angle_beta                  85.088097
_cell_angle_gamma                 89.119523
_cell_volume                      1762.62029104

loop_
_atom_site_label
_atom_site_type_symbol
_atom_type_description
_atom_site_fract_x
_atom_site_fract_y
_atom_site_fract_z
_atom_type_partial_charge
C1    C     C_R   0.498485 0.740332 0.495664 0.892813
C2    C     C_R   0.531044 0.450871 0.262890 -0.031503
C3    C     C_R   0.238503 0.894262 0.490943 -0.158239
C4    C     C_R   0.480990 0.498543 0.653384 0.862094
C5    C     C_R   0.118973 0.958585 0.518592 -0.151857
C6    C     C_R   0.125584 0.071783 0.560458 -0.149376
C7    C     C_R   0.251236 0.126390 0.567172 -0.123417
C8    C     C_R   0.372200 0.067155 0.532079 0.107707
C9    C     C_R   0.367597 0.942853 0.505175 0.121399
C10   C     C_R   0.492928 0.874490 0.493677 -0.121696
C11   C     C_R   0.617089 0.935541 0.492707 -0.221757
C12   C     C_R   0.346480 0.437733 0.777555 -0.183865
C13   C     C_R   0.619036 0.062452 0.502630 -0.210762
C14   C     C_R   0.497187 0.129057 0.519579 -0.132713
C15   C     C_R   0.842364 0.663500 0.605990 -0.169882
C16   C     C_R   0.499272 0.261240 0.508460 0.881332
C17   C     C_R   0.903961 0.743244 0.658463 -0.334839
C18   C     C_R   0.044469 0.743131 0.659189 0.020188
C19   C     C_R   0.123004 0.661896 0.606337 -0.159450
C20   C     C_R   0.063625 0.580070 0.552420 0.099464
C21   C     C_R   0.918988 0.580413 0.552289 0.175401
C22   C     C_R   0.936902 0.422817 0.450175 -0.129447
C23   C     C_R   0.437249 0.332978 0.156015 -0.160408
C24   C     C_R   0.080255 0.422893 0.450165 -0.111453
C25   C     C_R   0.519026 0.492780 0.346817 0.863817
C26   C     C_R   0.469515 0.477740 0.739284 -0.017486
C27   C     C_R   0.585579 0.484455 0.781641 -0.207540
C28   C     C_R   0.580286 0.447035 0.860419 -0.147368
C29   C     C_R   0.458906 0.401192 0.897596 0.204189
C30   C     C_R   0.341343 0.399911 0.856544 -0.173983
C31   C     C_2   0.108032 0.829981 0.714754 0.405716
C32   C     C_R   0.424370 0.383177 0.233591 -0.202772
C33   C     C_R   0.653253 0.462992 0.214816 -0.205348
C34   C     C_R   0.665237 0.414329 0.136327 -0.169463
C35   C     C_R   0.555504 0.353017 0.105957 0.204889
C36   C     C_2   0.448689 0.367900 0.981996 -0.225235
C37   C     C_2   0.557126 0.332152 0.019184 -0.241845
H1    H     H_    0.681058 0.516848 0.753582 0.158763
H2    H     H_    0.734569 0.670301 0.609566 0.218881
H3    H     H_    0.841103 0.805797 0.698595 0.155289
H4    H     H_    0.331297 0.367646 0.270874 0.150735
H5    H     H_    0.230003 0.666123 0.608139 0.240880
H6    H     H_    0.141278 0.359915 0.409557 0.143834
H7    H     H_    0.738038 0.511771 0.237392 0.150289
H8    H     H_    0.654301 0.312500 0.985389 0.146524
H9    H     H_    0.246086 0.368304 0.885371 0.126666
H10   H     H_    0.352871 0.282730 0.134140 0.129296
H11   H     H_    0.255499 0.431900 0.745851 0.154390
H12   H     H_    0.757092 0.430407 0.098041 0.123766
H13   H     H_    0.351913 0.388461 0.016146 0.149892
H14   H     H_    0.670767 0.456380 0.892106 0.125591
H15   H     H_    0.044757 0.892187 0.755087 0.055665
H16   H     H_    0.713575 0.885606 0.482807 0.170813
H17   H     H_    0.226705 0.809632 0.455959 0.166101
H18   H     H_    0.021224 0.919147 0.508943 0.140805
H19   H     H_    0.033269 0.119323 0.585257 0.133712
H20   H     H_    0.252825 0.214952 0.599800 0.151489
H21   H     H_    0.716077 0.108361 0.495212 0.168379
H22   H     H_    0.889759 0.359850 0.409551 0.144282
N1    N     N_R   0.857140 0.501200 0.500750 -0.117791
N2    N     N_R   0.142740 0.501280 0.500770 -0.121423
O1    O     O_R   0.385310 0.683220 0.500000 -0.646872
O2    O     O_R   0.614640 0.683250 0.500010 -0.638052
O3    O     O_R   0.371780 0.500010 0.615800 -0.642749
O4    O     O_R   0.601110 0.500030 0.615800 -0.638389
O5    O     O_R   0.385360 0.316750 0.499990 -0.627460
O6    O     O_R   0.614690 0.316780 0.500000 -0.616218
O7    O     O_R   0.398890 0.499970 0.384200 -0.618298
O8    O     O_R   0.628220 0.499990 0.384200 -0.612996
O9    O     O_2   0.231332 0.833678 0.716052 -0.581320
Zn1   Zn    Zn3+2 0.346870 0.499980 0.499990 0.924327
Zn2   Zn    Zn3+2 0.653130 0.500020 0.500010 0.933898

loop_
_geom_bond_atom_site_label_1
_geom_bond_atom_site_label_2
_ccdc_geom_bond_type
O8    Zn2   S    
C4    C26   S    
C32   H4    S    
C24   N2    A    
C3    C9    A    
O4    Zn2   S    
C9    C10   A    
C4    O3    A    
O5    Zn1   S    
C11   H16   S    
C19   H5    S    
C30   H9    S    
C31   H15   S    
C12   H11   S    
C23   C32   A    
N2    Zn1   S    
C22   C24   A    
C33   C34   A    
C36   H13   S    
C7    C8    A    
C22   H22   S    
C16   O6    A    
C13   C14   A    
C1    O1    A    
C11   C13   A    
C29   C36   S    
C15   H2    S    
C26   C27   A    
C6    C7    A    
C25   O7    A    
O7    Zn1   S    
C1    O2    A    
C2    C33   A    
C36   C37   D    
C35   C37   S    
C5    H18   S    
O1    Zn1   S    
C17   C18   A    
C2    C25   S    
C23   C35   A    
C22   N1    A    
C5    C6    A    
C3    H17   S    
C14   C16   S    
O2    Zn2   S    
C25   O8    A    
C10   C11   A    
N1    Zn2   S    
C27   H1    S    
C29   C30   A    
C20   N2    A    
C28   C29   A    
C3    C5    A    
C15   C21   A    
O6    Zn2   S    
C23   H10   S    
C20   C21   A    
C21   N1    A    
C2    C32   A    
C34   C35   A    
O3    Zn1   S    
C12   C26   A    
C27   C28   A    
C15   C17   A    
C24   H6    S    
C4    O4    A    
C18   C19   A    
C16   O5    A    
C8    C14   A    
C13   H21   S    
C12   C30   A    
C28   H14   S    
C33   H7    S    
C37   H8    S    
C7    H20   S    
C31   O9    D    
C1    C10   S    
C19   C20   A    
C18   C31   S    
C6    H19   S    
C8    C9    A    
C34   H12   S    
C17   H3    S    
