data_mof_unit_53512.cif
_audit_creation_date              2012-12-10T22:11:07-0500
_audit_creation_method            fapswitch 2.2
_symmetry_space_group_name_H-M    P1
_symmetry_Int_Tables_number       1
_space_group_crystal_system       triclinic
_cell_length_a                    12.170839
_cell_length_b                    12.315886
_cell_length_c                    22.94086
_cell_angle_alpha                 91.630976
_cell_angle_beta                  91.125674
_cell_angle_gamma                 90.620049
_cell_volume                      3436.43321858

loop_
_atom_site_label
_atom_site_type_symbol
_atom_type_description
_atom_site_fract_x
_atom_site_fract_y
_atom_site_fract_z
_atom_type_partial_charge
C1    C     C_R   0.651959 0.998905 0.581620 0.927619
C2    C     C_R   0.344790 0.001124 0.419832 0.882439
C3    C     C_R   0.903174 0.821357 0.118665 -0.200929
C4    C     C_R   0.103884 0.189744 0.873938 -0.233477
C5    C     C_R   0.072916 0.845644 0.200465 -0.216941
C6    C     C_R   0.917596 0.144187 0.805765 -0.225685
C7    C     C_R   0.074738 0.761852 0.159523 -0.163046
C8    C     C_R   0.916731 0.228052 0.846506 -0.149975
C9    C     C_R   0.919310 0.198199 0.209932 0.095398
C10   C     C_R   0.085986 0.809904 0.794082 0.084540
C11   C     C_R   0.920172 0.277428 0.168391 -0.131766
C12   C     C_R   0.084952 0.730429 0.835355 -0.120133
C13   C     C_R   0.099997 0.924847 0.328204 -0.165062
C14   C     C_R   0.889555 0.081242 0.676553 -0.177177
C15   C     C_R   0.182324 0.920380 0.370314 -0.115555
C16   C     C_R   0.806021 0.085907 0.635384 -0.091422
C17   C     C_R   0.905983 0.091029 0.345989 0.249342
C18   C     C_R   0.124348 0.893046 0.670589 0.310174
C19   C     C_R   0.837608 0.061990 0.392134 0.307723
C20   C     C_R   0.227028 0.893975 0.644948 0.359208
C21   C     C_3   0.994465 0.018772 0.248354 -0.022672
C22   C     C_3   0.003312 0.983691 0.751452 -0.039628
C23   C     C_R   0.653900 0.000931 0.420746 1.043781
C24   C     C_R   0.351919 0.998444 0.582662 0.924363
C25   C     C_R   0.098108 0.009137 0.287487 0.098059
C26   C     C_R   0.899542 0.990852 0.712798 0.121456
C27   C     C_R   0.264378 0.000115 0.372885 0.015963
C28   C     C_R   0.731233 0.999861 0.628975 -0.003546
C29   C     C_R   0.900549 0.023490 0.293091 -0.132426
C30   C     C_R   0.096488 0.984278 0.706913 -0.090881
C31   C     C_R   0.741981 0.000359 0.379325 -0.379326
C32   C     C_R   0.274630 0.995281 0.630914 -0.365033
C33   C     C_R   0.999810 0.116719 0.209697 0.162989
C34   C     C_R   0.000640 0.885978 0.790868 0.120972
C35   C     C_R   0.001078 0.276015 0.126167 -0.016796
C36   C     C_R   0.999139 0.725949 0.874510 -0.045813
C37   C     C_R   0.984797 0.920619 0.203434 -0.075352
C38   C     C_R   0.012606 0.080678 0.796146 -0.040208
C39   C     C_R   0.989839 0.749302 0.118921 -0.112175
C40   C     C_R   0.009674 0.251197 0.880557 -0.095045
C41   C     C_R   0.992819 0.661869 0.075596 0.883576
C42   C     C_R   0.007151 0.338177 0.924297 0.889961
C43   C     C_R   0.999511 0.354571 0.081313 0.865244
C44   C     C_R   0.000458 0.646263 0.918992 0.868544
C45   C     C_R   0.187012 0.083999 0.288193 -0.075447
C46   C     C_R   0.816527 0.909630 0.709286 -0.062272
C47   C     C_R   0.269042 0.079434 0.330758 -0.083946
C48   C     C_R   0.733666 0.913946 0.667273 -0.117514
C49   C     C_R   0.818264 0.941406 0.289277 -0.181534
C50   C     C_R   0.152828 0.083210 0.698192 -0.242775
C51   C     C_R   0.732194 0.939131 0.327287 0.407036
C52   C     C_R   0.239455 0.090806 0.660291 0.432226
C53   C     C_R   0.081553 0.118395 0.166897 -0.211687
C54   C     C_R   0.914868 0.879638 0.831322 -0.198709
C55   C     C_R   0.082996 0.198089 0.126082 -0.149241
C56   C     C_R   0.913240 0.799495 0.872033 -0.155317
C57   C     C_R   0.898642 0.908282 0.158863 0.458216
C58   C     C_R   0.107971 0.103408 0.833346 0.414954
H1    H     H_    0.143667 0.056162 0.164660 0.157165
H2    H     H_    0.848859 0.937828 0.831544 0.156934
H3    H     H_    0.145798 0.851722 0.227777 0.179338
H4    H     H_    0.839723 0.127842 0.783793 0.172026
H5    H     H_    0.855203 0.201186 0.241851 0.152293
H6    H     H_    0.156297 0.812327 0.766840 0.202239
H7    H     H_    0.034800 0.864274 0.328330 0.165471
H8    H     H_    0.947925 0.147987 0.679395 0.162968
H9    H     H_    0.145704 0.196512 0.093182 0.167702
H10   H     H_    0.846772 0.797216 0.902736 0.172295
H11   H     H_    0.143770 0.706952 0.159417 0.174656
H12   H     H_    0.842006 0.274080 0.851767 0.178769
H13   H     H_    0.857210 0.338965 0.168817 0.150365
H14   H     H_    0.152095 0.673460 0.837214 0.169337
H15   H     H_    0.191420 0.151092 0.259200 0.168742
H16   H     H_    0.817861 0.838389 0.735456 0.177288
O1    O     O_R   0.621380 0.090460 0.561410 -0.605272
O2    O     O_R   0.378620 0.909540 0.438590 -0.605791
O3    O     O_R   0.617150 0.909540 0.438590 -0.552558
O4    O     O_R   0.382850 0.090460 0.561410 -0.549408
O5    O     O_R   0.619720 0.093230 0.440890 -0.616051
O6    O     O_R   0.380280 0.906770 0.559110 -0.568243
O7    O     O_R   0.618800 0.906770 0.559110 -0.599379
O8    O     O_R   0.381200 0.093230 0.440890 -0.613985
O9    O     O_R   0.087590 0.627480 0.058790 -0.615129
O10   O     O_R   0.912410 0.372520 0.941210 -0.616918
O11   O     O_R   0.905660 0.383870 0.059980 -0.601266
O12   O     O_R   0.094340 0.616130 0.940020 -0.607565
O13   O     O_R   0.092570 0.390420 0.063230 -0.628895
O14   O     O_R   0.907430 0.609580 0.936770 -0.625345
O15   O     O_R   0.900680 0.620930 0.055550 -0.619186
O16   O     O_R   0.099320 0.379070 0.944450 -0.622795
Zn1   Zn    Zn3+2 0.501730 0.123520 0.501540 1.142191
Zn2   Zn    Zn3+2 0.498270 0.876480 0.498460 1.170732
Zn3   Zn    Zn3+2 0.125690 0.504390 0.002180 1.013420
Zn4   Zn    Zn3+2 0.874310 0.495610 0.997820 1.019052
H17   H     H_    0.334261 0.140113 0.331958 0.159237
H18   H     H_    0.673716 0.848303 0.663419 0.185602
H19   H     H_    0.815579 0.879934 0.255221 0.215067
H20   H     H_    0.128117 0.157083 0.720371 0.206292
S1    S     S_3+6 0.785875 0.996444 0.144317 0.012865
O17   O     O_2   0.740324 0.053395 0.196955 -0.312385
O18   O     O_2   0.822810 0.079179 0.101769 -0.313003
O19   O     O_3   0.682447 0.923141 0.112515 -0.525827
H21   H     H_    0.628211 0.977391 0.099727 0.398016
S2    S     S_3+6 0.231171 0.026082 0.839870 0.025766
O20   O     O_2   0.212562 0.939848 0.883723 -0.262160
O21   O     O_2   0.270187 0.973489 0.784482 -0.314441
O22   O     O_3   0.333773 0.107470 0.865952 -0.511384
H22   H     H_    0.346608 0.159888 0.834755 0.373814
S3    S     S_3+6 0.989607 0.211931 0.358527 0.075266
O23   O     O_2   0.088620 0.187865 0.395628 -0.176642
O24   O     O_2   0.030058 0.265151 0.305078 -0.352716
O25   O     O_3   0.914471 0.304092 0.395048 -0.437829
H23   H     H_    0.850466 0.317501 0.368997 0.344591
S4    S     S_3+6 0.028294 0.791799 0.643527 0.057880
O26   O     O_2   0.975227 0.731496 0.691623 -0.321620
O27   O     O_2   0.941728 0.846826 0.607811 -0.277099
O28   O     O_3   0.088171 0.700208 0.599131 -0.444468
H24   H     H_    0.027528 0.651940 0.584430 0.399198
S5    S     S_3+6 0.616038 0.856130 0.308308 0.052803
O29   O     O_2   0.618070 0.755961 0.344210 -0.266738
O30   O     O_2   0.512410 0.917663 0.319930 -0.342970
O31   O     O_3   0.618187 0.819025 0.237191 -0.502608
H25   H     H_    0.549924 0.775765 0.230056 0.387593
S6    S     S_3+6 0.307541 0.219088 0.657766 0.059608
O32   O     O_2   0.429914 0.204128 0.661482 -0.282595
O33   O     O_2   0.277274 0.272263 0.601588 -0.242897
O34   O     O_3   0.269844 0.300586 0.713846 -0.569883
H26   H     H_    0.308530 0.370476 0.707946 0.392067
H27   H     H_    0.840493 0.811633 0.084691 0.212370
H28   H     H_    0.173588 0.206824 0.902918 0.208473
H29   H     H_    0.179290 0.857423 0.402309 0.177528
H30   H     H_    0.802936 0.154549 0.606946 0.203715
S7    S     S_3+6 0.880751 0.080212 0.466871 0.086451
O35   O     O_2   0.843572 0.188635 0.490240 -0.245851
O36   O     O_2   0.830876 0.991930 0.501897 -0.327776
O37   O     O_3   0.017576 0.070387 0.475600 -0.479687
H31   H     H_    0.031494 0.079060 0.518189 0.383162
S8    S     S_3+6 0.307313 0.773415 0.648598 0.108914
O38   O     O_2   0.309348 0.715531 0.590024 -0.210258
O39   O     O_2   0.422947 0.803595 0.667430 -0.305372
O40   O     O_3   0.254698 0.688234 0.697093 -0.528531
H32   H     H_    0.303923 0.624712 0.696433 0.387992

loop_
_geom_bond_atom_site_label_1
_geom_bond_atom_site_label_2
_ccdc_geom_bond_type
C16   C28   A    
C41   O15   A    
O3    Zn2   S    
C5    C37   A    
C17   C29   A    
C19   C31   A    
C18   S4    S    
S2    O21   D    
S4    O26   D    
C53   H1    S    
C39   C41   S    
C54   H2    S    
O9    Zn3   S    
S3    O24   D    
C11   H13   S    
C15   H29   S    
C21   C33   S    
C1    O7    A    
C41   O9    A    
C48   H18   S    
C55   H9    S    
C45   H15   S    
C45   C47   A    
C20   S8    S    
O15   Zn4   S    
O25   H23   S    
C38   C58   A    
O7    Zn2   S    
C15   C27   A    
C24   O6    A    
C32   C52   A    
C4    C40   A    
C49   C51   A    
C1    C28   S    
C50   C52   A    
O22   H22   S    
C6    C38   A    
C2    C27   S    
C18   C30   A    
C12   C36   A    
C35   C43   S    
O5    Zn1   S    
O1    Zn1   S    
C40   C42   S    
C30   C50   A    
C3    C39   A    
C9    H5    S    
C9    C33   A    
C13   C25   A    
O40   H32   S    
C44   O12   A    
S2    O20   D    
C46   C48   A    
C53   C55   A    
C33   C53   A    
C22   C34   S    
O14   Zn4   S    
C50   H20   S    
C35   C55   A    
C1    O1    A    
C42   O10   A    
S3    O23   D    
S3    O25   S    
C5    C7    A    
C29   C49   A    
C56   H10   S    
C21   C29   S    
C14   C26   A    
O8    Zn1   S    
S4    O27   D    
C42   O16   A    
C43   O11   A    
O6    Zn2   S    
C16   H30   S    
C24   C32   S    
C36   C56   A    
O12   Zn3   S    
S7    O37   S    
O11   Zn4   S    
C51   S5    S    
S1    O17   D    
C14   H8    S    
C5    H3    S    
C10   C34   A    
O10   Zn4   S    
C23   O3    A    
C9    C11   A    
S5    O30   D    
C10   C12   A    
O2    Zn2   S    
S6    O34   S    
C3    C57   A    
C24   O4    A    
S1    O18   D    
C34   C54   A    
C13   C15   A    
S7    O35   D    
C14   C16   A    
C36   C44   S    
C58   S2    S    
O34   H26   S    
C25   C45   A    
C46   H16   S    
C2    O2    A    
C4    H28   S    
O16   Zn3   S    
S6    O33   D    
C20   C32   A    
S5    O31   S    
C27   C47   A    
C21   C25   S    
C28   C48   A    
C47   H17   S    
C22   C30   S    
C3    H27   S    
C10   H6    S    
C31   C51   A    
O37   H31   S    
S8    O40   S    
C17   S3    S    
C7    H11   S    
C6    C8    A    
S5    O29   D    
C54   C56   A    
S8    O39   D    
O4    Zn1   S    
C19   S7    S    
C8    H12   S    
C43   O13   A    
C6    H4    S    
C11   C35   A    
O28   H24   S    
C52   S6    S    
O13   Zn3   S    
C17   C19   A    
C18   C20   A    
C12   H14   S    
O19   H21   S    
C13   H7    S    
S4    O28   S    
C2    O8    A    
S8    O38   D    
C26   C46   A    
C49   H19   S    
S1    O19   S    
C21   C37   S    
C22   C26   S    
C4    C58   A    
S7    O36   D    
C7    C39   A    
C8    C40   A    
C23   O5    A    
O31   H25   S    
C44   O14   A    
S2    O22   S    
C37   C57   A    
C23   C31   S    
S6    O32   D    
C22   C38   S    
C57   S1    S    
