data_mof_unit_60721.cif
_audit_creation_date              2012-10-26T19:37:18-0400
_audit_creation_method            fapswitch 2.2
_symmetry_space_group_name_H-M    P1
_symmetry_Int_Tables_number       1
_space_group_crystal_system       triclinic
_cell_length_a                    10.970812
_cell_length_b                    15.891232
_cell_length_c                    17.117532
_cell_angle_alpha                 95.966299
_cell_angle_beta                  91.938033
_cell_angle_gamma                 91.806305
_cell_volume                      2964.55954702

loop_
_atom_site_label
_atom_site_type_symbol
_atom_type_description
_atom_site_fract_x
_atom_site_fract_y
_atom_site_fract_z
_atom_type_partial_charge
C1    C     C_R   0.500008 0.489784 0.348698 0.567899
C2    C     C_R   0.501133 0.515828 0.737346 -0.008780
C3    C     C_R   0.508951 0.595067 0.782203 -0.120009
C4    C     C_R   0.265766 0.500784 0.500676 0.580368
C5    C     C_R   0.509375 0.600757 0.864432 0.118418
C6    C     C_R   0.437503 0.755051 0.463657 0.230357
C7    C     C_R   0.440986 0.844782 0.469787 0.114752
C8    C     C_R   0.528378 0.891748 0.521518 0.232564
C9    C     C_R   0.605338 0.845740 0.567224 -0.165079
C10   C     C_R   0.596907 0.756671 0.560895 -0.006109
C11   C     C_R   0.563601 0.161205 0.539580 -0.126923
C12   C     C_R   0.508648 0.558696 0.225095 -0.141781
C13   C     C_R   0.562663 0.250230 0.540211 0.214355
C14   C     C_R   0.485293 0.109635 0.487255 0.169014
C15   C     C_R   0.407318 0.237601 0.439415 0.192702
C16   C     C_R   0.500808 0.510240 0.651306 0.555171
C17   C     C_R   0.407514 0.149114 0.437270 -0.113129
C18   C     C_R   0.735040 0.499865 0.502500 0.552134
C19   C     C_2   0.941203 0.568266 0.509343 0.120141
C20   C     C_2   0.867057 0.499696 0.517514 0.065731
C21   C     C_2   0.071653 0.566299 0.527649 0.156280
C22   C     C_2   0.134825 0.502441 0.493695 -0.064837
C23   C     C_R   0.508609 0.554096 0.143601 -0.077027
C24   C     C_R   0.501155 0.484498 0.262689 0.014565
C25   C     C_R   0.501377 0.474640 0.098090 0.226162
C26   C     C_R   0.495081 0.400831 0.135749 -0.099852
C27   C     C_R   0.495109 0.405457 0.217412 -0.133482
C28   C     C_R   0.494402 0.446927 0.856631 -0.113188
C29   C     C_R   0.493612 0.441957 0.775184 -0.163441
C30   C     C_R   0.502605 0.526410 0.902102 0.261708
Cu1   Cu    Cu3+1 0.494040 0.415220 0.496180 1.028666
Cu2   Cu    Cu3+1 0.505960 0.584780 0.503820 1.003319
H1    H     H_    0.514146 0.612722 0.116653 0.153561
H2    H     H_    0.489914 0.339449 0.101528 0.129443
H3    H     H_    0.490364 0.347162 0.244913 0.160860
H4    H     H_    0.514618 0.652566 0.753419 0.137739
H5    H     H_    0.850575 0.630409 0.427580 0.247167
H6    H     H_    0.845085 0.676435 0.522998 0.255672
H7    H     H_    0.527998 0.730396 0.874266 0.226438
H8    H     H_    0.434733 0.690640 0.937887 0.243245
H9    H     H_    0.626401 0.288073 0.650465 0.203174
H10   H     H_    0.733385 0.282973 0.581735 0.206631
H11   H     H_    0.265904 0.869953 0.439641 0.261493
H12   H     H_    0.514597 0.620481 0.258517 0.156341
H13   H     H_    0.365704 0.870746 0.365064 0.248758
H14   H     H_    0.872640 0.417547 0.600418 0.247303
H15   H     H_    0.896131 0.373688 0.507899 0.243763
H16   H     H_    0.625885 0.133351 0.579194 0.127934
H17   H     H_    0.672116 0.879011 0.608223 0.123704
H18   H     H_    0.656571 0.723067 0.597484 0.132603
H19   H     H_    0.345990 0.110592 0.396360 0.151582
H20   H     H_    0.088924 0.451196 0.455702 0.122731
H21   H     H_    0.487030 0.380078 0.741928 0.141854
H22   H     H_    0.488591 0.388370 0.883667 0.144229
I1    I     I_    0.280630 0.285251 0.360233 -0.354574
I2    I     I_    0.306882 0.691512 0.379800 -0.329044
I3    I     I_    0.147435 0.668295 0.607478 -0.301328
N1    N     N_2   0.500027 0.465955 0.014813 -0.252883
N2    N     N_3   0.354112 0.887642 0.424940 -0.584218
N3    N     N_3   0.916333 0.426558 0.548436 -0.653958
N4    N     N_2   0.504310 0.534500 0.985475 -0.216694
N5    N     N_R   0.514910 0.712130 0.509560 -0.230299
N6    N     N_2   0.540590 0.983312 0.530843 -0.224702
N7    N     N_2   0.480594 0.018936 0.480939 -0.169251
N8    N     N_R   0.485090 0.287850 0.490450 -0.189112
N9    N     N_3   0.899203 0.644818 0.481148 -0.587884
N10   N     N_3   0.517816 0.681782 0.910529 -0.598326
N11   N     N_3   0.644588 0.301349 0.593366 -0.554564
O1    O     O_R   0.494430 0.420530 0.382500 -0.486561
O2    O     O_R   0.504490 0.563720 0.388950 -0.488548
O3    O     O_R   0.316910 0.428420 0.496780 -0.476166
O4    O     O_R   0.326970 0.571610 0.503230 -0.445819
O5    O     O_R   0.495510 0.436280 0.611050 -0.478284
O6    O     O_R   0.505570 0.579470 0.617500 -0.506863
O7    O     O_R   0.673030 0.428390 0.496770 -0.475175
O8    O     O_R   0.683090 0.571580 0.503220 -0.532639

loop_
_geom_bond_atom_site_label_1
_geom_bond_atom_site_label_2
_ccdc_geom_bond_type
C18   O7    A    
C19   C20   D    
C24   C27   A    
C5    N10   S    
C17   H19   S    
C7    C8    A    
Cu2   O4    S    
C13   N8    A    
C12   C23   A    
C26   C27   A    
C2    C29   A    
C16   O6    A    
C28   C29   A    
C19   C21   S    
Cu2   O6    S    
C11   C14   A    
Cu1   O5    S    
C15   N8    A    
C19   N9    S    
C15   C17   A    
H15   N3    S    
C26   H2    S    
H6    N9    S    
C8    C9    A    
C23   H1    S    
H8    N10   S    
C20   N3    S    
C2    C16   S    
C9    C10   A    
H11   N2    S    
N1    N4    D    
Cu1   O3    S    
C21   C22   D    
H10   N11   S    
C14   C17   A    
C11   H16   S    
C10   N5    A    
C7    N2    S    
H9    N11   S    
C16   O5    A    
C9    H17   S    
C28   H22   S    
Cu2   O2    S    
C27   H3    S    
C25   C26   A    
C1    O1    A    
C15   I1    S    
C21   I3    S    
C4    C22   S    
Cu1   O7    S    
Cu1   Cu2   S    
C14   N7    S    
H5    N9    S    
C25   N1    S    
C10   H18   S    
C4    O4    A    
C22   H20   S    
C5    C30   A    
Cu1   N8    S    
H13   N2    S    
C18   O8    A    
H14   N3    S    
H7    N10   S    
C6    I2    S    
C3    C5    A    
Cu2   O8    S    
C6    C7    A    
C12   C24   A    
C1    O2    A    
C6    N5    A    
C28   C30   A    
C2    C3    A    
Cu2   N5    S    
C12   H12   S    
C11   C13   A    
C29   H21   S    
C3    H4    S    
C18   C20   S    
C23   C25   A    
C8    N6    S    
N6    N7    D    
Cu1   O1    S    
C1    C24   S    
C30   N4    S    
C4    O3    A    
C13   N11   S    
