data_mof_unit_61257.cif
_audit_creation_date              2013-03-05T16:13:17-0500
_audit_creation_method            fapswitch 2.2
_symmetry_space_group_name_H-M    P1
_symmetry_Int_Tables_number       1
_space_group_crystal_system       triclinic
_cell_length_a                    30.347889
_cell_length_b                    30.347969
_cell_length_c                    18.364662
_cell_angle_alpha                 89.999153
_cell_angle_beta                  90.000136
_cell_angle_gamma                 90.000073
_cell_volume                      16913.7948338

loop_
_atom_site_label
_atom_site_type_symbol
_atom_site_description
_atom_site_fract_x
_atom_site_fract_y
_atom_site_fract_z
_atom_type_partial_charge
O1    O     O_R   0.435730 0.037210 0.500000 -0.575438
O2    O     O_R   0.962790 0.435730 0.500000 -0.575437
O3    O     O_R   0.564270 0.962790 0.500000 -0.575439
O4    O     O_R   0.037210 0.564270 0.500000 -0.575436
O5    O     O_R   0.564270 0.037210 0.500000 -0.575439
O6    O     O_R   0.037210 0.435730 0.500000 -0.575436
O7    O     O_R   0.435730 0.962790 0.500000 -0.575437
O8    O     O_R   0.962790 0.564270 0.500000 -0.575435
O9    O     O_R   0.935730 0.537210 0.000000 -0.575443
O10   O     O_R   0.462790 0.935730 0.000000 -0.575434
O11   O     O_R   0.064270 0.462790 0.000000 -0.575443
O12   O     O_R   0.537210 0.064270 0.000000 -0.575431
O13   O     O_R   0.064270 0.537210 0.000000 -0.575443
O14   O     O_R   0.537210 0.935730 0.000000 -0.575424
O15   O     O_R   0.935730 0.462790 0.000000 -0.575442
O16   O     O_R   0.462790 0.064270 0.000000 -0.575433
C1    C     C_R   0.225835 0.999999 0.500000 -0.268492
C2    C     C_R   1.000000 0.225835 0.499998 -0.268483
C3    C     C_R   0.774165 0.999999 0.500001 -0.268492
C4    C     C_R   0.999999 0.774165 0.499999 -0.268487
C5    C     C_R   0.725834 0.500001 0.000004 -0.268513
C6    C     C_R   0.500010 0.725837 0.999979 -0.268503
C7    C     C_R   0.274166 0.500003 0.999997 -0.268520
C8    C     C_R   0.500004 0.274164 0.000009 -0.268484
C9    C     C_R   0.415032 1.000000 0.500000 0.782091
C10   C     C_R   1.000000 0.415031 0.500000 0.782088
C11   C     C_R   0.584968 0.000000 0.500000 0.782091
C12   C     C_R   1.000000 0.584968 0.500001 0.782089
C13   C     C_R   0.915031 0.500000 0.000000 0.782096
C14   C     C_R   0.500000 0.915032 0.000006 0.782085
C15   C     C_R   0.084969 0.500000 0.000000 0.782096
C16   C     C_R   0.500000 0.084968 0.999998 0.782083
O17   O     O_R   0.500010 0.037210 0.394200 -0.578061
O18   O     O_R   0.962790 0.500010 0.394200 -0.578061
O19   O     O_R   0.499990 0.962790 0.394200 -0.578065
O20   O     O_R   0.037210 0.499990 0.394200 -0.578059
O21   O     O_R   0.499990 0.037210 0.605800 -0.578063
O22   O     O_R   0.037210 0.500010 0.605800 -0.578061
O23   O     O_R   0.500010 0.962790 0.605800 -0.578059
O24   O     O_R   0.962790 0.499990 0.605800 -0.578060
O25   O     O_R   0.000010 0.537210 0.894200 -0.578061
O26   O     O_R   0.462790 0.000010 0.894200 -0.578056
O27   O     O_R   0.999990 0.462790 0.894200 -0.578062
O28   O     O_R   0.537210 0.999990 0.894200 -0.578062
O29   O     O_R   0.999990 0.537210 0.105800 -0.578061
O30   O     O_R   0.537210 0.000010 0.105800 -0.578060
O31   O     O_R   0.000010 0.462790 0.105800 -0.578062
O32   O     O_R   0.462790 0.999990 0.105800 -0.578064
C17   C     C_R   0.500000 0.000000 0.360184 0.833547
C18   C     C_R   1.000000 0.500000 0.360184 0.833545
C19   C     C_R   0.500000 1.000000 0.639816 0.833548
C20   C     C_R   1.000000 0.500000 0.639816 0.833542
C21   C     C_R   1.000000 0.500000 0.860184 0.833554
C22   C     C_R   0.500000 1.000000 0.860184 0.833539
C23   C     C_R   1.000000 0.500000 0.139816 0.833553
C24   C     C_R   0.500000 0.000000 0.139816 0.833528
Cu1   Cu    Cu3+1 0.500000 0.044060 0.500000 1.002828
Cu2   Cu    Cu3+1 0.955940 0.500000 0.500000 1.002840
Cu3   Cu    Cu3+1 0.500000 0.955940 0.500000 1.002830
Cu4   Cu    Cu3+1 0.044060 0.500000 0.500000 1.002843
Cu5   Cu    Cu3+1 0.000000 0.544060 0.000000 1.002828
Cu6   Cu    Cu3+1 0.455940 0.000000 0.000000 1.002846
Cu7   Cu    Cu3+1 1.000000 0.455940 0.000000 1.002825
Cu8   Cu    Cu3+1 0.544060 0.000000 0.000000 1.002846
O33   O     O_R   0.999990 0.935750 0.438770 -0.606047
O34   O     O_R   0.064250 0.999990 0.438770 -0.606032
O35   O     O_R   0.000010 0.064250 0.438770 -0.606034
O36   O     O_R   0.935750 0.000010 0.438770 -0.606036
O37   O     O_R   0.000010 0.935750 0.561230 -0.606035
O38   O     O_R   0.935750 0.999990 0.561230 -0.606032
O39   O     O_R   0.999990 0.064250 0.561230 -0.606034
O40   O     O_R   0.064250 0.000010 0.561230 -0.606039
O41   O     O_R   0.499990 0.435750 0.938770 -0.606024
O42   O     O_R   0.564250 0.499990 0.938770 -0.606040
O43   O     O_R   0.500010 0.564250 0.938770 -0.606093
O44   O     O_R   0.435750 0.500010 0.938770 -0.606033
O45   O     O_R   0.500010 0.435750 0.061230 -0.606049
O46   O     O_R   0.435750 0.499990 0.061230 -0.606046
O47   O     O_R   0.499990 0.564250 0.061230 -0.606026
O48   O     O_R   0.564250 0.500010 0.061230 -0.606026
C25   C     C_R   0.000001 0.914957 0.500000 0.976797
C26   C     C_R   0.085043 1.000000 0.500000 0.976808
C27   C     C_R   1.000000 0.085043 0.499999 0.976812
C28   C     C_R   0.914957 1.000000 0.500000 0.976815
C29   C     C_R   0.499999 0.414957 0.000001 0.976809
C30   C     C_R   0.585043 0.500001 0.000000 0.976832
C31   C     C_R   0.499996 0.585044 0.999999 0.976767
C32   C     C_R   0.414957 0.500001 1.000000 0.976785
C33   C     C_1   0.500000 0.000001 0.282650 -0.161159
C34   C     C_1   1.000000 0.499999 0.282650 -0.161153
C35   C     C_1   0.500000 0.999999 0.717349 -0.161155
C36   C     C_1   0.000000 0.500001 0.717350 -0.161153
C37   C     C_1   0.000000 0.500001 0.782650 -0.161153
C38   C     C_1   0.500000 0.999999 0.782650 -0.161157
C39   C     C_1   1.000000 0.499999 0.217349 -0.161152
C40   C     C_1   0.500000 0.000001 0.217350 -0.161158
C41   C     C_R   0.298020 0.979106 0.556328 -0.054337
C42   C     C_R   0.020888 0.298020 0.556332 -0.054339
C43   C     C_R   0.701980 0.020893 0.556328 -0.054338
C44   C     C_R   0.979116 0.701979 0.556339 -0.054345
C45   C     C_R   0.701980 0.979106 0.443673 -0.054339
C46   C     C_R   0.979112 0.298021 0.443666 -0.054337
C47   C     C_R   0.298020 0.020893 0.443672 -0.054337
C48   C     C_R   0.020883 0.701979 0.443664 -0.054347
C49   C     C_R   0.798020 0.479094 0.056317 -0.054339
C50   C     C_R   0.520857 0.798020 0.056367 -0.054370
C51   C     C_R   0.201981 0.520911 0.056309 -0.054349
C52   C     C_R   0.479131 0.201977 0.056352 -0.054342
C53   C     C_R   0.201980 0.479094 0.943687 -0.054340
C54   C     C_R   0.479148 0.798026 0.943632 -0.054362
C55   C     C_R   0.798019 0.520909 0.943689 -0.054350
C56   C     C_R   0.520872 0.201980 0.943651 -0.054350
H1    H     H_    0.280648 0.963211 0.600650 0.140319
H2    H     H_    0.036778 0.280646 0.600658 0.140312
H3    H     H_    0.719353 0.036786 0.600650 0.140314
H4    H     H_    0.963230 0.719351 0.600669 0.140326
H5    H     H_    0.719352 0.963212 0.399351 0.140315
H6    H     H_    0.963222 0.280649 0.399339 0.140313
H7    H     H_    0.280647 0.036787 0.399349 0.140315
H8    H     H_    0.036769 0.719352 0.399333 0.140348
H9    H     H_    0.780648 0.463189 0.100629 0.140316
H10   H     H_    0.536722 0.780646 0.100717 0.140336
H11   H     H_    0.219353 0.536818 0.100619 0.140318
H12   H     H_    0.463256 0.219348 0.100695 0.140368
H13   H     H_    0.219353 0.463188 0.899376 0.140322
H14   H     H_    0.463289 0.780656 0.899273 0.140482
H15   H     H_    0.780647 0.536814 0.899378 0.140322
H16   H     H_    0.536749 0.219354 0.899312 0.140320
C57   C     C_R   0.343957 0.978427 0.555576 -0.175276
C58   C     C_R   0.021567 0.343956 0.555581 -0.175282
C59   C     C_R   0.656043 0.021571 0.555576 -0.175282
C60   C     C_R   0.978438 0.656042 0.555588 -0.175284
C61   C     C_R   0.656043 0.978428 0.444425 -0.175280
C62   C     C_R   0.978433 0.343958 0.444418 -0.175282
C63   C     C_R   0.343957 0.021572 0.444424 -0.175282
C64   C     C_R   0.021562 0.656043 0.444416 -0.175289
C65   C     C_R   0.843957 0.478415 0.055563 -0.175280
C66   C     C_R   0.521534 0.843957 0.055622 -0.175293
C67   C     C_R   0.156044 0.521589 0.055558 -0.175277
C68   C     C_R   0.478451 0.156041 0.055599 -0.175295
C69   C     C_R   0.156043 0.478414 0.944440 -0.175279
C70   C     C_R   0.478467 0.843961 0.944389 -0.175316
C71   C     C_R   0.843956 0.521587 0.944441 -0.175280
C72   C     C_R   0.521550 0.156043 0.944400 -0.175287
H17   H     H_    0.361545 0.961859 0.599004 0.142782
H18   H     H_    0.038131 0.361544 0.599013 0.142769
H19   H     H_    0.638455 0.038140 0.599004 0.142775
H20   H     H_    0.961877 0.638454 0.599024 0.142767
H21   H     H_    0.638455 0.961860 0.400997 0.142777
H22   H     H_    0.961868 0.361546 0.400986 0.142769
H23   H     H_    0.361544 0.038141 0.400996 0.142777
H24   H     H_    0.038123 0.638456 0.400980 0.142772
H25   H     H_    0.861545 0.461835 0.098980 0.142786
H26   H     H_    0.538071 0.861544 0.099083 0.142743
H27   H     H_    0.138456 0.538169 0.098974 0.142789
H28   H     H_    0.461900 0.138452 0.099044 0.142766
H29   H     H_    0.138456 0.461833 0.901025 0.142788
H30   H     H_    0.461929 0.861551 0.900931 0.142774
H31   H     H_    0.861544 0.538166 0.901023 0.142788
H32   H     H_    0.538100 0.138456 0.900953 0.142755
C73   C     C_R   0.366997 1.000000 0.500000 -0.020275
C74   C     C_R   1.000000 0.366997 0.499999 -0.020264
C75   C     C_R   0.633003 1.000000 0.500000 -0.020272
C76   C     C_R   0.000000 0.633003 0.500002 -0.020261
C77   C     C_R   0.866996 0.500000 0.000001 -0.020285
C78   C     C_R   0.500000 0.866998 0.000007 -0.020235
C79   C     C_R   0.133004 0.500000 0.000000 -0.020288
C80   C     C_R   0.500000 0.133003 0.999998 -0.020249
Cu9   Cu    Cu3+1 1.000000 0.000000 0.427490 0.937006
Cu10  Cu    Cu3+1 1.000000 0.000000 0.572510 0.937010
Cu11  Cu    Cu3+1 0.500000 0.500000 0.927490 0.936974
Cu12  Cu    Cu3+1 0.500000 0.500000 0.072510 0.936991
C81   C     C_R   0.274666 0.999999 0.500000 0.234656
C82   C     C_R   1.000000 0.274666 0.499999 0.234660
C83   C     C_R   0.725334 0.999999 0.500001 0.234660
C84   C     C_R   0.999999 0.725333 0.500001 0.234613
C85   C     C_R   0.774666 0.500002 0.000003 0.234652
C86   C     C_R   0.500004 0.774668 0.999995 0.234474
C87   C     C_R   0.225335 0.500003 0.999997 0.234650
C88   C     C_R   0.500002 0.225333 0.000004 0.234598
C89   C     C_R   0.202428 0.039965 0.489815 0.210517
C90   C     C_R   0.960036 0.202428 0.489802 0.210516
C91   C     C_R   0.797571 0.960034 0.489817 0.210522
C92   C     C_R   0.039961 0.797571 0.489784 0.210564
C93   C     C_R   0.797572 0.039965 0.510185 0.210518
C94   C     C_R   0.039965 0.202429 0.510193 0.210514
C95   C     C_R   0.202428 0.960034 0.510185 0.210527
C96   C     C_R   0.960036 0.797571 0.510211 0.210528
C97   C     C_R   0.702428 0.539969 0.989844 0.210542
C98   C     C_R   0.460057 0.702432 0.989679 0.210753
C99   C     C_R   0.297572 0.460035 0.989840 0.210548
C100  C     C_R   0.539964 0.297571 0.989774 0.210518
C101  C     C_R   0.297573 0.539971 0.010152 0.210560
C102  C     C_R   0.539964 0.702428 0.010258 0.210534
C103  C     C_R   0.702428 0.460034 0.010164 0.210526
C104  C     C_R   0.460044 0.297570 0.010251 0.210599
C105  C     C_R   0.156350 0.038470 0.480752 0.272598
C106  C     C_R   0.961531 0.156350 0.480740 0.272594
C107  C     C_R   0.843650 0.961529 0.480754 0.272604
C108  C     C_R   0.038466 0.843649 0.480727 0.272589
C109  C     C_R   0.843650 0.038470 0.519248 0.272597
C110  C     C_R   0.038469 0.156350 0.519256 0.272595
C111  C     C_R   0.156350 0.961528 0.519247 0.272596
C112  C     C_R   0.961533 0.843650 0.519270 0.272597
C113  C     C_R   0.656349 0.538477 0.980782 0.272635
C114  C     C_R   0.461549 0.656355 0.980643 0.272540
C115  C     C_R   0.343650 0.461527 0.980779 0.272603
C116  C     C_R   0.538464 0.343650 0.980714 0.272590
C117  C     C_R   0.343652 0.538479 0.019213 0.272593
C118  C     C_R   0.538460 0.656349 0.019313 0.272607
C119  C     C_R   0.656349 0.461526 0.019226 0.272616
C120  C     C_R   0.461539 0.343648 0.019304 0.272558
C121  C     C_R   0.133326 0.999999 0.500000 -0.351130
C122  C     C_R   0.000000 0.133327 0.499998 -0.351135
C123  C     C_R   0.866673 0.999999 0.500000 -0.351132
C124  C     C_R   1.000000 0.866673 0.500000 -0.351147
C125  C     C_R   0.633326 0.500002 0.000002 -0.351141
C126  C     C_R   0.500000 0.633328 0.999990 -0.351196
C127  C     C_R   0.366674 0.500002 0.999998 -0.351125
C128  C     C_R   0.500000 0.366673 0.000005 -0.351159
N1    N     N_R   0.224897 0.081827 0.493576 0.144795
O49   O     O_R   0.254599 0.088491 0.543498 -0.339604
O50   O     O_R   0.212722 0.114911 0.453317 -0.305236
N2    N     N_R   0.918172 0.224897 0.493553 0.144795
O51   O     O_R   0.911503 0.254597 0.543476 -0.339601
O52   O     O_R   0.885093 0.212724 0.453284 -0.305249
N3    N     N_R   0.775103 0.918171 0.493579 0.144801
O53   O     O_R   0.745401 0.911507 0.543502 -0.339600
O54   O     O_R   0.787278 0.885088 0.453322 -0.305237
N4    N     N_R   0.081824 0.775102 0.493514 0.144842
O55   O     O_R   0.088511 0.745421 0.543462 -0.339572
O56   O     O_R   0.114882 0.787245 0.453170 -0.305352
N5    N     N_R   0.775103 0.081827 0.506423 0.144794
O57   O     O_R   0.745402 0.088492 0.456500 -0.339604
O58   O     O_R   0.787278 0.114911 0.546682 -0.305238
N6    N     N_R   0.081828 0.224898 0.506441 0.144795
O59   O     O_R   0.088496 0.254599 0.456520 -0.339599
O60   O     O_R   0.114908 0.212723 0.546709 -0.305247
N7    N     N_R   0.224897 0.918171 0.506423 0.144805
O61   O     O_R   0.254598 0.911507 0.456500 -0.339599
O62   O     O_R   0.212722 0.885088 0.546683 -0.305238
N8    N     N_R   0.918172 0.775103 0.506476 0.144812
O63   O     O_R   0.911494 0.745407 0.456550 -0.339586
O64   O     O_R   0.885101 0.787270 0.546770 -0.305279
N9    N     N_R   0.724897 0.581831 0.993628 0.144831
O65   O     O_R   0.754595 0.588486 0.043560 -0.339577
O66   O     O_R   0.712728 0.614920 0.953375 -0.305250
N10   N     N_R   0.418195 0.724904 0.993307 0.145011
O67   O     O_R   0.411431 0.754507 0.043348 -0.339492
O68   O     O_R   0.385226 0.712881 0.952662 -0.305768
N11   N     N_R   0.275102 0.418174 0.993627 0.144812
O69   O     O_R   0.245405 0.411519 0.043560 -0.339591
O70   O     O_R   0.287272 0.385084 0.953378 -0.305272
N12   N     N_R   0.581828 0.275103 0.993488 0.144805
O71   O     O_R   0.588514 0.245402 0.043405 -0.339589
O72   O     O_R   0.614894 0.287276 0.953187 -0.305275
N13   N     N_R   0.275104 0.581833 0.006361 0.144828
O73   O     O_R   0.245402 0.588485 0.956434 -0.339578
O74   O     O_R   0.287280 0.614926 0.046596 -0.305271
N14   N     N_R   0.581831 0.724896 0.006590 0.144831
O75   O     O_R   0.588536 0.754597 0.956681 -0.339559
O76   O     O_R   0.614881 0.712723 0.046927 -0.305309
N15   N     N_R   0.724896 0.418172 0.006379 0.144801
O77   O     O_R   0.754598 0.411518 0.956454 -0.339595
O78   O     O_R   0.712720 0.385080 0.046619 -0.305230
N16   N     N_R   0.418181 0.275100 0.006552 0.144861
O79   O     O_R   0.411476 0.245432 0.956592 -0.339574
O80   O     O_R   0.385142 0.287224 0.046954 -0.305430
O81   O     O_3   0.133228 0.075963 0.461574 -0.498823
C129  C     C_3   0.130419 0.077784 0.384749 0.131754
H33   H     H_    0.112634 0.048727 0.362468 0.126092
H34   H     H_    0.163709 0.079007 0.359341 0.155449
C130  C     C_3   0.105392 0.119071 0.362538 -0.642110
H35   H     H_    0.121599 0.148739 0.385729 0.296308
H36   H     H_    0.104869 0.121917 0.302268 0.172640
H37   H     H_    0.070941 0.117305 0.382546 0.233003
O82   O     O_3   0.924040 0.133228 0.461557 -0.498820
C131  C     C_3   0.922224 0.130418 0.384732 0.131758
H38   H     H_    0.951282 0.112633 0.362457 0.126094
H39   H     H_    0.921002 0.163707 0.359321 0.155448
C132  C     C_3   0.880938 0.105390 0.362516 -0.642117
H40   H     H_    0.851269 0.121598 0.385699 0.296300
H41   H     H_    0.878097 0.104864 0.302246 0.172637
H42   H     H_    0.882702 0.070940 0.382530 0.233015
O83   O     O_3   0.866772 0.924036 0.461580 -0.498823
C133  C     C_3   0.869582 0.922214 0.384755 0.131749
H43   H     H_    0.887368 0.951270 0.362473 0.126095
H44   H     H_    0.836293 0.920991 0.359346 0.155450
C134  C     C_3   0.894608 0.880926 0.362548 -0.642124
H45   H     H_    0.878401 0.851259 0.385741 0.296304
H46   H     H_    0.895132 0.878079 0.302279 0.172644
H47   H     H_    0.929059 0.882691 0.382557 0.233000
O84   O     O_3   0.075958 0.866769 0.461541 -0.498833
C135  C     C_3   0.077767 0.869591 0.384716 0.131747
H48   H     H_    0.048712 0.887388 0.362456 0.126117
H49   H     H_    0.078975 0.836306 0.359292 0.155463
C136  C     C_3   0.119058 0.894610 0.362500 -0.642093
H50   H     H_    0.148725 0.878388 0.385667 0.296291
H51   H     H_    0.121893 0.895145 0.302229 0.172630
H52   H     H_    0.117308 0.929057 0.382529 0.233021
O85   O     O_3   0.866772 0.075962 0.538426 -0.498822
C137  C     C_3   0.869581 0.077783 0.615251 0.131756
H53   H     H_    0.887366 0.048726 0.637531 0.126092
H54   H     H_    0.836292 0.079005 0.640658 0.155447
C138  C     C_3   0.894608 0.119070 0.637460 -0.642113
H55   H     H_    0.878401 0.148737 0.614269 0.296307
H56   H     H_    0.895132 0.121915 0.697730 0.172640
H57   H     H_    0.929059 0.117304 0.617452 0.233004
O86   O     O_3   0.075960 0.133228 0.538440 -0.498821
C139  C     C_3   0.077777 0.130418 0.615265 0.131756
H58   H     H_    0.048718 0.112632 0.637541 0.126094
H59   H     H_    0.078998 0.163706 0.640674 0.155448
C140  C     C_3   0.119062 0.105390 0.637481 -0.642116
H60   H     H_    0.148731 0.121597 0.614298 0.296300
H61   H     H_    0.121903 0.104863 0.697752 0.172637
H62   H     H_    0.117298 0.070940 0.617468 0.233016
O87   O     O_3   0.133227 0.924035 0.538421 -0.498833
C141  C     C_3   0.130417 0.922211 0.615246 0.131742
H63   H     H_    0.112629 0.951267 0.637526 0.126099
H64   H     H_    0.163706 0.920990 0.640656 0.155453
C142  C     C_3   0.105392 0.880922 0.637452 -0.642118
H65   H     H_    0.121601 0.851256 0.614259 0.296302
H66   H     H_    0.104867 0.878075 0.697721 0.172648
H67   H     H_    0.070941 0.882687 0.617442 0.232997
O88   O     O_3   0.924043 0.866772 0.538458 -0.498821
C143  C     C_3   0.922232 0.869586 0.615283 0.131764
H68   H     H_    0.951291 0.887375 0.637550 0.126102
H69   H     H_    0.921015 0.836299 0.640699 0.155453
C144  C     C_3   0.880946 0.894612 0.637502 -0.642122
H70   H     H_    0.851276 0.878399 0.614329 0.296291
H71   H     H_    0.878110 0.895143 0.697773 0.172634
H72   H     H_    0.882705 0.929060 0.617479 0.233021
O89   O     O_3   0.633228 0.575975 0.961629 -0.498821
C145  C     C_3   0.630416 0.577813 0.884805 0.131727
H73   H     H_    0.612624 0.548764 0.862511 0.126100
H74   H     H_    0.663705 0.579034 0.859394 0.155446
C146  C     C_3   0.605397 0.619110 0.862619 -0.642144
H75   H     H_    0.621607 0.648769 0.885833 0.296312
H76   H     H_    0.604878 0.621971 0.802350 0.172651
H77   H     H_    0.570945 0.617344 0.882618 0.232964
O90   O     O_3   0.424054 0.633244 0.961442 -0.498880
C147  C     C_3   0.422279 0.630378 0.884619 0.131708
H78   H     H_    0.451322 0.612532 0.862427 0.126205
H79   H     H_    0.421126 0.663647 0.859131 0.155521
C148  C     C_3   0.380968 0.605396 0.862392 -0.641973
H80   H     H_    0.351309 0.621671 0.885486 0.296253
H81   H     H_    0.378164 0.604823 0.802117 0.172597
H82   H     H_    0.382665 0.570960 0.882491 0.233065
O91   O     O_3   0.366771 0.424030 0.961624 -0.498848
C149  C     C_3   0.369580 0.422193 0.884800 0.131717
H83   H     H_    0.387377 0.451240 0.862505 0.126111
H84   H     H_    0.336290 0.420977 0.859390 0.155434
C150  C     C_3   0.394592 0.380892 0.862611 -0.642069
H85   H     H_    0.378377 0.351235 0.885825 0.296315
H86   H     H_    0.395110 0.378033 0.802342 0.172642
H87   H     H_    0.429046 0.382652 0.882611 0.232971
O92   O     O_3   0.575951 0.366774 0.961512 -0.498815
C151  C     C_3   0.577752 0.369589 0.884686 0.131777
H88   H     H_    0.548690 0.387375 0.862429 0.126105
H89   H     H_    0.578968 0.336302 0.859270 0.155451
C152  C     C_3   0.619034 0.394618 0.862455 -0.642124
H90   H     H_    0.648708 0.378404 0.885611 0.296278
H91   H     H_    0.621860 0.395155 0.802183 0.172630
H92   H     H_    0.617277 0.429065 0.882485 0.233047
O93   O     O_3   0.366775 0.575977 0.038359 -0.498871
C153  C     C_3   0.369586 0.577819 0.115182 0.131703
H93   H     H_    0.387378 0.548771 0.137482 0.126115
H94   H     H_    0.336298 0.579042 0.140593 0.155457
C154  C     C_3   0.394607 0.619116 0.137360 -0.642180
H95   H     H_    0.378397 0.648774 0.114142 0.296285
H96   H     H_    0.395128 0.621980 0.197628 0.172669
H97   H     H_    0.429059 0.617349 0.117357 0.232966
O94   O     O_3   0.575942 0.633223 0.038531 -0.498812
C155  C     C_3   0.577730 0.630401 0.115357 0.131793
H98   H     H_    0.548664 0.612611 0.137596 0.126120
H99   H     H_    0.578940 0.663685 0.140783 0.155459
C156  C     C_3   0.619008 0.605371 0.137601 -0.642162
H100  H     H_    0.648686 0.621592 0.114472 0.296248
H101  H     H_    0.621821 0.604822 0.197875 0.172627
H102  H     H_    0.617260 0.570928 0.117549 0.233067
O95   O     O_3   0.633227 0.424031 0.038387 -0.498823
C157  C     C_3   0.630420 0.422197 0.115212 0.131744
H103  H     H_    0.612633 0.451249 0.137505 0.126090
H104  H     H_    0.663710 0.420972 0.140617 0.155443
C158  C     C_3   0.605396 0.380905 0.137407 -0.642122
H105  H     H_    0.621601 0.351242 0.114196 0.296318
H106  H     H_    0.604878 0.378047 0.197676 0.172645
H107  H     H_    0.570943 0.382674 0.117410 0.232977
O96   O     O_3   0.424049 0.366766 0.038502 -0.498846
C159  C     C_3   0.422252 0.369595 0.115326 0.131746
H108  H     H_    0.451308 0.387400 0.137567 0.126132
H109  H     H_    0.421054 0.336313 0.140763 0.155476
C160  C     C_3   0.380961 0.394610 0.137552 -0.642060
H110  H     H_    0.351292 0.378379 0.114409 0.296276
H111  H     H_    0.378138 0.395155 0.197825 0.172620
H112  H     H_    0.382701 0.429054 0.117505 0.233052

loop_
_geom_bond_atom_site_label_1
_geom_bond_atom_site_label_2
_geom_bond_distance
_ccdc_geom_bond_type
C93   N5    1.443530 S    
O92   C151  1.414510 S    
C58   H18   1.083420 S    
C63   C73   1.399698 A    
O25   Cu5   1.954075 S    
O47   C31   1.289453 A    
C146  H75   1.110824 S    
O27   Cu7   1.954069 S    
C34   C39   1.199227 T    
O89   C145  1.414518 S    
O35   Cu9   1.960830 S    
C132  H42   1.109500 S    
Cu1   Cu3   2.674260 S    
C25   C124  1.465309 S    
C54   C86   1.405147 A    
Cu2   Cu4   2.674253 S    
C130  H37   1.109501 S    
C94   C110  1.408990 A    
C151  C152  1.520915 S    
Cu5   Cu7   2.674260 S    
C156  H102  1.109518 S    
N12   O72   1.300452 A    
C98   C114  1.408892 A    
N8    O64   1.300466 A    
C133  H44   1.113430 S    
C143  H68   1.111913 S    
C72   H32   1.083419 S    
O38   C28   1.289425 A    
C57   H17   1.083422 S    
C133  C134  1.520919 S    
C4    C92   1.417942 A    
C154  H97   1.109496 S    
C66   H26   1.083419 S    
C5    C85   1.481924 S    
N9    O65   1.301506 A    
C70   H30   1.083414 S    
C61   C75   1.399696 A    
O7    Cu3   1.961506 S    
C150  H86   1.110329 S    
N10   O68   1.300535 A    
C107  O83   1.382409 S    
C152  H92   1.109505 S    
C139  H59   1.113425 S    
O24   Cu2   1.954070 S    
C89   N1    1.443533 S    
N11   O69   1.301504 A    
C91   N3    1.443527 S    
C147  H78   1.111887 S    
C159  H109  1.113426 S    
C120  C128  1.405790 A    
O85   C137  1.414516 S    
C97   N9    1.443524 S    
O28   Cu8   1.954072 S    
O47   Cu12  1.960824 S    
O34   C26   1.289426 A    
O36   Cu9   1.960825 S    
O10   C14   1.292191 A    
N3    O53   1.301505 A    
O14   Cu8   1.961510 S    
C143  C144  1.520916 S    
O46   Cu12  1.960824 S    
O39   Cu10  1.960824 S    
C65   H25   1.083418 S    
O2    C10   1.292199 A    
C110  C122  1.405781 A    
C148  H82   1.109525 S    
C67   C79   1.399702 A    
C68   H28   1.083417 S    
C23   C39   1.423882 S    
C15   C79   1.457767 S    
C16   C80   1.457746 S    
O96   C159  1.414517 S    
O8    C12   1.292197 A    
C129  H34   1.113429 S    
O48   Cu12  1.960822 S    
C105  O81   1.382411 S    
C106  C122  1.405781 A    
C146  H77   1.109497 S    
O20   C18   1.290517 A    
C64   C76   1.399693 A    
N15   O78   1.300455 A    
C141  C142  1.520916 S    
C51   C87   1.405145 A    
C111  C121  1.405779 A    
C49   C85   1.405148 A    
C147  C148  1.520922 S    
O7    C9    1.292201 A    
C44   C60   1.394303 A    
C45   C61   1.394305 A    
C160  H110  1.110831 S    
C98   N10   1.443428 S    
C32   C127  1.465290 S    
C33   C40   1.199227 T    
O93   C153  1.414518 S    
C35   C38   1.199227 T    
O31   Cu7   1.954073 S    
C145  C146  1.520917 S    
C106  O82   1.382409 S    
C114  O90   1.382400 S    
C149  H83   1.111927 S    
C42   H2    1.083131 S    
C104  C120  1.408957 A    
C142  H65   1.110822 S    
C55   C85   1.405144 A    
O26   C22   1.290517 A    
C158  H106  1.110316 S    
O23   C19   1.290520 A    
O35   C27   1.289430 A    
O91   C149  1.414519 S    
C104  N16   1.443494 S    
C89   C105  1.408985 A    
C48   C84   1.405144 A    
C103  C119  1.408988 A    
C113  C125  1.405774 A    
N1    O49   1.301507 A    
C107  C123  1.405780 A    
O11   Cu7   1.961502 S    
O12   Cu8   1.961508 S    
C63   H23   1.083418 S    
C140  H61   1.110313 S    
C102  C118  1.409014 A    
C93   C109  1.408985 A    
N6    O59   1.301506 A    
N13   O73   1.301506 A    
C155  H98   1.111903 S    
C141  H64   1.113427 S    
C11   C75   1.457761 S    
O5    C11   1.292201 A    
O32   Cu6   1.954070 S    
C9    C73   1.457761 S    
C92   C108  1.408969 A    
O19   C17   1.290517 A    
Cu6   Cu8   2.674253 S    
C59   H19   1.083420 S    
N5    O57   1.301507 A    
O26   Cu6   1.954072 S    
C55   C71   1.394302 A    
C56   C88   1.405156 A    
O8    Cu2   1.961507 S    
C58   C74   1.399698 A    
O45   C29   1.289428 A    
O82   C131  1.414513 S    
C136  H51   1.110321 S    
C50   H10   1.083133 S    
O88   C143  1.414513 S    
C18   C34   1.423882 S    
C94   N6    1.443532 S    
C160  H112  1.109511 S    
C137  H54   1.113429 S    
C117  C127  1.405775 A    
N7    O62   1.300453 A    
C145  H73   1.111918 S    
C96   C112  1.408992 A    
C155  C156  1.520917 S    
O84   C135  1.414518 S    
O1    Cu1   1.961505 S    
C4    C96   1.417948 A    
C26   C121  1.465305 S    
C5    C97   1.417960 A    
C67   H27   1.083422 S    
C142  H67   1.109501 S    
O41   C29   1.289439 A    
O4    Cu4   1.961508 S    
C134  H45   1.110822 S    
C57   C73   1.399698 A    
C8    C100  1.417947 A    
C99   C115  1.408980 A    
C151  H89   1.113423 S    
C153  C154  1.520918 S    
O25   C21   1.290520 A    
O42   Cu11  1.960821 S    
N16   O80   1.300482 A    
C54   H14   1.083126 S    
O22   Cu4   1.954071 S    
C2    C82   1.481928 S    
O43   C31   1.289423 A    
N3    O54   1.300453 A    
C45   C83   1.405145 A    
C6    C98   1.417898 A    
C27   C122  1.465312 S    
O18   Cu2   1.954072 S    
C48   C64   1.394297 A    
C7    C87   1.481927 S    
N14   O75   1.301518 A    
C132  H41   1.110313 S    
C112  C124  1.405787 A    
O48   C30   1.289421 A    
C66   C78   1.399704 A    
O3    C11   1.292202 A    
C55   H15   1.083131 S    
C4    C84   1.481934 S    
C108  C124  1.405787 A    
C117  O93   1.382414 S    
C51   C67   1.394305 A    
C3    C83   1.481924 S    
C156  H101  1.110319 S    
C49   C65   1.394306 A    
C1    C89   1.417958 A    
C43   C83   1.405146 A    
O29   C23   1.290517 A    
O30   C24   1.290517 A    
C131  H38   1.111916 S    
C143  H69   1.113427 S    
C50   C86   1.405159 A    
C154  H96   1.110316 S    
C68   C80   1.399688 A    
C157  H103  1.111915 S    
O34   Cu9   1.960821 S    
C96   N8    1.443530 S    
N7    O61   1.301507 A    
C44   H4    1.083130 S    
C51   H11   1.083128 S    
N2    O51   1.301508 A    
C65   C77   1.399702 A    
C150  H85   1.110836 S    
N15   O77   1.301506 A    
C152  H91   1.110311 S    
C29   C128  1.465318 S    
C52   H12   1.083131 S    
C112  O88   1.382407 S    
C43   H3    1.083129 S    
C135  H48   1.111910 S    
C147  H79   1.113428 S    
C120  O96   1.382398 S    
C8    C104  1.417940 A    
O17   C17   1.290520 A    
C95   C111  1.408987 A    
C134  H47   1.109498 S    
O19   Cu3   1.954069 S    
C136  H50   1.110830 S    
C31   C126  1.465321 S    
C13   C77   1.457764 S    
C153  H93   1.111917 S    
C71   C77   1.399701 A    
C19   C35   1.423882 S    
O27   C21   1.290517 A    
C97   C113  1.408986 A    
C131  C132  1.520919 S    
C44   C84   1.405151 A    
C101  N13   1.443530 S    
C115  O91   1.382404 S    
C148  H81   1.110345 S    
C28   C123  1.465305 S    
O81   C129  1.414515 S    
C129  C130  1.520915 S    
O10   Cu6   1.961511 S    
C146  H76   1.110316 S    
O15   C13   1.292205 A    
C119  C125  1.405775 A    
C69   C79   1.399701 A    
O36   C28   1.289429 A    
Cu9   Cu10  2.663241 S    
C41   C81   1.405146 A    
C135  C136  1.520919 S    
C149  C150  1.520927 S    
O86   C139  1.414515 S    
C10   C74   1.457762 S    
O33   Cu9   1.960827 S    
C60   C76   1.399699 A    
N12   O71   1.301517 A    
O33   C25   1.289428 A    
C59   C75   1.399700 A    
O23   Cu3   1.954073 S    
C7    C101  1.417965 A    
N8    O63   1.301508 A    
C5    C103  1.417960 A    
C149  H84   1.113447 S    
C119  O95   1.382410 S    
N9    O66   1.300460 A    
O9    Cu5   1.961505 S    
C20   C36   1.423882 S    
O16   C16   1.292197 A    
C150  H87   1.109514 S    
C105  C121  1.405778 A    
N10   O67   1.301486 A    
C158  H105  1.110823 S    
O46   C32   1.289430 A    
C24   C40   1.423882 S    
C139  H58   1.111915 S    
C90   N2    1.443531 S    
O13   C15   1.292202 A    
C95   N7    1.443527 S    
O2    Cu2   1.961511 S    
C71   H31   1.083419 S    
C159  H108  1.111905 S    
C157  C158  1.520916 S    
O5    Cu1   1.961503 S    
C45   H5    1.083131 S    
O38   Cu10  1.960824 S    
C92   N4    1.443511 S    
C3    C93   1.417962 A    
C140  H60   1.110823 S    
C1    C95   1.417961 A    
O45   Cu12  1.960833 S    
O21   C19   1.290517 A    
O29   Cu5   1.954067 S    
C36   C37   1.199227 T    
N6    O60   1.300454 A    
C102  N14   1.443534 S    
N4    O55   1.301498 A    
C155  H99   1.113418 S    
C56   H16   1.083125 S    
O37   C25   1.289436 A    
C138  H55   1.110822 S    
C129  H33   1.111914 S    
C64   H24   1.083417 S    
C48   H8    1.083132 S    
C139  C140  1.520915 S    
C116  C128  1.405796 A    
Cu11  Cu12  2.663241 S    
C113  O89   1.382413 S    
C144  H70   1.110827 S    
C90   C106  1.408988 A    
C116  O92   1.382412 S    
C6    C86   1.481946 S    
C159  C160  1.520922 S    
C7    C99   1.417956 A    
O6    C10   1.292200 A    
O90   C147  1.414522 S    
C114  C126  1.405800 A    
C160  H111  1.110326 S    
C137  C138  1.520919 S    
O83   C133  1.414516 S    
C72   C80   1.399700 A    
C111  O87   1.382409 S    
C133  H43   1.111915 S    
C42   C82   1.405146 A    
C145  H74   1.113430 S    
N11   O70   1.300458 A    
O22   C20   1.290517 A    
C2    C90   1.417961 A    
C62   H22   1.083421 S    
C47   C81   1.405148 A    
C52   C88   1.405145 A    
C54   C70   1.394275 A    
C47   C63   1.394306 A    
C109  C123  1.405777 A    
C1    C81   1.481924 S    
C118  O94   1.382399 S    
C130  H36   1.110315 S    
O39   C27   1.289428 A    
C142  H66   1.110316 S    
O41   Cu11  1.960827 S    
O44   C32   1.289421 A    
C46   H6    1.083130 S    
C108  O84   1.382401 S    
O9    C13   1.292201 A    
C158  H107  1.109496 S    
O11   C15   1.292203 A    
O12   C16   1.292196 A    
O1    C9    1.292202 A    
C100  C116  1.409000 A    
C42   C58   1.394306 A    
C151  H88   1.111907 S    
O16   Cu6   1.961507 S    
O14   C14   1.292187 A    
O4    C12   1.292196 A    
C109  O85   1.382412 S    
O18   C18   1.290517 A    
C21   C37   1.423882 S    
C60   H20   1.083419 S    
O6    Cu4   1.961510 S    
C61   H21   1.083421 S    
C14   C78   1.457734 S    
N14   O76   1.300453 A    
C3    C91   1.417960 A    
C52   C68   1.394295 A    
C140  H62   1.109500 S    
C136  H52   1.109506 S    
C138  H56   1.110314 S    
C132  H40   1.110824 S    
O24   C20   1.290517 A    
C2    C94   1.417960 A    
C91   C107  1.408988 A    
C62   C74   1.399698 A    
O30   Cu8   1.954071 S    
N13   O74   1.300462 A    
C30   C125  1.465293 S    
O40   Cu10  1.960822 S    
O44   Cu11  1.960825 S    
C103  N15   1.443530 S    
C46   C62   1.394306 A    
C8    C88   1.481931 S    
C141  H63   1.111914 S    
O28   C22   1.290517 A    
C53   C87   1.405144 A    
C101  C117  1.408993 A    
N4    O56   1.300477 A    
C138  H57   1.109499 S    
C130  H35   1.110821 S    
C144  H71   1.110315 S    
C49   H9    1.083129 S    
C110  O86   1.382408 S    
O42   C30   1.289430 A    
N5    O58   1.300457 A    
C156  H100  1.110836 S    
C53   H13   1.083129 S    
C50   C66   1.394313 A    
C100  N12   1.443530 S    
O43   Cu11  1.960830 S    
C144  H72   1.109506 S    
C131  H39   1.113426 S    
C41   H1    1.083131 S    
C70   C78   1.399673 A    
C12   C76   1.457759 S    
O31   C23   1.290520 A    
C154  H95   1.110826 S    
C69   H29   1.083421 S    
O32   C24   1.290517 A    
C137  H53   1.111917 S    
C157  H104  1.113429 S    
C47   H7    1.083130 S    
C17   C33   1.423882 S    
O20   Cu4   1.954072 S    
N2    O52   1.300459 A    
C53   C69   1.394303 A    
O21   Cu1   1.954067 S    
O17   Cu1   1.954075 S    
C46   C82   1.405145 A    
C152  H90   1.110823 S    
C115  C127  1.405773 A    
C118  C126  1.405824 A    
C43   C59   1.394306 A    
C56   C72   1.394308 A    
C41   C57   1.394302 A    
N1    O50   1.300456 A    
O94   C155  1.414512 S    
C135  H49   1.113424 S    
O95   C157  1.414519 S    
C134  H46   1.110314 S    
O37   Cu10  1.960833 S    
O87   C141  1.414516 S    
C153  H94   1.113434 S    
C22   C38   1.423882 S    
N16   O79   1.301492 A    
O13   Cu5   1.961503 S    
O15   Cu7   1.961506 S    
C6    C102  1.417920 A    
C148  H80   1.110840 S    
C99   N11   1.443525 S    
O40   C26   1.289427 A    
O3    Cu3   1.961502 S    
