data_mof_unit_26958.cif
_audit_creation_date              2012-12-10T17:48:45-0500
_audit_creation_method            fapswitch 2.2
_symmetry_space_group_name_H-M    P1
_symmetry_Int_Tables_number       1
_space_group_crystal_system       triclinic
_cell_length_a                    15.787413
_cell_length_b                    10.781902
_cell_length_c                    10.054492
_cell_angle_alpha                 88.048018
_cell_angle_beta                  91.239811
_cell_angle_gamma                 94.873054
_cell_volume                      1703.98116564

loop_
_atom_site_label
_atom_site_type_symbol
_atom_type_description
_atom_site_fract_x
_atom_site_fract_y
_atom_site_fract_z
_atom_type_partial_charge
Br1   Br    Br    0.881854 0.298060 0.682994 -0.457556
Br2   Br    Br    0.090549 0.440234 0.228030 -0.629041
Br3   Br    Br    0.129141 0.768000 0.592869 -0.454797
Br4   Br    Br    0.932097 0.755837 0.648105 -0.397380
Br5   Br    Br    0.082031 0.560358 0.803966 -0.464958
Br6   Br    Br    0.896853 0.751109 0.355545 -0.538141
Br7   Br    Br    0.628935 0.173968 0.277604 -0.368785
Br8   Br    Br    0.451976 0.082017 0.033601 -0.451229
Br9   Br    Br    0.611409 0.870160 0.260186 -0.392872
Br10  Br    Br    0.088079 0.307361 0.723217 -0.487959
Br11  Br    Br    0.346997 0.264553 0.278273 -0.462983
Br12  Br    Br    0.342113 0.269231 0.751223 -0.467640
C1    C     C_R   0.509271 0.261985 0.503625 1.000849
C2    C     C_R   0.451961 0.025899 0.855864 0.345554
C3    C     C_R   0.405560 0.915279 0.823258 -0.152339
C4    C     C_R   0.338310 0.499616 0.499393 0.940499
C5    C     C_R   0.412850 0.868484 0.697007 -0.123576
C6    C     C_R   0.467755 0.932299 0.602864 0.043666
C7    C     C_R   0.496116 0.055896 0.624765 0.024212
C8    C     C_R   0.525102 0.130641 0.513731 -0.249788
C9    C     C_R   0.559130 0.074911 0.404834 0.277438
C10   C     C_R   0.550267 0.945471 0.397384 0.263079
C11   C     C_R   0.500589 0.874409 0.493407 -0.233863
C12   C     C_3   0.945335 0.460129 0.643312 0.014778
C13   C     C_R   0.352622 0.371517 0.123193 0.326915
C14   C     C_R   0.277501 0.359416 0.039093 0.072657
C15   C     C_R   0.281373 0.427248 0.920172 -0.314109
C16   C     C_R   0.499167 0.739929 0.497453 0.894392
C17   C     C_R   0.355058 0.416249 0.855584 0.324589
C18   C     C_R   0.430463 0.448229 0.925660 0.029629
C19   C     C_R   0.429670 0.441246 0.069723 0.055682
C20   C     C_R   0.564799 0.555873 0.072975 -0.049029
C21   C     C_R   0.566233 0.555124 0.931266 0.162065
C22   C     C_R   0.661029 0.503249 0.501233 0.887946
C23   C     C_3   0.916400 0.523061 0.509143 -0.066505
C24   C     C_3   0.044617 0.462649 0.650969 0.406888
C25   C     C_3   0.035462 0.417280 0.399319 0.286833
C26   C     C_3   0.940614 0.445942 0.390007 -0.454867
C27   C     C_1   0.749598 0.513440 0.504802 -0.089400
C28   C     C_3   0.081281 0.508818 0.507345 -0.054472
C29   C     C_3   0.203122 0.256808 0.035824 -0.277640
C30   C     C_3   0.200038 0.140259 0.126761 -0.340030
C31   C     C_3   0.130333 0.044195 0.079480 -0.872872
C32   C     C_3   0.640711 0.628700 0.866365 -0.382937
C33   C     C_3   0.719964 0.554728 0.861716 -0.324738
C34   C     C_3   0.959484 0.660161 0.492817 0.415758
C35   C     C_3   0.768902 0.549436 0.994415 -0.750051
C36   C     C_3   0.040281 0.274077 0.429198 -0.316490
C37   C     C_3   0.003707 0.184444 0.321466 -0.387223
C38   C     C_3   0.009254 0.049459 0.368297 -0.718429
C39   C     C_3   0.100321 0.711516 0.335339 -0.329303
C40   C     C_3   0.054514 0.717317 0.197380 -0.318212
C41   C     C_3   0.118828 0.728607 0.084280 -0.727097
C42   C     C_3   0.060195 0.653165 0.471970 0.239812
C43   C     C_1   0.824785 0.521111 0.508137 0.120199
C44   C     C_1   0.173210 0.500575 0.505715 0.103750
C45   C     C_1   0.248649 0.498655 0.500613 -0.080282
C46   C     C_R   0.496271 0.097178 0.756991 -0.096065
H1    H     H_    0.923089 0.513871 0.725931 0.205807
H2    H     H_    0.151431 0.997508 0.990643 0.297353
H3    H     H_    0.117276 0.974720 0.161051 0.252885
H4    H     H_    0.260908 0.096000 0.123555 0.289015
H5    H     H_    0.185893 0.164666 0.229840 0.271633
H6    H     H_    0.142279 0.299695 0.040100 0.266021
H7    H     H_    0.202147 0.218520 0.934342 0.265314
H8    H     H_    0.782558 0.644229 0.033739 0.280219
H9    H     H_    0.732479 0.488919 0.068361 0.264659
H10   H     H_    0.830333 0.509153 0.979513 0.273436
H11   H     H_    0.702091 0.458041 0.830265 0.261022
H12   H     H_    0.531947 0.182164 0.786197 0.194920
H13   H     H_    0.763594 0.600776 0.786297 0.243419
H14   H     H_    0.622659 0.661088 0.765410 0.236332
H15   H     H_    0.656749 0.716445 0.919991 0.207709
H16   H     H_    0.076135 0.031452 0.392768 0.266801
H17   H     H_    0.969680 0.027422 0.457402 0.325606
H18   H     H_    0.985218 0.988222 0.287251 0.269244
H19   H     H_    0.936155 0.197070 0.297154 0.257518
H20   H     H_    0.038969 0.199620 0.228318 0.274264
H21   H     H_    0.107593 0.255388 0.449854 0.247677
H22   H     H_    0.001722 0.244788 0.515529 0.275607
H23   H     H_    0.367104 0.862783 0.897075 0.170960
H24   H     H_    0.174112 0.795109 0.108263 0.234938
H25   H     H_    0.144302 0.638424 0.066268 0.321102
H26   H     H_    0.087691 0.762122 0.991380 0.302979
H27   H     H_    0.006388 0.639162 0.180046 0.285995
H28   H     H_    0.020860 0.803198 0.187518 0.240200
H29   H     H_    0.120495 0.811977 0.347079 0.214809
H30   H     H_    0.161969 0.671408 0.322850 0.231619
H31   H     H_    0.378000 0.780361 0.675578 0.176913
H32   H     H_    0.616598 0.604014 0.127816 0.179004
H33   H     H_    0.225153 0.426746 0.857729 0.255861
H34   H     H_    0.897278 0.359483 0.388130 0.222288
H35   H     H_    0.926935 0.495809 0.294897 0.223853
H36   H     H_    0.070546 0.087056 0.052711 0.295323
N1    N     N_R   0.499210 0.498800 0.142780 -0.109957
N2    N     N_R   0.499180 0.498720 0.857170 -0.132232
O1    O     O_R   0.500000 0.316780 0.614690 -0.606735
O2    O     O_R   0.499990 0.316750 0.385360 -0.528491
O3    O     O_R   0.377150 0.500020 0.614720 -0.604261
O4    O     O_R   0.377140 0.499990 0.385380 -0.594936
O5    O     O_R   0.500010 0.683250 0.614640 -0.651519
O6    O     O_R   0.500000 0.683220 0.385310 -0.576473
O7    O     O_R   0.622860 0.500010 0.614620 -0.655174
O8    O     O_R   0.622850 0.499980 0.385280 -0.594781
Zn1   Zn    Zn3+2 0.500010 0.500020 0.653130 0.969145
Zn2   Zn    Zn3+2 0.499990 0.499980 0.346870 1.048570

loop_
_geom_bond_atom_site_label_1
_geom_bond_atom_site_label_2
_ccdc_geom_bond_type
C13   C19   A    
N2    Zn1   S    
Br12  C17   S    
C33   H13   S    
C29   C30   S    
C7    C8    A    
O8    Zn2   S    
C3    H23   S    
Br4   C34   S    
C44   C45   T    
C14   C15   A    
C12   C24   S    
C41   H26   S    
C36   H21   S    
C40   H27   S    
C25   C26   S    
C25   C28   S    
C38   H16   S    
C18   C19   A    
Br3   C42   S    
Br9   C10   S    
C15   C17   A    
Br11  C13   S    
Br5   C24   S    
C26   H34   S    
C31   H36   S    
C37   H20   S    
C6    C7    A    
C1    O2    A    
C18   N2    A    
C16   O5    A    
C27   C43   T    
C28   C44   S    
C15   H33   S    
C30   H4    S    
C35   H8    S    
O1    Zn1   S    
C9    C10   A    
C2    C46   A    
C35   H9    S    
C33   C35   S    
C7    C46   A    
O5    Zn1   S    
O3    Zn1   S    
C20   H32   S    
C12   C23   S    
C23   C43   S    
C39   C40   S    
C24   C28   S    
C23   C26   S    
C5    H31   S    
C39   H29   S    
C46   H12   S    
C29   H7    S    
C13   C14   A    
Br7   C9    S    
C33   H11   S    
C22   O8    A    
C22   C27   S    
C41   H24   S    
C17   C18   A    
N1    Zn2   S    
C38   H18   S    
C6    C11   A    
C34   C42   S    
C5    C6    A    
O7    Zn1   S    
C11   C16   S    
C25   C36   S    
C31   H2    S    
C36   C37   S    
C28   C42   S    
C30   C31   S    
C21   N2    A    
C35   H10   S    
C32   C33   S    
C31   H3    S    
C3    C5    A    
Br8   C2    S    
Br6   C34   S    
C1    C8    S    
C2    C3    A    
C21   C32   S    
C4    O4    A    
C39   H30   S    
C4    O3    A    
O4    Zn2   S    
C22   O7    A    
O2    Zn2   S    
C41   H25   S    
C39   C42   S    
C20   C21   A    
C36   H22   S    
C40   H28   S    
C38   H17   S    
Br2   C25   S    
C12   H1    S    
C19   N1    A    
C26   H35   S    
C37   H19   S    
C32   H14   S    
C4    C45   S    
C1    O1    A    
C32   H15   S    
C16   O6    A    
C20   N1    A    
C8    C9    A    
Br1   C12   S    
C37   C38   S    
O6    Zn2   S    
C10   C11   A    
Br10  C24   S    
C29   H6    S    
C23   C34   S    
C30   H5    S    
C14   C29   S    
C40   C41   S    
