data_mof_unit_47209.cif
_audit_creation_date              2012-12-10T18:36:19-0500
_audit_creation_method            fapswitch 2.2
_symmetry_space_group_name_H-M    P1
_symmetry_Int_Tables_number       1
_space_group_crystal_system       triclinic
_cell_length_a                    14.961509
_cell_length_b                    15.496572
_cell_length_c                    19.220955
_cell_angle_alpha                 89.489406
_cell_angle_beta                  104.395394
_cell_angle_gamma                 82.524485
_cell_volume                      4275.86245827

loop_
_atom_site_label
_atom_site_type_symbol
_atom_type_description
_atom_site_fract_x
_atom_site_fract_y
_atom_site_fract_z
_atom_type_partial_charge
C1    C     C_R   0.441816 0.662131 0.488939 0.903242
C2    C     C_R   0.529010 0.189746 0.477714 -0.266086
C3    C     C_R   0.449259 0.897573 0.457300 0.029308
C4    C     C_R   0.556967 0.101059 0.473358 0.029037
C5    C     C_R   0.354815 0.928363 0.423117 0.069319
C6    C     C_R   0.652956 0.068313 0.499166 0.064762
C7    C     C_R   0.518484 0.953347 0.464576 0.108455
C8    C     C_R   0.490374 0.043440 0.449904 0.106730
C9    C     C_R   0.396479 0.072756 0.413693 -0.255052
C10   C     C_R   0.614857 0.921865 0.485785 -0.251940
C11   C     C_R   0.330331 0.015768 0.399614 -0.187140
C12   C     C_R   0.558118 0.337940 0.508667 0.906085
C13   C     C_R   0.680926 0.978620 0.501520 -0.195875
C14   C     C_R   0.839283 0.644163 0.600686 -0.276842
C15   C     C_R   0.156476 0.364766 0.391861 -0.274426
C16   C     C_R   0.500217 0.501326 0.634300 0.860176
C17   C     C_R   0.499088 0.500485 0.365546 0.857472
C18   C     C_R   0.751742 0.617801 0.586055 -0.011192
C19   C     C_R   0.246553 0.385184 0.411327 -0.008898
C20   C     C_R   0.793893 0.511588 0.507688 -0.029397
C21   C     C_R   0.205482 0.491001 0.490383 -0.031944
C22   C     C_R   0.883661 0.536377 0.518940 -0.034626
C23   C     C_R   0.407034 0.754371 0.472689 -0.115435
C24   C     C_R   0.112464 0.473530 0.473144 -0.035488
C25   C     C_R   0.906290 0.603409 0.567597 0.060095
C26   C     C_R   0.088415 0.408959 0.422268 0.063311
C27   C     C_R   0.951302 0.495862 0.484778 0.016593
C28   C     C_R   0.043430 0.517924 0.504217 0.016919
C29   C     C_R   0.063380 0.584156 0.553554 -0.332706
C30   C     C_R   0.929256 0.434572 0.431411 -0.337670
C31   C     C_R   0.995233 0.628826 0.582656 0.468768
C32   C     C_R   0.996950 0.389650 0.401969 0.470435
C33   C     C_R   0.416200 0.499518 0.729838 -0.188446
C34   C     C_R   0.593096 0.245998 0.505396 -0.118617
C35   C     C_R   0.575503 0.522721 0.267947 -0.187484
C36   C     C_R   0.412317 0.510138 0.800529 -0.156460
C37   C     C_R   0.572130 0.532711 0.195661 -0.156805
C38   C     C_R   0.490455 0.530191 0.851900 0.083255
C39   C     C_R   0.489450 0.525775 0.143593 0.083483
C40   C     C_R   0.572352 0.540315 0.831396 -0.157051
C41   C     C_R   0.410156 0.508370 0.164885 -0.156027
C42   C     C_R   0.576193 0.529815 0.760504 -0.192693
C43   C     C_R   0.413515 0.498429 0.237394 -0.190868
C44   C     C_R   0.498189 0.509091 0.709390 -0.036797
C45   C     C_R   0.286545 0.871478 0.413883 0.481093
C46   C     C_R   0.496144 0.505935 0.289301 -0.035544
C47   C     C_R   0.487324 0.533493 0.067445 0.291162
C48   C     C_R   0.487804 0.536133 0.927123 0.290933
C49   C     C_3   0.024346 0.769247 0.593693 0.065909
C50   C     C_3   0.046020 0.840337 0.646881 -0.780903
C51   C     C_3   0.953887 0.254908 0.379483 0.071898
C52   C     C_3   0.935746 0.187806 0.322221 -0.808859
C53   C     C_3   0.132111 0.882123 0.416127 0.088528
C54   C     C_3   0.039369 0.939077 0.386274 -0.831124
C55   C     C_3   0.865490 0.122837 0.507277 0.083465
C56   C     C_R   0.719032 0.125671 0.523512 0.474147
C57   C     C_3   0.963060 0.072408 0.528919 -0.838332
C58   C     C_R   0.314478 0.783268 0.436395 -0.325352
C59   C     C_R   0.688165 0.214469 0.527443 -0.312157
C60   C     C_R   0.471735 0.812596 0.486186 -0.261524
H1    H     H_    0.354683 0.484236 0.691261 0.161403
H2    H     H_    0.859171 0.421113 0.409700 0.149857
H3    H     H_    0.259268 0.041255 0.372058 0.191943
H4    H     H_    0.753867 0.951582 0.518413 0.187637
H5    H     H_    0.456205 0.215712 0.463268 0.169452
H6    H     H_    0.540447 0.790110 0.519482 0.165879
H7    H     H_    0.738036 0.258055 0.549606 0.168984
H8    H     H_    0.264972 0.737090 0.423941 0.164286
H9    H     H_    0.957045 0.792160 0.553943 0.135115
H10   H     H_    0.081109 0.758876 0.565327 0.130957
H11   H     H_    0.111779 0.818564 0.688236 0.260964
H12   H     H_    0.640249 0.528738 0.306997 0.160450
H13   H     H_    0.054369 0.900146 0.618332 0.202463
H14   H     H_    0.988398 0.855552 0.673659 0.260998
H15   H     H_    0.891030 0.267873 0.400867 0.130125
H16   H     H_    0.014765 0.226761 0.423510 0.134266
H17   H     H_    0.998747 0.170220 0.301889 0.257714
H18   H     H_    0.918181 0.128294 0.345400 0.200474
H19   H     H_    0.876464 0.214575 0.276810 0.267352
H20   H     H_    0.348292 0.501842 0.814863 0.156689
H21   H     H_    0.634510 0.545552 0.180771 0.155983
H22   H     H_    0.633711 0.555666 0.870066 0.153701
H23   H     H_    0.230907 0.538801 0.527642 0.124219
H24   H     H_    0.345573 0.502345 0.125701 0.153882
H25   H     H_    0.640017 0.538096 0.745818 0.159895
H26   H     H_    0.351316 0.485798 0.252694 0.160470
H27   H     H_    0.156933 0.895380 0.474247 0.130948
H28   H     H_    0.120043 0.812972 0.410442 0.144525
H29   H     H_    0.012433 0.927817 0.328288 0.270094
H30   H     H_    0.987913 0.923073 0.415512 0.200386
H31   H     H_    0.048581 0.008715 0.392820 0.251850
H32   H     H_    0.871200 0.193189 0.514684 0.135778
H33   H     H_    0.835080 0.112142 0.449361 0.132406
H34   H     H_    0.771038 0.459670 0.473902 0.120640
H35   H     H_    0.959511 0.001939 0.521201 0.248315
H36   H     H_    0.006507 0.095328 0.495318 0.200954
H37   H     H_    0.995970 0.082195 0.586277 0.267285
H38   H     H_    0.372634 0.139243 0.393805 0.143951
H39   H     H_    0.641214 0.853301 0.489147 0.152326
H40   H     H_    0.299430 0.352101 0.387762 0.129569
H41   H     H_    0.699139 0.649438 0.610591 0.134045
H42   H     H_    0.853985 0.696077 0.637431 0.190525
H43   H     H_    0.140514 0.315040 0.353180 0.187636
H44   H     H_    0.131369 0.604001 0.570948 0.150536
N1    N     N_R   0.564748 0.549890 0.977999 -0.175486
N2    N     N_R   0.409807 0.521375 0.016475 -0.174949
N3    N     N_R   0.564478 0.548624 0.046948 -0.175356
N4    N     N_R   0.410077 0.522645 0.947512 -0.174667
N5    N     N_R   0.731690 0.552730 0.540620 -0.098870
N6    N     N_R   0.268310 0.447270 0.459380 -0.098718
O1    O     O_R   0.383120 0.605620 0.479520 -0.620355
O2    O     O_3   0.971858 0.331672 0.348429 -0.605860
O3    O     O_3   0.195528 0.901386 0.376479 -0.615577
O4    O     O_3   0.811982 0.092946 0.551182 -0.612327
O5    O     O_R   0.616880 0.394380 0.520480 -0.619157
O6    O     O_R   0.531890 0.639510 0.505590 -0.621506
O7    O     O_R   0.468110 0.360490 0.494410 -0.620503
O8    O     O_R   0.425590 0.483060 0.588820 -0.621282
O9    O     O_R   0.574410 0.516940 0.411180 -0.622201
O10   O     O_R   0.574360 0.516950 0.614890 -0.620189
O11   O     O_R   0.425640 0.483050 0.385110 -0.621714
O12   O     O_3   0.018498 0.692434 0.631483 -0.607061
Zn1   Zn    Zn3+2 0.400660 0.477370 0.482600 0.942107
Zn2   Zn    Zn3+2 0.599340 0.522630 0.517400 0.941931

loop_
_geom_bond_atom_site_label_1
_geom_bond_atom_site_label_2
_ccdc_geom_bond_type
C25   C31   A    
C23   C58   A    
C38   C40   A    
C26   C32   A    
C9    H38   S    
C7    C10   A    
C14   C18   A    
C18   N5    A    
C4    C8    A    
C2    H5    S    
C21   N6    A    
C7    C8    A    
C39   C41   A    
C53   C54   S    
C15   C19   A    
N1    N3    A    
C51   O2    S    
C28   C29   A    
C35   C37   A    
C51   H15   S    
C54   H30   S    
C11   H3    S    
C50   H14   S    
C30   H2    S    
C14   H42   S    
C33   C36   A    
C59   H7    S    
C21   H23   S    
C8    C9    A    
C22   C25   A    
C1    O6    A    
C52   H19   S    
O6    Zn2   S    
C16   C44   S    
C38   C48   S    
C55   H33   S    
C12   O5    A    
C3    C60   A    
C2    C34   A    
C40   C42   A    
C60   H6    S    
C49   H9    S    
C27   C30   A    
C41   C43   A    
C37   H21   S    
C42   C44   A    
C52   H18   S    
C53   O3    S    
C23   C60   A    
C45   C58   A    
O1    Zn1   S    
C51   C52   S    
C43   H26   S    
C40   H22   S    
C17   C46   S    
C54   H29   S    
C4    C6    A    
C36   H20   S    
C50   H13   S    
C15   C26   A    
O9    Zn2   S    
C41   H24   S    
C5    C45   A    
C57   H36   S    
C20   N5    A    
C29   H44   S    
C18   H41   S    
C2    C4    A    
C50   H11   S    
C55   H32   S    
C16   O8    A    
N6    Zn1   S    
C48   N1    A    
C47   N2    A    
C57   H37   S    
C53   H27   S    
C42   H25   S    
C51   H16   S    
C9    C11   A    
C58   H8    S    
C20   C22   A    
C35   H12   S    
C1    C23   S    
C47   N3    A    
C22   C27   A    
C55   C57   S    
C34   C59   A    
C12   C34   S    
C52   H17   S    
C39   C47   S    
C19   N6    A    
C17   O11   A    
C20   H34   S    
O5    Zn2   S    
C32   O2    S    
C33   C44   A    
C24   C28   A    
C31   O12   S    
C6    C56   A    
C3    C5    A    
C10   C13   A    
C19   H40   S    
N5    Zn2   S    
C5    C11   A    
C55   O4    S    
C3    C7    A    
C56   C59   A    
C49   H10   S    
C16   O10   A    
O7    Zn1   S    
C54   H31   S    
C29   C31   A    
C1    O1    A    
C6    C13   A    
C30   C32   A    
C24   C26   A    
C48   N4    A    
C13   H4    S    
N2    N4    A    
C33   H1    S    
C49   O12   S    
C36   C38   A    
C53   H28   S    
O8    Zn1   S    
C14   C25   A    
C10   H39   S    
C43   C46   A    
O11   Zn1   S    
C17   O9    A    
C12   O7    A    
C45   O3    S    
C37   C39   A    
C49   C50   S    
C57   H35   S    
C21   C24   A    
C27   C28   A    
C56   O4    S    
C15   H43   S    
C35   C46   A    
O10   Zn2   S    
