data_mof_unit_62945.cif
_audit_creation_date              2012-12-10T17:19:37-0500
_audit_creation_method            fapswitch 2.2
_symmetry_space_group_name_H-M    P1
_symmetry_Int_Tables_number       1
_space_group_crystal_system       triclinic
_cell_length_a                    10.202532
_cell_length_b                    10.82307
_cell_length_c                    11.540293
_cell_angle_alpha                 90.557119
_cell_angle_beta                  81.534023
_cell_angle_gamma                 95.49933
_cell_volume                      1254.61116414

loop_
_atom_site_label
_atom_site_type_symbol
_atom_type_description
_atom_site_fract_x
_atom_site_fract_y
_atom_site_fract_z
_atom_type_partial_charge
C1    C     C_R   0.555945 0.732373 0.489519 0.941745
C2    C     C_2   0.412339 0.135385 0.497036 -0.379209
C3    C     C_2   0.487536 0.933537 0.466929 -0.148420
C4    C     C_2   0.511936 0.065694 0.463613 -0.142722
C5    C     C_2   0.925490 0.511463 0.511732 0.157684
C6    C     C_2   0.067219 0.481163 0.501285 0.068890
C7    C     C_R   0.444003 0.267579 0.504398 0.934816
C8    C     C_R   0.500269 0.500094 0.717830 0.907395
C9    C     C_R   0.499730 0.499894 0.282165 0.892976
C10   C     C_1   0.500645 0.500018 0.838321 -0.187941
C11   C     C_1   0.499365 0.499966 0.161676 -0.185153
C12   C     C_1   0.500344 0.499996 0.940590 0.001467
C13   C     C_1   0.499679 0.499987 0.059406 0.001277
C14   C     C_2   0.587393 0.864331 0.473751 -0.373757
H1    H     H_    0.614472 0.105524 0.440724 0.188791
H2    H     H_    0.928826 0.692043 0.559508 0.151169
H3    H     H_    0.384909 0.893475 0.471438 0.188645
H4    H     H_    0.310094 0.095033 0.519980 0.146746
H5    H     H_    0.689720 0.904937 0.469383 0.150689
H6    H     H_    0.129588 0.631111 0.587929 0.144447
H7    H     H_    0.876633 0.380350 0.397702 0.168917
H8    H     H_    0.118602 0.305249 0.504722 0.213534
H9    H     H_    0.182351 0.386094 0.378386 0.238642
H10   H     H_    0.898790 0.588920 0.672706 0.164111
N1    N     N_2   0.842700 0.448890 0.453570 -0.190964
N2    N     N_2   0.157300 0.551110 0.546430 -0.207415
N3    N     N_3   0.099896 0.368335 0.442766 -0.479290
N4    N     N_3   0.877847 0.607171 0.588902 -0.383912
O1    O     O_R   0.431060 0.692470 0.509350 -0.615011
O2    O     O_R   0.568940 0.307530 0.490650 -0.611943
O3    O     O_R   0.651120 0.659650 0.479540 -0.592490
O4    O     O_R   0.348880 0.340350 0.520460 -0.631721
O5    O     O_R   0.389960 0.516400 0.680450 -0.602079
O6    O     O_R   0.610040 0.483600 0.319550 -0.605859
O7    O     O_R   0.610030 0.483580 0.650650 -0.588349
O8    O     O_R   0.389970 0.516420 0.349350 -0.622666
Zn1   Zn    Zn3+2 0.353060 0.521910 0.519900 0.927694
Zn2   Zn    Zn3+2 0.646940 0.478090 0.480100 0.959266

loop_
_geom_bond_atom_site_label_1
_geom_bond_atom_site_label_2
_ccdc_geom_bond_type
H2    N4    S    
C9    O8    A    
C2    C4    D    
N2    Zn1   S    
C7    O4    A    
H9    N3    S    
N1    Zn2   S    
C2    H4    S    
C5    N4    S    
C9    C11   S    
C2    C7    S    
O3    Zn2   S    
C8    O5    A    
C4    H1    S    
C1    O1    A    
C7    O2    A    
O4    Zn1   S    
C11   C13   T    
C6    N2    D    
C3    C14   D    
H6    N2    S    
C5    N1    D    
C5    C6    S    
C10   C12   T    
O8    Zn1   S    
C3    H3    S    
H8    N3    S    
C9    O6    A    
C3    C4    S    
H10   N4    S    
C1    O3    A    
O7    Zn2   S    
C12   C13   S    
O2    Zn2   S    
C8    C10   S    
O1    Zn1   S    
H7    N1    S    
C1    C14   S    
O6    Zn2   S    
C14   H5    S    
O5    Zn1   S    
C6    N3    S    
C8    O7    A    
