data_mof_unit_25906.cif
_audit_creation_date              2013-03-05T15:54:44-0500
_audit_creation_method            fapswitch 2.2
_symmetry_space_group_name_H-M    P1
_symmetry_Int_Tables_number       1
_space_group_crystal_system       triclinic
_cell_length_a                    12.313813
_cell_length_b                    13.191589
_cell_length_c                    15.067063
_cell_angle_alpha                 77.474851
_cell_angle_beta                  101.39392
_cell_angle_gamma                 116.611985
_cell_volume                      2121.93108313

loop_
_atom_site_label
_atom_site_type_symbol
_atom_site_description
_atom_site_fract_x
_atom_site_fract_y
_atom_site_fract_z
_atom_type_partial_charge
O1    O     O_R   0.972510 0.318130 0.526570 -0.578500
O2    O     O_R   0.806530 0.359650 0.490890 -0.604047
C1    C     C_R   0.854862 0.286587 0.507952 0.776692
O3    O     O_R   0.082980 0.479210 0.647590 -0.588214
O4    O     O_R   0.917000 0.520730 0.611900 -0.602420
C2    C     C_R   0.999628 0.499792 0.671198 0.807369
Cu1   Cu    Cu3+1 0.098270 0.475420 0.521130 0.940791
Cu2   Cu    Cu3+1 0.901730 0.524580 0.478870 0.928287
O5    O     O_R   0.193470 0.640350 0.509110 -0.588006
O6    O     O_R   0.027490 0.681870 0.473430 -0.586525
O7    O     O_R   0.083000 0.479270 0.388100 -0.584683
O8    O     O_R   0.917020 0.520790 0.352410 -0.594568
C3    C     C_R   0.145105 0.713422 0.486428 0.804010
C4    C     C_R   0.000535 0.500386 0.328780 0.808130
C5    C     C_R   0.098599 0.493028 0.203089 -0.182520
C6    C     C_R   0.002065 0.501955 0.231799 -0.094522
C7    C     C_R   0.907197 0.512872 0.167849 -0.235959
C8    C     C_R   0.907180 0.513419 0.075475 0.130332
C9    C     C_R   0.004598 0.504740 0.046395 0.018340
C10   C     C_R   0.102734 0.496673 0.110233 -0.022915
C11   C     C_R   0.810705 0.521868 0.011857 -0.201994
C12   C     C_R   0.809757 0.521036 0.919469 -0.212729
C13   C     C_R   0.905207 0.511603 0.889771 0.125011
C14   C     C_R   0.003018 0.503337 0.953363 0.066397
C15   C     C_R   0.098774 0.493129 0.923864 0.037053
C16   C     C_R   0.196038 0.485877 0.986770 -0.273760
C17   C     C_R   0.200342 0.489409 0.079604 0.340329
C18   C     C_R   0.904456 0.510247 0.797431 -0.251307
C19   C     C_R   0.999951 0.500359 0.768032 -0.072757
C20   C     C_R   0.096541 0.491498 0.831409 -0.211982
H1    H     H_    0.169447 0.481996 0.253811 0.202200
H2    H     H_    0.832278 0.519523 0.189952 0.162313
H3    H     H_    0.735760 0.528713 0.033645 0.159236
H4    H     H_    0.734269 0.527410 0.871301 0.148245
H5    H     H_    0.829346 0.516562 0.748666 0.157492
H6    H     H_    0.170758 0.484180 0.808850 0.157470
H7    H     H_    0.270538 0.480012 0.963328 0.179766
C21   C     C_R   0.275155 0.021376 0.377258 -0.177246
H8    H     H_    0.094106 0.886565 0.379879 0.149978
H9    H     H_    0.456673 0.218530 0.321710 0.174098
H10   H     H_    0.244283 0.079890 0.329307 0.149741
C22   C     C_R   0.227926 0.834518 0.467291 -0.048676
C23   C     C_R   0.815683 0.085202 0.567543 -0.184011
C24   C     C_R   0.737002 0.970205 0.585222 -0.143832
C25   C     C_R   0.613563 0.932494 0.552879 -0.181146
C26   C     C_R   0.566633 0.009396 0.498585 0.081830
C27   C     C_R   0.650054 0.123914 0.471625 0.078539
C28   C     C_R   0.439875 0.976127 0.469296 0.075160
C29   C     C_R   0.400020 0.053383 0.406728 0.156234
C30   C     C_R   0.485309 0.160622 0.372554 -0.222803
C31   C     C_R   0.608562 0.194829 0.403378 -0.194216
C32   C     C_R   0.351096 0.868506 0.501038 -0.247955
C33   C     C_R   0.189405 0.911977 0.406908 -0.192317
C34   C     C_R   0.773093 0.163623 0.512936 -0.101161
H11   H     H_    0.375135 0.808277 0.551655 0.147419
H12   H     H_    0.909714 0.113168 0.598569 0.153133
H13   H     H_    0.558163 0.842121 0.569869 0.128537
H14   H     H_    0.771179 0.910290 0.626728 0.143872
H15   H     H_    0.670673 0.276459 0.370852 0.180335
C35   C     C_R   0.347678 0.329320 0.646608 -0.297136
H16   H     H_    0.170111 0.310131 0.663278 0.123196
H17   H     H_    0.548175 0.295736 0.675921 0.155961
H18   H     H_    0.347344 0.263027 0.703611 0.141366
N1    N     N_R   0.246280 0.438190 0.553160 -0.183070
C36   C     C_R   0.758914 0.644976 0.375609 0.061053
C37   C     C_R   0.662078 0.676464 0.348747 -0.207344
C38   C     C_R   0.558957 0.621937 0.395578 -0.132795
C39   C     C_R   0.551280 0.534493 0.470300 -0.020223
C40   C     C_R   0.653134 0.505300 0.495451 0.288057
C41   C     C_R   0.447092 0.475236 0.521077 -0.032084
C42   C     C_R   0.447419 0.388676 0.595541 0.176468
C43   C     C_R   0.547297 0.361753 0.618924 -0.285355
C44   C     C_R   0.647647 0.418731 0.570186 -0.186960
C45   C     C_R   0.341758 0.497600 0.501714 0.029335
C46   C     C_R   0.247431 0.355611 0.624161 0.068282
N2    N     N_R   0.754320 0.561190 0.447410 -0.207891
H19   H     H_    0.333427 0.561653 0.446289 0.129261
H20   H     H_    0.838613 0.687897 0.338929 0.127603
H21   H     H_    0.486935 0.649968 0.371954 0.157983
H22   H     H_    0.666993 0.743458 0.291443 0.159372
H23   H     H_    0.719157 0.391778 0.594097 0.207238
N3    N     N_R   0.305341 0.487933 0.140801 0.113672
O9    O     O_R   0.365665 0.567260 0.192933 -0.396035
O10   O     O_R   0.353973 0.421580 0.132005 -0.377520

loop_
_geom_bond_atom_site_label_1
_geom_bond_atom_site_label_2
_geom_bond_distance
_ccdc_geom_bond_type
C8    C11   1.401745 A    
C9    C10   1.417162 A    
Cu1   Cu2   2.702084 S    
C21   C29   1.403386 A    
C25   C26   1.418013 A    
H16   C46   1.081857 S    
Cu1   O7    1.967467 S    
C25   H13   1.077114 S    
C16   C17   1.399352 A    
C36   N2    1.358210 A    
C35   H18   1.083898 S    
C18   C19   1.401519 A    
C22   C33   1.399040 A    
O4    C2    1.302052 A    
C1    C34   1.471202 S    
C11   H3    1.083891 S    
C5    C6    1.401670 A    
Cu2   N2    2.024578 S    
C40   N2    1.386316 A    
C8    C9    1.412996 A    
C29   C30   1.391416 A    
O5    C3    1.300638 A    
C18   H5    1.084518 S    
C24   H14   1.082839 S    
C6    C7    1.399860 A    
C45   H19   1.076857 S    
C41   C45   1.417920 A    
C13   C14   1.413142 A    
C40   C44   1.407065 A    
C41   C42   1.417506 A    
C32   H11   1.076659 S    
C37   C38   1.394021 A    
C11   C12   1.392130 A    
O3    Cu1   1.964667 S    
C44   H23   1.063579 S    
C3    C22   1.460108 S    
C30   C31   1.386225 A    
C5    C10   1.399666 A    
C12   H4    1.083912 S    
C26   C28   1.421914 A    
C38   C39   1.410012 A    
C38   H21   1.077931 S    
C14   C15   1.407588 A    
C21   H10   1.083885 S    
O3    C2    1.299806 A    
C39   C40   1.430589 A    
C27   C31   1.413125 A    
C35   C42   1.401465 A    
C15   C16   1.398839 A    
O1    C1    1.304061 A    
C23   C24   1.385956 A    
C19   C20   1.402696 A    
C23   C34   1.403050 A    
Cu2   O8    1.964667 S    
C7    C8    1.390213 A    
H17   C43   1.084621 S    
C13   C18   1.393431 A    
C27   C34   1.419542 A    
Cu2   O6    1.951358 S    
C28   C29   1.420132 A    
O8    C4    1.300390 A    
C36   C37   1.392238 A    
N3    O10   1.301389 A    
C4    C6    1.460591 S    
C31   H15   1.079841 S    
C24   C25   1.389394 A    
C15   C20   1.392504 A    
Cu1   O5    1.941300 S    
C26   C27   1.418021 A    
C36   H20   1.081626 S    
O1    Cu1   1.951360 S    
C17   N3    1.437363 S    
O2    Cu2   1.941301 S    
C43   C44   1.384983 A    
O6    C3    1.300917 A    
O4    Cu2   1.967469 S    
C16   H7    1.084332 S    
C5    H1    1.080939 S    
C10   C17   1.417138 A    
C37   H22   1.082553 S    
C35   C46   1.387868 A    
C20   H6    1.084466 S    
C9    C14   1.402024 A    
C42   C43   1.388775 A    
H8    C33   1.083178 S    
C21   C33   1.392394 A    
H9    C30   1.084205 S    
O7    C4    1.301700 A    
N1    C46   1.354135 A    
O2    C1    1.302002 A    
Cu1   N1    2.036528 S    
C23   H12   1.083312 S    
C28   C32   1.400348 A    
C2    C19   1.459864 S    
C39   C41   1.439546 A    
N3    O9    1.301295 A    
C7    H2    1.084568 S    
N1    C45   1.366894 A    
C12   C13   1.400054 A    
C22   C32   1.394595 A    
