data_mof_unit_64055.cif
_audit_creation_date              2012-10-26T17:34:12-0400
_audit_creation_method            fapswitch 2.2
_symmetry_space_group_name_H-M    P1
_symmetry_Int_Tables_number       1
_space_group_crystal_system       triclinic
_cell_length_a                    21.931092
_cell_length_b                    21.930629
_cell_length_c                    22.37142
_cell_angle_alpha                 119.880624
_cell_angle_beta                  119.508817
_cell_angle_gamma                 89.661818
_cell_volume                      7699.48364484

loop_
_atom_site_label
_atom_site_type_symbol
_atom_type_description
_atom_site_fract_x
_atom_site_fract_y
_atom_site_fract_z
_atom_type_partial_charge
C1    C     C_R   0.002776 0.385071 0.504921 0.578131
C2    C     C_1   0.836908 0.338083 0.174909 -0.063369
C3    C     C_1   0.124954 0.624750 0.749706 0.000590
C4    C     C_1   0.874994 0.375485 0.250298 -0.006063
C5    C     C_2   0.004794 0.250233 0.567029 0.231728
C6    C     C_2   0.936950 0.750603 0.433898 0.223278
C7    C     C_2   0.989324 0.183953 0.499563 -0.093377
C8    C     C_2   0.989608 0.816395 0.500760 -0.095892
C9    C     C_2   0.992507 0.314050 0.560509 0.009346
C10   C     C_2   0.931442 0.687013 0.440767 0.004263
C11   C     C_2   0.010628 0.324445 0.515793 -0.175610
C12   C     C_R   0.997618 0.615006 0.495204 0.584630
C13   C     C_2   0.994279 0.675896 0.484794 -0.172997
C14   C     C_R   0.615059 0.997403 0.495578 0.587510
C15   C     C_R   0.384888 0.002550 0.504314 0.585457
C16   C     C_R   0.079987 0.580006 0.659974 0.567684
C17   C     C_R   0.920005 0.420023 0.340026 0.570958
C18   C     C_R   0.419629 0.919811 0.340051 0.574491
C19   C     C_R   0.580404 0.080175 0.659945 0.576548
C20   C     C_R   0.882316 0.002277 0.500246 0.578119
C21   C     C_R   0.117683 0.997703 0.499760 0.558758
C22   C     C_R   0.997207 0.117926 0.500228 0.583211
C23   C     C_3   0.255130 0.837810 0.049221 0.144597
C24   C     C_R   0.996901 0.882150 0.499816 0.585872
C25   C     C_2   0.751541 0.993188 0.435020 -0.137805
C26   C     C_2   0.248589 0.007278 0.565184 -0.151673
C27   C     C_2   0.817119 0.009492 0.502314 -0.121076
C28   C     C_2   0.182895 0.990491 0.497717 -0.141226
C29   C     C_2   0.685249 0.001299 0.436812 0.027149
C30   C     C_2   0.314957 0.999354 0.563519 0.022896
C31   C     C_2   0.677406 0.991019 0.487773 -0.117816
C32   C     C_2   0.322441 0.008843 0.511917 -0.123102
C33   C     C_3   0.290362 0.707793 0.950028 -0.232488
C34   C     C_3   0.720687 0.159545 0.950755 0.142490
C35   C     C_3   0.720023 0.315039 0.050190 -0.229875
C36   C     C_3   0.180285 0.677843 0.950893 -0.202121
C37   C     C_3   0.833477 0.302442 0.048758 -0.203574
C38   C     C_3   0.228471 0.726153 0.048406 0.110013
C39   C     C_3   0.785128 0.254205 0.951278 0.110009
C40   C     C_1   0.375085 0.874511 0.250396 0.011266
C41   C     C_1   0.624921 0.125412 0.749599 0.023512
C42   C     C_3   0.209643 0.708257 0.917300 -0.023633
C43   C     C_3   0.790268 0.292294 0.082710 -0.017172
C44   C     C_3   0.339441 0.755148 0.047484 -0.011378
C45   C     C_3   0.209766 0.789619 0.952108 -0.181430
C46   C     C_3   0.670847 0.266833 0.952662 -0.014784
C47   C     C_3   0.292399 0.790760 0.082637 0.082324
C48   C     C_3   0.707449 0.209551 0.917372 0.085575
C49   C     C_2   0.410170 0.810199 0.084800 0.589189
C50   C     C_2   0.591065 0.232002 0.916397 0.597865
C51   C     C_3   0.096978 0.305649 0.704482 0.010525
C52   C     C_3   0.121156 0.306288 0.781285 -0.352304
C53   C     C_3   0.890305 0.694878 0.296097 0.010488
C54   C     C_3   0.837578 0.695076 0.219830 -0.347035
C55   C     C_2   0.966660 0.366686 0.609977 0.611856
C56   C     C_3   0.765803 0.209189 0.048026 -0.194261
C57   C     C_2   0.856634 0.634589 0.391845 0.612507
C58   C     C_2   0.626656 0.012872 0.375246 0.596762
C59   C     C_2   0.374102 0.989002 0.625966 0.596375
C60   C     C_3   0.209195 0.649046 0.084968 -0.014641
C61   C     C_3   0.238384 0.594368 0.105580 -0.356682
C62   C     C_3   0.834916 0.310961 0.913437 -0.015382
C63   C     C_3   0.829468 0.367523 0.892131 -0.357502
C64   C     C_3   0.299832 0.967456 0.130840 -0.011921
C65   C     C_3   0.361280 0.032967 0.167576 -0.330547
C66   C     C_3   0.660167 0.045953 0.911219 -0.016736
C67   C     C_1   0.337848 0.836688 0.175050 0.011019
C68   C     C_3   0.588118 0.001125 0.884121 -0.328470
C69   C     C_1   0.662091 0.163264 0.824939 0.025657
C70   C     C_1   0.162998 0.662333 0.825098 -0.060310
Cu1   Cu    Cu3+1 0.061030 0.500010 0.499990 0.955496
Cu2   Cu    Cu3+1 0.938970 0.499990 0.500010 1.037905
Cu3   Cu    Cu3+1 0.499800 0.938990 0.500010 0.996700
Cu4   Cu    Cu3+1 0.500200 0.061010 0.499990 0.993362
Cu5   Cu    Cu3+1 0.041320 0.041320 0.582630 0.966101
Cu6   Cu    Cu3+1 0.958680 0.958680 0.417370 0.961491
H1    H     H_    0.357764 0.716269 0.065846 0.162822
H2    H     H_    0.047108 0.710845 0.510158 0.079621
H3    H     H_    0.746598 0.975564 0.377558 0.172818
H4    H     H_    0.253616 0.025285 0.622778 0.172816
H5    H     H_    0.824671 0.033118 0.562143 0.102843
H6    H     H_    0.175277 0.966547 0.437814 0.099816
H7    H     H_    0.291670 0.649771 0.925304 0.114220
H8    H     H_    0.736246 0.374580 0.074088 0.117282
H9    H     H_    0.716527 0.971454 0.521867 0.084493
H10   H     H_    0.282981 0.027710 0.477131 0.077017
H11   H     H_    0.122134 0.677372 0.927725 0.091149
H12   H     H_    0.669032 0.305164 0.933346 0.157755
H13   H     H_    0.884257 0.286360 0.071403 0.083580
H14   H     H_    0.179816 0.619329 0.926061 0.162682
H15   H     H_    0.851778 0.362071 0.073811 0.157346
H16   H     H_    0.193237 0.751924 0.070472 0.073529
H17   H     H_    0.811991 0.212891 0.928769 0.073804
H18   H     H_    0.233045 0.812879 0.930649 0.179064
H19   H     H_    0.732134 0.200847 0.069297 0.173987
H20   H     H_    0.152017 0.791310 0.926550 0.083598
H21   H     H_    0.815187 0.192115 0.073617 0.077100
H22   H     H_    0.520275 0.856568 0.170905 0.354945
H23   H     H_    0.311707 0.728355 0.925223 0.161695
H24   H     H_    0.483586 0.205028 0.828244 0.350267
H25   H     H_    0.100243 0.363233 0.721655 0.137520
H26   H     H_    0.136083 0.287276 0.686150 0.123895
H27   H     H_    0.119500 0.249660 0.766609 0.162566
H28   H     H_    0.178442 0.344532 0.832840 0.093066
H29   H     H_    0.083827 0.325348 0.801911 0.162863
H30   H     H_    0.875981 0.637298 0.278632 0.141741
H31   H     H_    0.947572 0.712124 0.313778 0.120532
H32   H     H_    0.851013 0.751726 0.234854 0.161992
H33   H     H_    0.842682 0.656342 0.167739 0.087642
H34   H     H_    0.689523 0.310152 0.076060 0.162058
H35   H     H_    0.779766 0.677121 0.199796 0.176522
H36   H     H_    0.904045 0.380133 0.655299 0.331943
H37   H     H_    0.790611 0.528487 0.315683 0.336004
H38   H     H_    0.517892 0.991980 0.296379 0.340399
H39   H     H_    0.483137 0.011537 0.705521 0.342286
H40   H     H_    0.153188 0.618390 0.025403 0.120904
H41   H     H_    0.205102 0.692249 0.136248 0.130057
H42   H     H_    0.293901 0.623532 0.165407 0.172015
H43   H     H_    0.200310 0.568482 0.111680 0.092121
H44   H     H_    0.242488 0.550192 0.055010 0.157956
H45   H     H_    0.214572 0.852901 0.066407 0.051964
H46   H     H_    0.830234 0.258024 0.861870 0.131821
H47   H     H_    0.889900 0.332229 0.972522 0.119251
H48   H     H_    0.834510 0.421210 0.942894 0.154786
H49   H     H_    0.874581 0.376224 0.884868 0.097751
H50   H     H_    0.775482 0.347342 0.832731 0.171656
H51   H     H_    0.302796 0.970264 0.183347 0.121345
H52   H     H_    0.245809 0.971728 0.091562 0.120164
H53   H     H_    0.359374 0.032161 0.116640 0.174322
H54   H     H_    0.354446 0.085616 0.206157 0.092395
H55   H     H_    0.415815 0.030182 0.207528 0.175179
H56   H     H_    0.754681 0.126743 0.931892 0.061990
H57   H     H_    0.704872 0.057981 0.972846 0.118438
H58   H     H_    0.672509 0.011977 0.864003 0.123954
H59   H     H_    0.542568 0.987147 0.822043 0.175037
H60   H     H_    0.593589 0.948939 0.879793 0.097435
H61   H     H_    0.574505 0.033643 0.930341 0.184759
H62   H     H_    0.966633 0.176762 0.440127 0.058159
H63   H     H_    0.026859 0.823550 0.560118 0.060020
H64   H     H_    0.037832 0.288920 0.490013 0.072918
O1    O     O_R   0.051550 0.410990 0.500010 -0.515300
O2    O     O_R   0.051530 0.589030 0.499970 -0.511623
O3    O     O_R   0.111820 0.560290 0.620550 -0.511970
O4    O     O_R   0.888180 0.439710 0.379450 -0.485562
O5    O     O_R   0.008740 0.560280 0.620570 -0.480450
O6    O     O_R   0.991260 0.439720 0.379430 -0.514285
O7    O     O_R   0.588860 0.948460 0.499990 -0.508503
O8    O     O_R   0.411140 0.051540 0.500010 -0.512595
O9    O     O_R   0.588880 0.051510 0.499970 -0.476202
O10   O     O_R   0.411120 0.948490 0.500030 -0.479606
O11   O     O_R   0.439520 0.888190 0.379450 -0.500341
O12   O     O_R   0.948450 0.589010 0.499990 -0.471838
O13   O     O_R   0.560480 0.111810 0.620550 -0.498311
O14   O     O_R   0.439550 0.991240 0.379430 -0.500199
O15   O     O_R   0.560450 0.008760 0.620570 -0.497028
O16   O     O_R   0.945840 0.034880 0.569800 -0.503225
O17   O     O_R   0.054160 0.965120 0.430200 -0.516400
O18   O     O_2   0.409790 0.846614 0.057403 -0.467718
O19   O     O_R   0.476647 0.818395 0.150752 -0.685611
O20   O     O_2   0.575778 0.206173 0.946600 -0.471089
O21   O     O_R   0.534551 0.229977 0.847744 -0.691904
O22   O     O_3   0.024123 0.256767 0.639598 -0.499949
O23   O     O_R   0.876060 0.965100 0.430240 -0.498439
O24   O     O_3   0.883135 0.744398 0.361674 -0.501431
O25   O     O_2   0.991473 0.433536 0.645969 -0.524404
O26   O     O_R   0.916571 0.339345 0.619010 -0.652316
O27   O     O_2   0.805136 0.658622 0.387086 -0.476066
O28   O     O_R   0.844082 0.558047 0.347643 -0.697630
O29   O     O_2   0.643881 0.047861 0.354116 -0.509439
O30   O     O_R   0.552058 0.981179 0.338421 -0.667122
O31   O     O_2   0.357476 0.954241 0.647656 -0.520523
O32   O     O_R   0.448518 0.021628 0.662961 -0.668453
O33   O     O_3   0.258453 0.681883 0.078029 -0.562172
O34   O     O_R   0.123940 0.034900 0.569760 -0.509974
O35   O     O_3   0.776956 0.300150 0.921949 -0.565082
O36   O     O_3   0.309271 0.901021 0.082001 -0.512678
O37   O     O_3   0.652211 0.111994 0.916253 -0.514260
O38   O     O_R   0.034880 0.123910 0.569760 -0.462302
O39   O     O_R   0.965120 0.876090 0.430240 -0.463345
O40   O     O_R   0.965100 0.054130 0.430200 -0.520617
O41   O     O_R   0.034900 0.945870 0.569800 -0.519169
O42   O     O_R   0.948470 0.410970 0.500030 -0.467996

loop_
_geom_bond_atom_site_label_1
_geom_bond_atom_site_label_2
_ccdc_geom_bond_type
C44   C49   S    
C56   H19   S    
C66   C68   S    
C52   H27   S    
C34   C56   S    
C31   H9    S    
Cu3   O10   S    
C61   H43   S    
C19   O15   A    
Cu3   Cu4   S    
C12   O12   A    
C36   C42   S    
C1    C11   S    
C48   C69   S    
C22   O38   A    
Cu6   O39   S    
H37   O28   S    
C63   H48   S    
C15   C32   S    
C23   H45   S    
C57   O28   S    
C53   C54   S    
C51   H26   S    
Cu3   O7    S    
C17   O4    A    
C23   C45   S    
C33   C42   S    
Cu4   O8    S    
C44   H1    S    
C58   O30   S    
C15   O8    A    
Cu2   O5    S    
C38   H16   S    
C42   C70   S    
Cu4   O14   S    
C51   O22   S    
H38   O30   S    
Cu5   O38   S    
C18   C40   S    
C39   H17   S    
Cu5   Cu6   S    
C66   H58   S    
C53   H30   S    
Cu2   O12   S    
C40   C67   T    
Cu4   O9    S    
H24   O21   S    
C9    C55   S    
C64   O36   S    
C35   C43   S    
C14   C31   S    
C18   O14   A    
C44   C47   S    
Cu1   O1    S    
C24   O41   A    
H36   O26   S    
Cu3   O11   S    
C50   O21   S    
C60   O33   S    
Cu3   O15   S    
C68   H61   S    
C56   H21   S    
C59   O31   D    
C45   H18   S    
Cu5   O16   S    
C47   C67   S    
C62   H47   S    
C65   H55   S    
C65   H54   S    
C46   H12   S    
C36   H11   S    
C25   C29   S    
C66   O37   S    
C46   C48   S    
Cu6   O17   S    
C23   C47   S    
C37   H15   S    
C28   H6    S    
C51   C52   S    
C27   H5    S    
C16   O3    A    
C39   O35   S    
C5    C7    D    
C38   O33   S    
C6    C8    D    
C23   O36   S    
C18   O11   A    
C50   O20   D    
C20   O23   A    
C14   O7    A    
C26   H4    S    
C54   H33   S    
C60   C61   S    
C33   H23   S    
C42   C45   S    
C37   C43   S    
C2    C4    T    
C11   H64   S    
C5    C9    S    
C62   C63   S    
C66   H57   S    
C9    C11   D    
C53   H31   S    
C68   H60   S    
C2    C43   S    
C1    O42   A    
C64   H51   S    
C32   H10   S    
C30   C59   S    
C10   C57   S    
C24   O39   A    
C64   H52   S    
C60   H41   S    
C3    C70   T    
C29   C58   S    
C33   H7    S    
C38   C47   S    
C63   H49   S    
C35   H34   S    
Cu1   O2    S    
C4    C17   S    
C22   O40   A    
C21   C28   S    
C6    O24   S    
C52   H29   S    
C26   C30   S    
C8    H63   S    
C61   H44   S    
C19   O13   A    
C49   O18   D    
C60   H40   S    
C51   H25   S    
C55   O25   D    
C59   O32   S    
Cu5   O41   S    
C62   H46   S    
C41   C69   T    
C36   H14   S    
Cu2   O4    S    
C13   H2    S    
C52   H28   S    
C20   O16   A    
C61   H42   S    
C25   H3    S    
C33   C44   S    
C21   O17   A    
C68   H59   S    
C49   O19   S    
H39   O32   S    
Cu6   O40   S    
C10   C13   D    
C6    C10   S    
C7    H62   S    
C65   H53   S    
C35   H8    S    
C53   O24   S    
C57   O27   D    
C20   C27   S    
C54   H32   S    
C25   C27   D    
C7    C22   S    
C46   C50   S    
C26   C28   D    
C37   H13   S    
C64   C65   S    
C36   C38   S    
C17   O6    A    
Cu2   O42   S    
Cu1   Cu2   S    
C37   C39   S    
H22   O19   S    
C5    O22   S    
C30   C32   D    
C45   H20   S    
Cu1   O3    S    
C62   O35   S    
C14   O9    A    
C8    C24   S    
C12   O2    A    
C54   H35   S    
Cu6   O23   S    
C63   H50   S    
C1    O1    A    
C34   H56   S    
C58   O29   D    
C43   C56   S    
Cu1   O6    S    
C34   C48   S    
C12   C13   S    
Cu4   O13   S    
C29   C31   D    
C21   O34   A    
C16   O5    A    
C34   O37   S    
C55   O26   S    
C35   C46   S    
C15   O10   A    
C3    C16   S    
C19   C41   S    
C39   C48   S    
Cu5   O34   S    
