data_mof_unit_45976.cif
_audit_creation_date              2012-12-11T18:13:21-0500
_audit_creation_method            fapswitch 2.2
_symmetry_space_group_name_H-M    P1
_symmetry_Int_Tables_number       1
_space_group_crystal_system       triclinic
_cell_length_a                    8.20599
_cell_length_b                    12.678829
_cell_length_c                    18.672055
_cell_angle_alpha                 99.196514
_cell_angle_beta                  91.012581
_cell_angle_gamma                 98.555091
_cell_volume                      1894.66509692

loop_
_atom_site_label
_atom_site_type_symbol
_atom_type_description
_atom_site_fract_x
_atom_site_fract_y
_atom_site_fract_z
_atom_type_partial_charge
Ba1   Ba    Ba6+2 0.852780 0.548340 0.465070 1.635087
Ba2   Ba    Ba6+2 0.337060 0.451750 0.534940 1.631871
C1    C     C_3   0.708476 0.918856 0.257479 -0.392648
C2    C     C_3   0.672288 0.818483 0.293043 0.367208
C3    C     C_3   0.466390 0.283706 0.314933 0.310459
C4    C     C_3   0.427155 0.249921 0.233906 -0.423865
C5    C     C_3   0.060127 0.239317 0.735393 0.365954
C6    C     C_3   0.079267 0.215575 0.812158 -0.367104
C7    C     C_3   0.558930 0.178931 0.701835 0.345575
C8    C     C_3   0.611764 0.099704 0.747430 -0.416725
C9    C     C_R   0.994829 0.442241 0.047045 0.006289
C10   C     C_R   0.893898 0.388875 0.094692 0.034217
C11   C     C_R   0.731581 0.342201 0.071879 -0.082345
C12   C     C_3   0.180163 0.800626 0.263291 0.400772
C13   C     C_R   0.669851 0.348426 0.002632 -0.090944
C14   C     C_R   0.770066 0.399936 0.954321 0.032389
C15   C     C_R   0.933172 0.447186 0.976443 0.013548
C16   C     C_R   0.709962 0.403246 0.884067 -0.110151
C17   C     C_R   0.811856 0.450347 0.833839 -0.042892
C18   C     C_R   0.974668 0.500977 0.856531 -0.005086
C19   C     C_R   0.034287 0.499360 0.928161 -0.009053
C20   C     C_R   0.757570 0.446056 0.761016 -0.006080
C21   C     C_R   0.866033 0.487843 0.711838 -0.296597
C22   C     C_R   0.023332 0.543814 0.733852 0.043620
C23   C     C_3   0.074831 0.723479 0.203056 -0.277379
C24   C     C_R   0.078436 0.552409 0.807742 -0.045926
C25   C     C_R   0.157109 0.490297 0.069845 -0.006875
C26   C     C_R   0.215928 0.490402 0.141838 -0.004017
C27   C     C_R   0.111247 0.441244 0.191203 -0.054163
C28   C     C_R   0.954693 0.384969 0.164915 -0.048757
C29   C     C_R   0.235126 0.608151 0.834218 -0.042454
C30   C     C_R   0.296941 0.601996 0.903794 0.035342
C31   C     C_R   0.196564 0.547409 0.951012 0.006359
C32   C     C_R   0.258344 0.542151 0.021497 0.014900
C33   C     C_R   0.459475 0.648235 0.926491 -0.083588
C34   C     C_3   0.234996 0.786167 0.617871 0.281579
C35   C     C_R   0.521606 0.641163 0.995450 -0.091309
C36   C     C_R   0.421323 0.589605 0.043671 0.030991
C37   C     C_R   0.377783 0.542518 0.164822 -0.039641
C38   C     C_R   0.480822 0.587349 0.114123 -0.112417
C39   C     C_R   0.429353 0.551108 0.238445 -0.000504
C40   C     C_R   0.320763 0.510969 0.287764 -0.286521
C41   C     C_R   0.164946 0.453735 0.265582 0.051384
C42   C     C_R   0.765442 0.181550 0.526699 -0.278302
C43   C     C_R   0.432692 0.806395 0.467087 -0.279964
C44   C     C_R   0.406612 0.983145 0.441528 -0.113689
C45   C     C_3   0.256655 0.908715 0.633577 -0.353528
C46   C     C_R   0.342376 0.874666 0.437327 -0.023307
C47   C     C_R   0.580258 0.847521 0.507406 0.065507
C48   C     C_R   0.645091 0.959432 0.514490 -0.057541
C49   C     C_R   0.557046 0.027316 0.479891 -0.054699
C50   C     C_R   0.619083 0.138518 0.486553 0.041540
C51   C     C_R   0.857585 0.115524 0.557537 -0.019028
C52   C     C_R   0.795183 0.005772 0.553973 -0.092764
C53   C     C_3   0.963935 0.210019 0.381984 0.282888
C54   C     C_3   0.034418 0.105490 0.377790 -0.342619
C55   C     C_3   0.729734 0.708202 0.683206 0.317252
C56   C     C_3   0.751879 0.746716 0.764711 -0.406970
H1    H     H_    0.746463 0.831691 0.344954 0.093351
H2    H     H_    0.350100 0.939157 0.678471 0.111481
H3    H     H_    0.298376 0.942879 0.584920 0.084984
H4    H     H_    0.137695 0.935549 0.649421 0.146123
H5    H     H_    0.828724 0.191898 0.383882 -0.008105
H6    H     H_    0.014489 0.262560 0.433105 0.067904
H7    H     H_    0.957561 0.040617 0.340702 0.106488
H8    H     H_    0.037123 0.080691 0.431800 0.113806
H9    H     H_    0.160704 0.115974 0.357325 0.134166
H10   H     H_    0.846681 0.684842 0.662388 0.012688
H11   H     H_    0.630077 0.637407 0.672969 0.064388
H12   H     H_    0.839904 0.931840 0.244024 0.139788
H13   H     H_    0.857561 0.813545 0.776582 0.127373
H14   H     H_    0.775850 0.679658 0.792921 0.057640
H15   H     H_    0.638296 0.776259 0.785771 0.118055
H16   H     H_    0.539535 0.805103 0.304562 -0.085893
H17   H     H_    0.678075 0.990578 0.294195 0.082235
H18   H     H_    0.358705 0.315782 0.340307 0.013957
H19   H     H_    0.575178 0.348255 0.322821 0.075991
H20   H     H_    0.301689 0.202328 0.224877 0.116018
H21   H     H_    0.430613 0.322253 0.207255 0.065290
H22   H     H_    0.518933 0.200795 0.208823 0.128186
H23   H     H_    0.636786 0.908157 0.205411 0.109901
H24   H     H_    0.975664 0.762071 0.181932 0.143405
H25   H     H_    0.143748 0.315158 0.731139 0.095581
H26   H     H_    0.930715 0.250700 0.725709 -0.071771
H27   H     H_    0.209976 0.209733 0.824859 0.149310
H28   H     H_    0.040781 0.281191 0.851754 0.071596
H29   H     H_    0.001321 0.138031 0.817548 0.111158
H30   H     H_    0.669733 0.213729 0.675240 -0.052923
H31   H     H_    0.468641 0.134489 0.658408 0.079685
H32   H     H_    0.704284 0.143162 0.790212 0.114003
H33   H     H_    0.667034 0.036003 0.712514 0.095732
H34   H     H_    0.263506 0.751241 0.285859 -0.062342
H35   H     H_    0.503875 0.061429 0.774106 0.129903
H36   H     H_    0.651592 0.301718 0.107896 0.062812
H37   H     H_    0.543801 0.312113 0.986647 0.070443
H38   H     H_    0.824415 0.480751 0.655732 0.070009
H39   H     H_    0.584000 0.366865 0.868946 0.108305
H40   H     H_    0.875680 0.340767 0.199227 0.102555
H41   H     H_    0.313317 0.654207 0.800643 0.095997
H42   H     H_    0.539205 0.689306 0.890700 0.061406
H43   H     H_    0.647624 0.677529 0.011470 0.069682
H44   H     H_    0.606786 0.623505 0.129041 0.114211
H45   H     H_    0.361609 0.519945 0.344135 0.068914
H46   H     H_    0.334260 0.032420 0.416669 0.091252
H47   H     H_    0.866903 0.958342 0.581291 0.107112
H48   H     H_    0.812598 0.266763 0.530763 0.062331
H49   H     H_    0.381497 0.721885 0.463414 0.069865
H50   H     H_    0.151764 0.698326 0.157104 0.043284
H51   H     H_    0.018923 0.650787 0.224611 0.145558
H52   H     H_    0.353517 0.760342 0.602033 0.006850
H53   H     H_    0.141285 0.757737 0.572707 0.079389
O1    O     O_2   0.873090 0.425890 0.325140 -0.463290
O2    O     O_3   0.688701 0.793043 0.650524 -0.641912
O3    O     O_3   0.076916 0.846639 0.315292 -0.596780
O4    O     O_2   0.316610 0.574140 0.674900 -0.468620
O5    O     O_3   0.067290 0.565720 0.585630 -0.496822
O6    O     O_3   0.530210 0.372990 0.631200 -0.464038
O7    O     O_3   0.186143 0.746683 0.681107 -0.639142
O8    O     O_3   0.611340 0.366290 0.463630 -0.478261
O9    O     O_3   0.108550 0.314140 0.595200 -0.483618
O10   O     O_2   0.199397 0.122218 0.554366 -0.483458
O11   O     O_3   0.101311 0.152496 0.686076 -0.598484
O12   O     O_3   0.122420 0.434370 0.414380 -0.494199
O13   O     O_3   0.578370 0.633800 0.536380 -0.488143
O14   O     O_2   0.341510 0.231850 0.465510 -0.464338
O15   O     O_3   0.500135 0.193952 0.344581 -0.652671
O16   O     O_2   0.416984 0.452484 0.757025 -0.496621
O17   O     O_3   0.482649 0.255958 0.746633 -0.597372
O18   O     O_3   0.659500 0.627100 0.368810 -0.479007
O19   O     O_2   0.758410 0.533371 0.243396 -0.490789
O20   O     O_3   0.001061 0.253254 0.318608 -0.641741
O21   O     O_3   0.716669 0.731400 0.245390 -0.609125
O22   O     O_2   0.848200 0.768190 0.534530 -0.473764
O23   O     O_3   0.081160 0.685950 0.404810 -0.468161
O24   O     O_2   0.007884 0.879518 0.451975 -0.492345
P1    P     P_3+3 0.041040 0.394770 0.336330 0.974073
P2    P     P_3+3 0.672880 0.754030 0.556100 0.967031
P3    P     P_3+3 0.129368 0.823649 0.402478 0.946011
P4    P     P_3+3 0.148670 0.605320 0.663680 0.970623
P5    P     P_3+3 0.065309 0.175168 0.597507 0.947695
P6    P     P_3+3 0.639033 0.610300 0.274355 0.938981
P7    P     P_3+3 0.521721 0.230630 0.439056 0.930891
P8    P     P_3+3 0.547541 0.384504 0.725116 0.950249
C57   C     C_3   0.289170 0.890252 0.231872 -0.191363
C58   C     C_3   0.194652 0.962400 0.194024 -0.382319
H54   H     H_    0.284600 0.020868 0.170983 0.117064
H55   H     H_    0.120239 0.008051 0.233035 0.146030
H56   H     H_    0.114047 0.914826 0.148210 0.113232
H57   H     H_    0.368844 0.942279 0.276456 0.097130
H58   H     H_    0.368762 0.851413 0.191570 0.072969

loop_
_geom_bond_atom_site_label_1
_geom_bond_atom_site_label_2
_ccdc_geom_bond_type
O24   P3    D    
C5    H25   S    
C53   C54   S    
O22   P2    D    
C47   P2    S    
O12   P1    S    
C51   P5    S    
C39   C40   A    
C17   C18   A    
C40   H45   S    
C45   H4    S    
C58   H54   S    
C4    H21   S    
C5    C6    S    
C37   C39   A    
C51   C52   A    
C35   C36   A    
Ba2   P4    S    
O10   P5    D    
C26   C27   A    
C33   C35   A    
C22   C24   A    
C6    H27   S    
Ba1   O18   S    
C7    H30   S    
C13   H37   S    
C3    C4    S    
C56   H13   S    
C4    H20   S    
O18   P6    S    
C13   C14   A    
C21   H38   S    
C34   C45   S    
Ba1   Ba2   S    
Ba1   O8    S    
O19   P6    D    
C57   H58   S    
C45   H2    S    
Ba2   O5    S    
C42   C51   A    
C14   C15   A    
C53   H5    S    
C20   P8    S    
C1    H23   S    
C21   C22   A    
C38   H44   S    
O9    P5    S    
C16   H39   S    
C29   H41   S    
Ba1   O1    S    
Ba1   P1    S    
C1    H17   S    
C7    C8    S    
C2    H16   S    
C23   H51   S    
O5    P4    S    
C42   C50   A    
C5    H26   S    
C24   C29   A    
C25   C32   A    
C36   C38   A    
C27   C41   A    
O1    P1    D    
Ba1   O22   S    
C58   H55   S    
Ba2   O6    S    
C48   C49   A    
C44   C46   A    
C22   P4    S    
C12   C57   S    
C7    O17   S    
C49   C50   A    
C30   C33   A    
O13   P2    S    
C17   C20   A    
C2    O21   S    
O20   P1    S    
C7    H31   S    
C37   C38   A    
Ba2   O9    S    
C16   C17   A    
C55   O2    S    
C26   C37   A    
Ba2   O12   S    
C44   H46   S    
C44   C49   A    
O15   P7    S    
C50   P7    S    
C1    C2    S    
C3    O15   S    
Ba1   O12   S    
C39   P6    S    
C57   H57   S    
Ba2   O4    S    
C56   H15   S    
C4    H22   S    
C29   C30   A    
C9    C25   A    
O14   P7    D    
Ba2   O8    S    
C53   H6    S    
C1    H12   S    
C34   H53   S    
C31   C32   A    
O16   P8    D    
C10   C11   A    
C12   H34   S    
Ba1   O5    S    
O4    P4    D    
C8    H33   S    
Ba2   O13   S    
C11   C13   A    
C34   H52   S    
C23   H24   S    
O2    P2    S    
O6    P8    S    
C40   C41   A    
C5    O11   S    
C3    H19   S    
O7    P4    S    
Ba1   O23   S    
C58   H56   S    
Ba1   P2    S    
C43   C46   A    
O21   P6    S    
C9    C15   A    
C52   H47   S    
C10   C28   A    
C32   C36   A    
C57   C58   S    
C45   H3    S    
C9    C10   A    
C42   H48   S    
O23   P3    S    
C54   H9    S    
C28   H40   S    
C53   O20   S    
C8    H35   S    
C46   P3    S    
C11   H36   S    
C6    H29   S    
C30   C31   A    
C3    H18   S    
Ba1   O13   S    
O11   P5    S    
C48   C52   A    
C12   O3    S    
C35   H43   S    
C56   H14   S    
C55   C56   S    
C18   C24   A    
C54   H8    S    
C33   H42   S    
C2    H1    S    
C43   C47   A    
C6    H28   S    
O3    P3    S    
C12   C23   S    
C41   P1    S    
O17   P8    S    
C15   C19   A    
C27   C28   A    
Ba2   O14   S    
C43   H49   S    
C19   C31   A    
C18   C19   A    
C8    H32   S    
C14   C16   A    
C47   C48   A    
C25   C26   A    
O8    P7    S    
C20   C21   A    
C34   O7    S    
C55   H10   S    
C55   H11   S    
C54   H7    S    
C23   H50   S    
