data_mof_unit_10319.cif
_audit_creation_date              2012-12-10T17:02:18-0500
_audit_creation_method            fapswitch 2.2
_symmetry_space_group_name_H-M    P1
_symmetry_Int_Tables_number       1
_space_group_crystal_system       triclinic
_cell_length_a                    10.64256
_cell_length_b                    10.673248
_cell_length_c                    10.129025
_cell_angle_alpha                 88.147431
_cell_angle_beta                  89.974831
_cell_angle_gamma                 90.558989
_cell_volume                      1149.90642818

loop_
_atom_site_label
_atom_site_type_symbol
_atom_type_description
_atom_site_fract_x
_atom_site_fract_y
_atom_site_fract_z
_atom_type_partial_charge
C1    C     C_R   0.489432 0.262656 0.502873 0.888018
C2    C     C_2   0.451332 0.132532 0.513416 0.005396
C3    C     C_2   0.497296 0.598517 0.925330 0.221129
C4    C     C_R   0.260691 0.496516 0.500067 0.853188
C5    C     C_2   0.540442 0.589844 0.066172 0.264693
C6    C     C_R   0.499887 0.737186 0.497053 0.931065
C7    C     C_R   0.739033 0.496409 0.500015 0.863604
C8    C     C_R   0.128165 0.292343 0.639067 -0.179874
C9    C     C_R   0.061943 0.196480 0.705967 -0.134445
C10   C     C_R   0.931246 0.195721 0.705117 -0.142431
C11   C     C_R   0.866523 0.290923 0.637553 -0.185588
C12   C     C_R   0.064287 0.390353 0.571298 0.094307
C13   C     C_R   0.932540 0.389906 0.570819 0.098181
C14   C     C_3   0.421429 0.076656 0.650837 -0.900395
C15   C     C_3   0.437541 0.718284 0.876868 -0.811073
C16   C     C_3   0.628298 0.690092 0.112785 -0.868288
C17   C     C_3   0.394183 0.421572 0.111924 -0.203028
C18   C     C_3   0.272504 0.495755 0.089985 -0.831169
C19   C     C_3   0.328231 0.874442 0.316992 -0.868906
C20   C     C_R   0.127964 0.487233 0.499645 -0.096477
C21   C     C_R   0.064636 0.577129 0.423568 -0.214532
C22   C     C_R   0.936266 0.577506 0.424049 -0.211341
C23   C     C_R   0.871204 0.487106 0.499544 -0.094834
C24   C     C_2   0.425079 0.934274 0.404493 0.233014
C25   C     C_2   0.502986 0.869989 0.485989 -0.343226
C26   C     C_2   0.435481 0.069669 0.401996 -0.185905
H1    H     H_    0.114749 0.648819 0.366022 0.147761
H2    H     H_    0.368429 0.143647 0.710129 0.237029
H3    H     H_    0.361287 0.991278 0.647857 0.253647
H4    H     H_    0.509963 0.055397 0.704584 0.233233
H5    H     H_    0.394183 0.766694 0.960706 0.198933
H6    H     H_    0.509690 0.781968 0.831609 0.242621
H7    H     H_    0.360769 0.698667 0.806103 0.258902
H8    H     H_    0.708866 0.700227 0.043479 0.213572
H9    H     H_    0.578749 0.780912 0.116076 0.228634
H10   H     H_    0.666652 0.666633 0.211761 0.275475
H11   H     H_    0.190011 0.435819 0.117315 0.238024
H12   H     H_    0.553573 0.427887 0.890346 0.139681
H13   H     H_    0.271264 0.580573 0.150594 0.269610
H14   H     H_    0.261993 0.524780 0.984507 0.245169
H15   H     H_    0.413910 0.361213 0.028029 0.127445
H16   H     H_    0.375929 0.353479 0.194238 0.222431
H17   H     H_    0.267689 0.946688 0.268738 0.224071
H18   H     H_    0.374472 0.822075 0.237893 0.249915
H19   H     H_    0.267025 0.810337 0.377263 0.225116
H20   H     H_    0.229149 0.287843 0.638828 0.150416
H21   H     H_    0.112187 0.121821 0.757194 0.134990
H22   H     H_    0.879831 0.120428 0.755662 0.133065
H23   H     H_    0.765119 0.284534 0.636232 0.152295
H24   H     H_    0.887352 0.650077 0.367643 0.147685
H25   H     H_    0.573087 0.916630 0.545330 0.130977
H26   H     H_    0.440822 0.116592 0.305283 0.141255
N1    N     N_2   0.501340 0.501330 0.852150 -0.209213
N2    N     N_2   0.501380 0.501360 0.147810 -0.091976
O1    O     O_R   0.499980 0.319060 0.613040 -0.620045
O2    O     O_R   0.500020 0.319100 0.386900 -0.646562
O3    O     O_R   0.316750 0.499980 0.613090 -0.618075
O4    O     O_R   0.316790 0.500020 0.386950 -0.614216
O5    O     O_R   0.499980 0.680900 0.613100 -0.611946
O6    O     O_R   0.500020 0.680940 0.386960 -0.602925
O7    O     O_R   0.683210 0.499980 0.613050 -0.613851
O8    O     O_R   0.683250 0.500020 0.386910 -0.617330
Zn1   Zn    Zn3+2 0.499970 0.499970 0.650990 0.922979
Zn2   Zn    Zn3+2 0.500030 0.500030 0.349010 0.920122

loop_
_geom_bond_atom_site_label_1
_geom_bond_atom_site_label_2
_ccdc_geom_bond_type
C4    O3    A    
C18   H13   S    
C25   H25   S    
C7    O8    A    
C15   H5    S    
C9    H21   S    
C11   H23   S    
C26   H26   S    
C19   H17   S    
N1    Zn1   S    
C9    C10   A    
O5    Zn1   S    
C22   H24   S    
C8    C12   A    
C16   H8    S    
C12   C20   A    
C19   H19   S    
C17   C18   S    
C21   H1    S    
C15   H6    S    
C2    C26   D    
C21   C22   A    
C19   H18   S    
O4    Zn2   S    
C12   C13   A    
C11   C13   A    
C3    N1    D    
O2    Zn2   S    
H12   N1    S    
N2    Zn2   S    
C14   H4    S    
C7    C23   S    
C6    O5    A    
C1    O2    A    
C24   C26   S    
O6    Zn2   S    
O3    Zn1   S    
C8    H20   S    
C16   H9    S    
C10   H22   S    
C2    C14   S    
C17   H15   S    
C1    O1    A    
C6    C25   S    
C10   C11   A    
C14   H3    S    
C4    C20   S    
C6    O6    A    
C5    N2    D    
C3    C15   S    
C24   C25   D    
C13   C23   A    
C1    C2    S    
C4    O4    A    
O7    Zn1   S    
C18   H14   S    
C17   H16   S    
C7    O7    A    
C5    C16   S    
O8    Zn2   S    
C14   H2    S    
C20   C21   A    
C22   C23   A    
C19   C24   S    
C17   N2    S    
C18   H11   S    
C16   H10   S    
C15   H7    S    
C8    C9    A    
C3    C5    S    
O1    Zn1   S    
