data_mof_unit_33422.cif
_audit_creation_date              2012-12-11T15:48:43-0500
_audit_creation_method            fapswitch 2.2
_symmetry_space_group_name_H-M    P1
_symmetry_Int_Tables_number       1
_space_group_crystal_system       triclinic
_cell_length_a                    10.912753
_cell_length_b                    10.98088
_cell_length_c                    18.768452
_cell_angle_alpha                 90.544772
_cell_angle_beta                  90.176769
_cell_angle_gamma                 60.351759
_cell_volume                      1954.51346667

loop_
_atom_site_label
_atom_site_type_symbol
_atom_type_description
_atom_site_fract_x
_atom_site_fract_y
_atom_site_fract_z
_atom_type_partial_charge
C1    C     C_R   0.239134 0.645830 0.610169 0.541884
C2    C     C_3   0.614644 0.596067 0.800792 -0.253201
C3    C     C_3   0.698468 0.672942 0.812058 0.048715
C4    C     C_3   0.670610 0.647321 0.675849 0.062866
C5    C     C_3   0.828895 0.580173 0.695009 -0.243323
C6    C     C_3   0.598645 0.580065 0.720339 -0.210669
C7    C     C_R   0.697239 0.128083 0.817783 -0.002480
C8    C     C_R   0.815207 0.104452 0.777311 0.013751
C9    C     C_R   0.804814 0.118779 0.703509 0.036780
C10   C     C_R   0.580385 0.130300 0.706607 -0.188210
C11   C     C_R   0.581979 0.134462 0.780040 -0.182961
C12   C     C_R   0.654691 0.622681 0.600422 0.541310
C13   C     C_3   0.908681 0.167988 0.781849 -0.228430
C14   C     C_3   0.897573 0.182480 0.700750 0.001478
C15   C     C_R   0.680204 0.146778 0.667900 -0.009655
C16   C     C_R   0.176116 0.672896 0.834160 0.013258
C17   C     C_R   0.159855 0.574017 0.794212 0.015470
C18   C     C_R   0.168334 0.570523 0.720408 -0.006504
C19   C     C_R   0.200305 0.772069 0.724070 -0.149114
C20   C     C_R   0.195651 0.773050 0.797846 -0.161794
C21   C     C_3   0.243035 0.418722 0.799174 -0.286227
C22   C     C_3   0.252757 0.415065 0.718654 -0.270253
C23   C     C_R   0.630993 0.223816 0.601253 0.541876
C24   C     C_R   0.191327 0.667546 0.683985 0.011280
C25   C     C_R   0.674437 0.680785 0.173996 0.019184
C26   C     C_R   0.794694 0.613248 0.216892 0.048814
C27   C     C_R   0.787928 0.611670 0.289637 0.015608
C28   C     C_R   0.535097 0.755650 0.282171 -0.162743
C29   C     C_R   0.543851 0.760889 0.207706 -0.183295
C30   C     C_3   0.918613 0.468610 0.213110 -0.259653
C31   C     C_3   0.917487 0.470361 0.293903 -0.277875
C32   C     C_R   0.657218 0.670802 0.323106 0.016141
C33   C     C_R   0.627976 0.196737 0.167146 0.021554
C34   C     C_R   0.220368 0.648985 0.402205 0.548180
C35   C     C_R   0.512578 0.208001 0.204958 0.018993
C36   C     C_R   0.495526 0.243336 0.275930 0.007857
C37   C     C_R   0.687480 0.290743 0.270419 -0.163539
C38   C     C_R   0.707378 0.251777 0.198123 -0.168578
C39   C     C_3   0.465806 0.102293 0.214966 -0.264073
C40   C     C_3   0.447344 0.141054 0.293207 -0.267087
C41   C     C_R   0.589538 0.273887 0.311444 0.016646
C42   C     C_R   0.117932 0.691897 0.188200 0.030124
C43   C     C_R   0.055275 0.810389 0.232762 0.043171
C44   C     C_R   0.071615 0.799109 0.305131 0.016020
C45   C     C_R   0.642388 0.624179 0.392933 0.543914
C46   C     C_R   0.193916 0.547329 0.291630 -0.169654
C47   C     C_R   0.180459 0.559261 0.218096 -0.176576
C48   C     C_3   0.064922 0.941406 0.231180 -0.265255
C49   C     C_3   0.080027 0.930907 0.311343 -0.278730
C50   C     C_R   0.151328 0.667265 0.334942 0.021290
C51   C     C_R   0.704718 0.095733 0.893907 0.542056
C52   C     C_R   0.722003 0.687098 0.888589 0.540115
C53   C     C_R   0.118296 0.706511 0.905844 0.542757
C54   C     C_R   0.672368 0.111600 0.102645 0.546120
C55   C     C_R   0.697744 0.691342 0.098655 0.543747
C56   C     C_R   0.578606 0.295850 0.388341 0.568397
C57   C     C_R   0.089389 0.712481 0.113636 0.545459
C58   C     C_3   0.618255 0.819133 0.775797 -0.225637
C59   C     C_3   0.598568 0.804407 0.695432 -0.251657
C60   C     C_3   0.844430 0.590228 0.774969 -0.223613
Cr1   Cr    Cr6+3 0.392960 0.397920 0.502240 0.994554
Cr2   Cr    Cr6+3 0.398340 0.708480 0.501250 0.992636
Cr3   Cr    Cr6+3 0.708670 0.393570 0.496460 0.993851
Cr4   Cr    Cr6+3 0.937650 0.938540 0.007610 1.008138
Cr5   Cr    Cr6+3 0.625330 0.937370 0.994520 1.001999
Cr6   Cr    Cr6+3 0.937940 0.625230 0.001190 1.005673
H1    H     H_    0.682448 0.870997 0.782970 0.147534
H2    H     H_    0.641714 0.468013 0.706783 0.112225
H3    H     H_    0.906247 0.482484 0.796813 0.133905
H4    H     H_    0.889852 0.468291 0.678985 0.131767
H5    H     H_    0.489016 0.134394 0.681321 0.137317
H6    H     H_    0.493155 0.136556 0.806745 0.144521
H7    H     H_    0.015611 0.091818 0.801360 0.154663
H8    H     H_    0.858572 0.269949 0.810615 0.092290
H9    H     H_    0.844325 0.290431 0.680484 0.152327
H10   H     H_    0.223964 0.846375 0.699252 0.171546
H11   H     H_    0.513299 0.885567 0.801074 0.126753
H12   H     H_    0.204855 0.854382 0.826332 0.130576
H13   H     H_    0.179084 0.373337 0.819842 0.132993
H14   H     H_    0.345428 0.383412 0.826530 0.140577
H15   H     H_    0.360500 0.380057 0.698766 0.176181
H16   H     H_    0.195573 0.367034 0.692314 0.123839
H17   H     H_    0.431753 0.808222 0.306590 0.137588
H18   H     H_    0.449365 0.823225 0.176835 0.120578
H19   H     H_    0.012306 0.464800 0.188941 0.157298
H20   H     H_    0.891069 0.392145 0.189792 0.126069
H21   H     H_    0.904200 0.386098 0.317331 0.147963
H22   H     H_    0.006316 0.477191 0.318005 0.142112
H23   H     H_    0.754723 0.323377 0.295444 0.131623
H24   H     H_    0.792077 0.252249 0.168658 0.112309
H25   H     H_    0.552865 0.994394 0.204462 0.166798
H26   H     H_    0.364906 0.131714 0.187205 0.132328
H27   H     H_    0.335442 0.193086 0.310773 0.126989
H28   H     H_    0.522652 0.054212 0.327729 0.163483
H29   H     H_    0.248213 0.443821 0.314015 0.141587
H30   H     H_    0.222954 0.465933 0.184883 0.120793
H31   H     H_    0.965436 0.032515 0.213448 0.153065
H32   H     H_    0.645601 0.856494 0.664006 0.120940
H33   H     H_    0.161424 0.926840 0.203587 0.135127
H34   H     H_    0.183761 0.915277 0.329202 0.154256
H35   H     H_    0.987465 0.015638 0.339865 0.147947
H36   H     H_    0.903070 0.646851 0.785072 0.142373
H37   H     H_    0.876776 0.635039 0.666558 0.121945
H38   H     H_    0.669114 0.491598 0.826291 0.113346
H39   H     H_    0.508758 0.656630 0.826005 0.117755
H40   H     H_    0.484772 0.631563 0.707165 0.132157
O1    O     O_R   0.507380 0.255700 0.581440 -0.530196
O2    O     O_R   0.524480 0.695810 0.424040 -0.509689
O3    O     O_R   0.736390 0.504290 0.414790 -0.533973
O4    O     O_R   0.691300 0.277290 0.422170 -0.508590
O5    O     O_3   0.499990 0.499990 0.499980 -0.265465
O6    O     O_R   0.089400 0.825690 0.930570 -0.527102
O7    O     O_R   0.818460 0.054440 0.929850 -0.496370
O8    O     O_R   0.606060 0.077150 0.915510 -0.535455
O9    O     O_R   0.646550 0.806680 0.917570 -0.510996
O10   O     O_R   0.837170 0.593410 0.915250 -0.527276
O11   O     O_R   0.065200 0.635530 0.931570 -0.500307
O12   O     O_R   0.280320 0.527350 0.578930 -0.502957
O13   O     O_R   0.068260 0.828890 0.091840 -0.524216
O14   O     O_R   0.798870 0.057410 0.079340 -0.507653
O15   O     O_R   0.584930 0.080350 0.076780 -0.520168
O16   O     O_R   0.626960 0.809650 0.067060 -0.505605
O17   O     O_R   0.816040 0.596610 0.076510 -0.520521
O18   O     O_R   0.045610 0.638500 0.081060 -0.509201
O19   O     O_3   0.833640 0.833710 0.001100 -0.248421
O20   O     O_R   0.260510 0.739590 0.584590 -0.529704
O21   O     O_R   0.532300 0.695080 0.573820 -0.508482
O22   O     O_R   0.744840 0.503500 0.576370 -0.533605
O23   O     O_R   0.699120 0.276560 0.571960 -0.504774
O24   O     O_R   0.498940 0.256500 0.419860 -0.522067
O25   O     O_R   0.272500 0.528080 0.429150 -0.526919
O26   O     O_R   0.252060 0.740380 0.423010 -0.524260
N1    N     N_2   0.028967 0.091462 0.664317 -0.513822
H41   H     H_    0.015102 0.060054 0.614381 0.272712
C61   C     C_3   0.129185 0.141412 0.663937 -0.334400
H42   H     H_    0.230042 0.060022 0.640089 0.140964
H43   H     H_    0.150676 0.163233 0.719111 0.139770
H44   H     H_    0.087942 0.238020 0.631615 0.137562
H45   H     H_    0.483913 0.857252 0.683025 0.124868

loop_
_geom_bond_atom_site_label_1
_geom_bond_atom_site_label_2
_ccdc_geom_bond_type
C44   C49   S    
C61   H44   S    
C5    H37   S    
C8    C13   S    
C54   O14   A    
C32   C45   S    
C35   C36   A    
C40   H27   S    
C9    C14   S    
C61   H42   S    
C12   O21   A    
C7    C11   A    
C48   H31   S    
C26   C27   A    
C51   O7    A    
Cr4   O13   S    
Cr6   O10   S    
C18   C24   A    
C22   H16   S    
C28   C29   A    
C10   C15   A    
C49   H35   S    
Cr2   O21   S    
C53   O11   A    
Cr4   O6    S    
Cr2   O2    S    
C23   O23   A    
Cr5   O8    S    
C39   H25   S    
C16   C53   S    
C58   H11   S    
C2    H38   S    
C46   H29   S    
C19   C20   A    
C8    C9    A    
Cr6   O11   S    
C47   H30   S    
C31   H22   S    
Cr5   O15   S    
C30   H20   S    
C43   C48   S    
Cr3   O22   S    
C45   O2    A    
C57   O13   A    
C3    C60   S    
C15   C23   S    
Cr1   O12   S    
C55   O16   A    
C34   O26   A    
C21   C22   S    
C28   H17   S    
C37   C41   A    
Cr5   O9    S    
C36   C41   A    
C2    C6    S    
C60   H36   S    
C42   C57   S    
C56   O4    A    
C42   C47   A    
C52   O10   A    
C25   C29   A    
C55   O17   A    
C34   C50   S    
C51   O8    A    
C31   H21   S    
Cr2   O5    S    
C27   C31   S    
C22   H15   S    
Cr2   O26   S    
C28   C32   A    
C1    O20   A    
C29   H18   S    
C4    C6    S    
C59   H45   S    
C39   C40   S    
Cr2   O20   S    
C11   H6    S    
C16   C17   A    
C25   C26   A    
C17   C21   S    
Cr5   O19   S    
Cr3   O3    S    
C35   C39   S    
C43   C44   A    
C41   C56   S    
C37   C38   A    
C4    C59   S    
C36   C40   S    
C16   C20   A    
C23   O1    A    
C21   H13   S    
C17   C18   A    
C6    H40   S    
Cr5   O16   S    
C30   H19   S    
Cr1   O24   S    
C53   O6    A    
C48   C49   S    
C54   O15   A    
C13   H7    S    
C34   O25   A    
C26   C30   S    
N1    H41   S    
Cr6   O18   S    
C4    C12   S    
C42   C43   A    
Cr1   O5    S    
C39   H26   S    
C52   O9    A    
C44   C50   A    
C33   C54   S    
C61   H43   S    
C48   H33   S    
C46   C50   A    
C46   C47   A    
C19   H10   S    
Cr4   O7    S    
C5    C60   S    
C27   C32   A    
C18   C22   S    
C25   C55   S    
C40   H28   S    
C4    C5    S    
C5    H4    S    
C3    C52   S    
C12   O22   A    
C14   N1    S    
C37   H23   S    
C38   H24   S    
C2    H39   S    
C33   C38   A    
Cr4   O14   S    
Cr6   O19   S    
C20   H12   S    
C14   H9    S    
Cr3   O4    S    
C19   C24   A    
C58   C59   S    
C7    C51   S    
C10   H5    S    
C57   O18   A    
C30   C31   S    
C60   H3    S    
C21   H14   S    
C6    H2    S    
C33   C35   A    
C2    C3    S    
C45   O3    A    
C1    O12   A    
Cr3   O23   S    
Cr3   O5    S    
Cr1   O1    S    
C7    C8    A    
C10   C11   A    
Cr1   O25   S    
C3    C58   S    
C58   H1    S    
C13   H8    S    
C1    C24   S    
Cr4   O19   S    
N1    C61   S    
C59   H32   S    
Cr6   O17   S    
C13   C14   S    
C56   O24   A    
C9    C15   A    
C49   H34   S    
