data_mof_unit_44843.cif
_audit_creation_date              2012-12-11T17:04:45-0500
_audit_creation_method            fapswitch 2.2
_symmetry_space_group_name_H-M    P1
_symmetry_Int_Tables_number       1
_space_group_crystal_system       triclinic
_cell_length_a                    17.422618
_cell_length_b                    24.405947
_cell_length_c                    14.91302
_cell_angle_alpha                 90.00114
_cell_angle_beta                  125.391341
_cell_angle_gamma                 90.000701
_cell_volume                      5169.48188087

loop_
_atom_site_label
_atom_site_type_symbol
_atom_type_description
_atom_site_fract_x
_atom_site_fract_y
_atom_site_fract_z
_atom_type_partial_charge
C1    C     C_R   0.848836 0.651195 0.905413 -0.158945
C2    C     C_R   0.146869 0.652012 0.095214 -0.168938
C3    C     C_R   0.353143 0.152015 0.904799 -0.169010
C4    C     C_R   0.651159 0.151199 0.094597 -0.159022
C5    C     C_R   0.818494 0.360071 0.004865 0.082838
C6    C     C_R   0.172247 0.348887 0.996345 0.086789
C7    C     C_R   0.327824 0.848822 0.003664 0.086815
C8    C     C_R   0.681542 0.860126 0.995139 0.082844
C9    C     C_R   0.065666 0.502533 0.368015 0.080013
C10   C     C_R   0.039295 0.502997 0.713179 0.073645
C11   C     C_R   0.460682 0.002997 0.286794 0.073620
C12   C     C_R   0.434352 0.002532 0.631994 0.079965
C13   C     C_R   0.675997 0.501508 0.680203 0.053410
C14   C     C_R   0.325367 0.501360 0.298109 0.048083
C15   C     C_R   0.174641 0.001348 0.702426 0.047961
C16   C     C_R   0.823890 0.001516 0.320494 0.053535
C17   C     C_3   0.509500 0.457544 0.546631 -0.234272
C18   C     C_3   0.491768 0.455409 0.431745 -0.235766
C19   C     C_3   0.008262 0.955308 0.568816 -0.235782
C20   C     C_3   0.990427 0.957652 0.453891 -0.234178
C21   C     C_3   0.437803 0.504088 0.506653 0.102159
C22   C     C_3   0.566160 0.500201 0.468228 0.101306
C23   C     C_3   0.933766 0.000007 0.532587 0.101215
C24   C     C_3   0.061998 0.004271 0.493991 0.102172
C25   C     C_3   0.419846 0.502046 0.393678 0.149954
C26   C     C_3   0.583754 0.502232 0.580812 0.150800
C27   C     C_3   0.916082 0.002239 0.419974 0.150803
C28   C     C_3   0.080071 0.002028 0.607019 0.149911
C29   C     C_3   0.494078 0.546791 0.427893 -0.206494
C30   C     C_3   0.511886 0.548847 0.542840 -0.207095
C31   C     C_3   0.987834 0.048936 0.458079 -0.207100
C32   C     C_3   0.005746 0.046676 0.573067 -0.206400
C33   C     C_R   0.782962 0.301386 0.109913 0.054001
C34   C     C_R   0.213121 0.295846 0.890169 0.051565
C35   C     C_R   0.286908 0.795832 0.109852 0.051595
C36   C     C_R   0.716883 0.801303 0.890110 0.053880
C37   C     C_R   0.750858 0.329118 0.011991 0.017103
C38   C     C_R   0.241710 0.320146 0.989904 0.020281
C39   C     C_R   0.258349 0.820096 0.010102 0.020278
C40   C     C_R   0.749114 0.829126 0.987981 0.017142
C41   C     C_R   0.657046 0.319965 0.920226 0.027811
C42   C     C_R   0.337258 0.314965 0.080345 0.028834
C43   C     C_R   0.162800 0.814924 0.919656 0.028862
C44   C     C_R   0.842960 0.820006 0.079682 0.027769
C45   C     C_R   0.905102 0.377092 0.094950 -0.112077
C46   C     C_R   0.086508 0.366376 0.906160 -0.123102
C47   C     C_R   0.413539 0.866340 0.093847 -0.123182
C48   C     C_R   0.594913 0.877117 0.905052 -0.111982
C49   C     C_R   0.107936 0.773937 0.922749 -0.261074
C50   C     C_R   0.891667 0.774159 0.079209 -0.257059
C51   C     C_R   0.608314 0.274137 0.920714 -0.257060
C52   C     C_R   0.392095 0.273952 0.077266 -0.261068
C53   C     C_R   0.148198 0.740476 0.016104 0.025333
C54   C     C_R   0.847661 0.739598 0.986829 0.025882
C55   C     C_R   0.652253 0.239628 0.013165 0.025870
C56   C     C_R   0.351812 0.240477 0.983923 0.025345
C57   C     C_R   0.231295 0.757732 0.114132 0.100451
C58   C     C_R   0.767073 0.758490 0.888223 0.098080
C59   C     C_R   0.732734 0.258594 0.111804 0.098142
C60   C     C_R   0.268711 0.257725 0.885899 0.100459
C61   C     C_3   0.315782 0.726038 0.204199 -0.238281
C62   C     C_3   0.679172 0.728680 0.800373 -0.240254
C63   C     C_3   0.820608 0.228873 0.199954 -0.240323
C64   C     C_3   0.184212 0.226016 0.795887 -0.238277
C65   C     C_3   0.876317 0.275463 0.195821 -0.223326
C66   C     C_3   0.123106 0.267849 0.802027 -0.229242
C67   C     C_3   0.376911 0.767851 0.198051 -0.229267
C68   C     C_3   0.623506 0.775295 0.804506 -0.223200
C69   C     C_R   0.094331 0.554738 0.617590 0.160106
C70   C     C_R   0.101786 0.554653 0.530599 0.156129
C71   C     C_R   0.398275 0.054656 0.469445 0.156081
C72   C     C_R   0.405712 0.054743 0.382442 0.160087
C73   C     C_R   0.086841 0.505168 0.659098 0.038507
C74   C     C_R   0.102122 0.504972 0.483824 0.034984
C75   C     C_R   0.397906 0.004974 0.516190 0.034941
C76   C     C_R   0.413150 0.005172 0.340889 0.038518
C77   C     C_R   0.114010 0.456761 0.633347 -0.205302
C78   C     C_R   0.121721 0.456649 0.545135 -0.215763
C79   C     C_R   0.378271 0.956655 0.454853 -0.215716
C80   C     C_R   0.385963 0.956769 0.366625 -0.205292
C81   C     C_3   0.040078 0.604192 0.480051 -0.519623
C82   C     C_3   0.032078 0.604266 0.575306 -0.524508
C83   C     C_3   0.468021 0.104250 0.424766 -0.524486
C84   C     C_3   0.460039 0.104174 0.520034 -0.519565
C85   C     C_R   0.049398 0.547270 0.303057 -0.143409
C86   C     C_R   0.016576 0.547768 0.749549 -0.147730
C87   C     C_R   0.483413 0.047767 0.250437 -0.147720
C88   C     C_R   0.450615 0.047269 0.696951 -0.143421
C89   C     C_R   0.731298 0.455265 0.719526 -0.145013
C90   C     C_R   0.270008 0.455257 0.267271 -0.136485
C91   C     C_R   0.229988 0.955255 0.733042 -0.136364
C92   C     C_R   0.768619 0.955267 0.280866 -0.145214
C93   C     C_R   0.050869 0.456166 0.306234 -0.150570
C94   C     C_R   0.006163 0.456619 0.734750 -0.131428
C95   C     C_R   0.493810 0.956618 0.265221 -0.131341
C96   C     C_R   0.449139 0.956165 0.693767 -0.150558
C97   C     C_R   0.731040 0.547429 0.724225 -0.135643
C98   C     C_R   0.269603 0.547274 0.261943 -0.131398
C99   C     C_R   0.230406 0.047264 0.738403 -0.131263
C100  C     C_R   0.768896 0.047434 0.276217 -0.135765
C101  C     C_R   0.814897 0.371760 0.911291 -0.123523
C102  C     C_R   0.179291 0.365602 0.089502 -0.125088
C103  C     C_R   0.320773 0.865542 0.910509 -0.125094
C104  C     C_R   0.685158 0.871826 0.088722 -0.123570
C105  C     C_R   0.938470 0.652361 0.088714 -0.126634
C106  C     C_R   0.058142 0.653699 0.912585 -0.142763
C107  C     C_R   0.441863 0.153698 0.087427 -0.142763
C108  C     C_R   0.561520 0.152366 0.911297 -0.126552
C109  C     C_R   0.875431 0.682795 0.995015 0.078146
C110  C     C_R   0.118720 0.684288 0.006656 0.090113
C111  C     C_R   0.381290 0.184289 0.993364 0.090111
C112  C     C_R   0.624548 0.182807 0.005000 0.078197
H1    H     H_    0.321913 0.683682 0.181331 0.152409
H2    H     H_    0.669544 0.688027 0.826445 0.153462
H3    H     H_    0.830401 0.188182 0.174163 0.153440
H4    H     H_    0.178095 0.183671 0.818812 0.152394
H5    H     H_    0.919060 0.299955 0.272724 0.136423
H6    H     H_    0.078041 0.292906 0.726328 0.134127
H7    H     H_    0.421957 0.792930 0.273726 0.134137
H8    H     H_    0.580595 0.799699 0.727509 0.136389
H9    H     H_    0.760413 0.360482 0.827901 0.102612
H10   H     H_    0.231461 0.353307 0.172977 0.099424
H11   H     H_    0.268655 0.853200 0.827049 0.099361
H12   H     H_    0.739704 0.860615 0.172136 0.102676
N1    N     N_R   0.892620 0.603790 0.941770 -0.038586
N2    N     N_R   0.107380 0.603790 0.058230 -0.037502
N3    N     N_R   0.392620 0.103790 0.941770 -0.037503
N4    N     N_R   0.607380 0.103790 0.058230 -0.038580
N5    N     N_R   0.952270 0.397640 0.058010 -0.045640
N6    N     N_R   0.047730 0.397640 0.941990 -0.043244
N7    N     N_R   0.452270 0.897640 0.058010 -0.043233
N8    N     N_R   0.547730 0.897640 0.941990 -0.045637
N9    N     N_R   0.026310 0.529110 0.206760 -0.039171
N10   N     N_R   0.973690 0.529110 0.793240 -0.040465
N11   N     N_R   0.526310 0.029110 0.206760 -0.040458
N12   N     N_R   0.473690 0.029110 0.793240 -0.039171
N13   N     N_R   0.818570 0.472310 0.793020 -0.038245
N14   N     N_R   0.181430 0.472310 0.206980 -0.038394
N15   N     N_R   0.318570 0.972310 0.793020 -0.038448
N16   N     N_R   0.681430 0.972310 0.206980 -0.038191
N17   N     N_R   0.026930 0.472300 0.207330 -0.039892
N18   N     N_R   0.973070 0.472300 0.792670 -0.040165
N19   N     N_R   0.526930 0.972300 0.207330 -0.040152
N20   N     N_R   0.473070 0.972300 0.792670 -0.039898
N21   N     N_R   0.817960 0.529130 0.792460 -0.038883
N22   N     N_R   0.182040 0.529130 0.207540 -0.038703
N23   N     N_R   0.317960 0.029130 0.792460 -0.038740
N24   N     N_R   0.682040 0.029130 0.207540 -0.038843
N25   N     N_R   0.894850 0.397640 0.943830 -0.044862
N26   N     N_R   0.105150 0.397640 0.056170 -0.042582
N27   N     N_R   0.394850 0.897640 0.943830 -0.042561
N28   N     N_R   0.605150 0.897640 0.056170 -0.044874
N29   N     N_R   0.950040 0.603780 0.055950 -0.038678
N30   N     N_R   0.049960 0.603780 0.944050 -0.037749
N31   N     N_R   0.450040 0.103780 0.055950 -0.037743
N32   N     N_R   0.549960 0.103780 0.944050 -0.038684
Ni1   Ni    Ni4+2 0.934160 0.565860 0.869070 0.208875
Ni2   Ni    Ni4+2 0.065840 0.565860 0.130930 0.206655
Ni3   Ni    Ni4+2 0.434160 0.065860 0.869070 0.206644
Ni4   Ni    Ni4+2 0.565840 0.065860 0.130930 0.208884
Ni5   Ni    Ni4+2 0.067260 0.435560 0.132230 0.206874
Ni6   Ni    Ni4+2 0.932740 0.435560 0.867770 0.209374
Ni7   Ni    Ni4+2 0.567260 0.935560 0.132230 0.209397
Ni8   Ni    Ni4+2 0.432740 0.935560 0.867770 0.206855
H13   H     H_    0.814910 0.664879 0.821750 0.119048
H14   H     H_    0.178940 0.665176 0.178890 0.118378
H15   H     H_    0.321076 0.165183 0.821128 0.118413
H16   H     H_    0.685075 0.164875 0.178262 0.119063
H17   H     H_    0.516893 0.422351 0.598280 0.118216
H18   H     H_    0.482643 0.418395 0.383218 0.117409
H19   H     H_    0.017504 0.918205 0.617189 0.117382
H20   H     H_    0.983073 0.922552 0.402070 0.118237
H21   H     H_    0.486471 0.582007 0.376185 0.113853
H22   H     H_    0.521098 0.585876 0.591429 0.113662
H23   H     H_    0.978510 0.086052 0.409644 0.113624
H24   H     H_    0.013320 0.081799 0.624950 0.113882
N33   N     N_3   0.613976 0.354005 0.824505 -0.220059
H25   H     H_    0.594744 0.329253 0.757259 0.088189
H26   H     H_    0.552305 0.370331 0.810169 0.106870
N34   N     N_3   0.376810 0.348006 0.176919 -0.221317
H27   H     H_    0.401056 0.321993 0.244034 0.087251
H28   H     H_    0.434989 0.368722 0.189923 0.106260
N35   N     N_3   0.123272 0.847945 0.823066 -0.221338
H29   H     H_    0.099018 0.821918 0.755966 0.087227
H30   H     H_    0.065102 0.868679 0.810044 0.106235
N36   N     N_3   0.886093 0.854104 0.175332 -0.220037
H31   H     H_    0.905407 0.829396 0.242657 0.088220
H32   H     H_    0.947719 0.870422 0.189534 0.106914
H33   H     H_    0.039068 0.764741 0.848885 0.127946
H34   H     H_    0.958995 0.763238 0.153721 0.126925
H35   H     H_    0.541037 0.263180 0.846161 0.126901
H36   H     H_    0.460962 0.264755 0.151128 0.127954
N37   N     N_3   0.324788 0.728126 0.308121 -0.221988
H37   H     H_    0.320643 0.768675 0.327900 0.114548
H38   H     H_    0.391663 0.713444 0.370179 0.107317
N38   N     N_3   0.669529 0.726224 0.696102 -0.222555
H39   H     H_    0.678000 0.765259 0.673857 0.116781
H40   H     H_    0.601003 0.713334 0.635177 0.106546
N39   N     N_3   0.829992 0.226556 0.304082 -0.222538
H41   H     H_    0.821344 0.265620 0.326049 0.116824
H42   H     H_    0.898511 0.213748 0.365219 0.106526
N40   N     N_3   0.175170 0.228063 0.691941 -0.221985
H43   H     H_    0.179305 0.268603 0.672113 0.114540
H44   H     H_    0.108290 0.213371 0.629918 0.107359
N41   N     N_3   0.929741 0.258086 0.152755 -0.203719
H45   H     H_    0.984245 0.232534 0.211338 0.108721
H46   H     H_    0.886955 0.234991 0.080904 0.128046
N42   N     N_3   0.071331 0.244585 0.843107 -0.206269
H47   H     H_    0.019921 0.218217 0.782723 0.109775
H48   H     H_    0.116371 0.221046 0.913651 0.126871
N43   N     N_3   0.428718 0.744556 0.157037 -0.206289
H49   H     H_    0.480117 0.718200 0.217464 0.109779
H50   H     H_    0.383694 0.720997 0.086515 0.126869
N44   N     N_3   0.570324 0.757997 0.847931 -0.203648
H51   H     H_    0.515819 0.732370 0.789578 0.108734
H52   H     H_    0.613271 0.734998 0.919881 0.128030
H53   H     H_    0.117484 0.418051 0.670970 0.123989
H54   H     H_    0.130402 0.417737 0.517366 0.121373
H55   H     H_    0.369571 0.917744 0.482607 0.121372
H56   H     H_    0.382458 0.918060 0.328976 0.123987
H57   H     H_    0.971605 0.595609 0.400360 0.203337
H58   H     H_    0.066508 0.640366 0.630128 0.188895
H59   H     H_    0.433627 0.140364 0.369982 0.188880
H60   H     H_    0.528508 0.095565 0.599711 0.203355
H61   H     H_    0.931125 0.375108 0.180323 0.104837
H62   H     H_    0.054134 0.355760 0.822129 0.100543
H63   H     H_    0.445932 0.855723 0.177882 0.100566
H64   H     H_    0.568879 0.875111 0.819675 0.104723
H65   H     H_    0.079005 0.640286 0.480030 0.186303
H66   H     H_    0.959178 0.595665 0.549332 0.201001
H67   H     H_    0.540907 0.095625 0.450716 0.201026
H68   H     H_    0.421158 0.140280 0.520098 0.186283
H69   H     H_    0.069733 0.589184 0.329507 0.100001
H70   H     H_    0.032688 0.590211 0.748214 0.110032
H71   H     H_    0.467303 0.090211 0.251777 0.110029
H72   H     H_    0.430287 0.089183 0.670505 0.100005
H73   H     H_    0.710877 0.414223 0.686804 0.090839
H74   H     H_    0.293428 0.414384 0.299103 0.091382
H75   H     H_    0.206506 0.914383 0.701244 0.091445
H76   H     H_    0.788941 0.914214 0.313561 0.090828
H77   H     H_    0.070329 0.414620 0.336229 0.084326
H78   H     H_    0.002599 0.416088 0.704542 0.081536
H79   H     H_    0.497349 0.916086 0.295404 0.081532
H80   H     H_    0.429679 0.914618 0.663767 0.084322
H81   H     H_    0.711090 0.589708 0.700147 0.100709
H82   H     H_    0.291230 0.589614 0.282433 0.100776
H83   H     H_    0.208745 0.089603 0.718026 0.100850
H84   H     H_    0.788773 0.089714 0.300387 0.100567
H85   H     H_    0.982137 0.667140 0.172500 0.086393
H86   H     H_    0.013652 0.668989 0.829247 0.086541
H87   H     H_    0.486354 0.168988 0.170767 0.086547
H88   H     H_    0.517839 0.167143 0.827513 0.086355
N45   N     N_3   0.363951 0.506721 0.524425 -0.215157
H89   H     H_    0.396986 0.507842 0.609353 0.098868
H90   H     H_    0.326375 0.469943 0.496255 0.102868
N46   N     N_3   0.640583 0.498462 0.451462 -0.215952
H91   H     H_    0.608043 0.496689 0.366674 0.097348
H92   H     H_    0.676706 0.461507 0.484206 0.099488
N47   N     N_3   0.859395 0.998059 0.549420 -0.215958
H93   H     H_    0.891983 0.996139 0.634208 0.097391
H94   H     H_    0.823317 0.961107 0.516469 0.099397
N48   N     N_3   0.135757 0.007113 0.476087 -0.215197
H95   H     H_    0.102638 0.008353 0.391148 0.098827
H96   H     H_    0.173410 0.970356 0.504039 0.102970

loop_
_geom_bond_atom_site_label_1
_geom_bond_atom_site_label_2
_ccdc_geom_bond_type
C53   C110  S    
C58   C62   S    
C105  N29   A    
C63   C65   S    
C97   N21   A    
N17   Ni5   S    
C64   H4    S    
C22   C29   S    
C5    C37   S    
C55   C112  S    
C1    N1    A    
C24   N48   S    
C63   H3    S    
N7    N27   A    
C19   C20   S    
N32   Ni3   S    
C62   N38   S    
C72   C76   A    
C93   N17   A    
N23   Ni3   S    
C34   C66   S    
C21   N45   S    
C8    C48   A    
C81   C82   S    
C95   H79   S    
C85   N9    A    
C33   C65   S    
C31   H23   S    
N41   H45   S    
N16   Ni7   S    
C95   N19   A    
C32   H24   S    
N15   N23   A    
C50   C54   A    
C57   C61   S    
N40   H44   S    
C108  H88   S    
C37   C41   A    
C85   H69   S    
C17   C26   S    
N13   N21   A    
N15   Ni8   S    
C19   H19   S    
C46   N6    A    
C38   C42   A    
C55   C59   A    
C11   C76   S    
N35   H30   S    
C98   H82   S    
C97   H81   S    
N13   Ni6   S    
C48   H64   S    
C10   C73   S    
N44   H52   S    
C105  H85   S    
C49   H33   S    
N1    Ni1   S    
C10   C94   A    
C44   C50   A    
C89   N13   A    
C4    H16   S    
N21   Ni1   S    
N9    Ni2   S    
C52   H36   S    
C43   N35   S    
N29   Ni2   S    
C70   C81   S    
C73   C77   A    
C96   H80   S    
C36   C40   A    
C105  C109  A    
C69   C82   S    
C9    C85   A    
N12   Ni3   S    
C86   N10   A    
C14   C90   A    
C20   C24   S    
C42   N34   S    
N42   H47   S    
N33   H26   S    
N46   H92   S    
C68   H8    S    
C70   C74   A    
C3    N3    A    
C6    C38   S    
C67   N43   S    
C1    H13   S    
C68   N44   S    
C2    H14   S    
C56   C111  S    
C22   N46   S    
N37   H37   S    
C103  N27   A    
C1    C109  A    
N6    Ni6   S    
C16   C27   S    
C18   H18   S    
C80   H56   S    
C4    C112  A    
N36   H31   S    
C23   N47   S    
N39   H41   S    
C33   C59   A    
C81   H65   S    
C26   C30   S    
N20   Ni8   S    
C34   C60   A    
N16   N24   A    
C103  H11   S    
C18   C25   S    
C107  C111  A    
C84   H68   S    
N19   Ni7   S    
C90   N14   A    
N34   H28   S    
C14   C98   A    
C48   N8    A    
N41   H46   S    
C25   C29   S    
C100  N24   A    
C88   H72   S    
C5    C101  A    
C59   C63   S    
N40   H43   S    
C4    N4    A    
C27   C31   S    
C94   N18   A    
C87   N11   A    
C28   C32   S    
C88   N12   A    
N30   Ni1   S    
N38   H40   S    
C21   C25   S    
C84   H60   S    
C11   C87   A    
N45   H90   S    
C90   H74   S    
N44   H51   S    
C16   C100  A    
C39   C43   A    
C98   N22   A    
C51   C55   A    
C106  N30   A    
C77   C78   A    
C9    C93   A    
C5    C45   A    
N4    N32   A    
C101  H9    S    
C108  C112  A    
C54   C109  S    
C47   N7    A    
C7    C47   A    
C41   N33   S    
C19   C23   S    
N35   H29   S    
N8    Ni8   S    
N43   H49   S    
N6    N26   A    
C29   C30   S    
C100  H84   S    
C89   H73   S    
N10   N18   A    
C47   H63   S    
C66   N42   S    
C61   C67   S    
N2    Ni2   S    
C79   H55   S    
C83   C84   S    
C108  N32   A    
N7    Ni7   S    
C12   C88   A    
N46   H91   S    
N37   H38   S    
C17   C18   S    
C46   H62   S    
N5    Ni5   S    
C67   H7    S    
C45   H61   S    
C92   H76   S    
C69   C73   A    
C19   C28   S    
C8    C104  A    
C66   H6    S    
N22   Ni2   S    
C102  N26   A    
N2    N30   A    
C91   N15   A    
C2    N2    A    
C20   H20   S    
C41   C51   A    
C71   C75   A    
C16   C92   A    
C23   C27   S    
C44   N36   S    
N3    N31   A    
C82   H66   S    
N8    N28   A    
C3    C111  A    
C13   C26   S    
C76   C80   A    
C9    C74   S    
C99   H83   S    
N47   H93   S    
C92   N16   A    
C61   N37   S    
C72   C83   S    
C51   H35   S    
N34   H27   S    
N4    Ni4   S    
C71   C84   S    
C106  C110  A    
C11   C95   A    
N43   H50   S    
N26   Ni5   S    
C64   N40   S    
C42   C52   A    
C2    C110  A    
C65   H5    S    
N11   Ni4   S    
C6    C46   A    
C13   C89   A    
N31   Ni4   S    
C34   C38   A    
N3    Ni3   S    
N9    N17   A    
N12   N20   A    
C31   C32   S    
C43   C49   A    
C24   C28   S    
C29   H21   S    
N38   H39   S    
N47   H94   S    
C53   C57   A    
C35   C57   A    
N18   Ni6   S    
N48   H96   S    
C36   C68   S    
C10   C86   A    
C62   H2    S    
N48   H95   S    
C82   H58   S    
C20   C27   S    
C107  H87   S    
C77   H53   S    
N24   Ni4   S    
C81   H57   S    
C21   C30   S    
C74   C78   A    
C36   C58   A    
C62   C68   S    
C60   C64   S    
C65   N41   S    
C23   C32   S    
C106  H86   S    
C45   N5    A    
C18   C22   S    
C94   H78   S    
C24   C31   S    
C99   N23   A    
C71   C72   A    
C86   H70   S    
C93   H77   S    
C78   H54   S    
N1    N29   A    
C104  N28   A    
C15   C28   S    
N45   H89   S    
C15   C99   A    
C75   C79   A    
C83   H59   S    
N14   N22   A    
C49   C53   A    
C35   C39   A    
C101  N25   A    
N11   N19   A    
C104  H12   S    
C63   N39   S    
N14   Ni5   S    
C17   H17   S    
C83   H67   S    
C6    C102  A    
C14   C25   S    
C13   C97   A    
C69   C70   A    
C50   H34   S    
C33   C37   A    
N28   Ni7   S    
C35   C67   S    
N33   H25   S    
C61   H1    S    
C15   C91   A    
C79   C80   A    
C56   C60   A    
C3    H15   S    
C40   C44   A    
N10   Ni1   S    
C54   C58   A    
C87   H71   S    
N42   H48   S    
N27   Ni8   S    
C22   C26   S    
C12   C75   S    
C91   H75   S    
N39   H42   S    
C7    C39   S    
C12   C96   A    
C7    C103  A    
N25   Ni6   S    
C8    C40   S    
N5    N25   A    
C102  H10   S    
N36   H32   S    
C30   H22   S    
C107  N31   A    
C52   C56   A    
C64   C66   S    
C96   N20   A    
C17   C21   S    
