data_mof_unit_25330.cif
_audit_creation_date              2012-10-26T20:21:19-0400
_audit_creation_method            fapswitch 2.2
_symmetry_space_group_name_H-M    P1
_symmetry_Int_Tables_number       1
_space_group_crystal_system       triclinic
_cell_length_a                    9.546029
_cell_length_b                    10.842108
_cell_length_c                    15.441445
_cell_angle_alpha                 89.169432
_cell_angle_beta                  74.714962
_cell_angle_gamma                 89.439694
_cell_volume                      1541.45054256

loop_
_atom_site_label
_atom_site_type_symbol
_atom_type_description
_atom_site_fract_x
_atom_site_fract_y
_atom_site_fract_z
_atom_type_partial_charge
C1    C     C_R   0.000736 0.262179 0.499748 0.578708
C2    C     C_R   0.133060 0.061909 0.481043 0.384305
C3    C     C_R   0.998356 0.871704 0.500304 -0.039403
C4    C     C_R   0.001634 0.128291 0.499733 -0.039362
C5    C     C_R   0.551467 0.425606 0.557719 0.019032
C6    C     C_R   0.448528 0.574408 0.442289 0.019472
C7    C     C_R   0.403131 0.425302 0.558008 0.353998
C8    C     C_R   0.596865 0.574718 0.442001 0.354683
C9    C     C_R   0.918479 0.501130 0.672163 0.549582
C10   C     C_R   0.081529 0.499915 0.327772 0.549318
C11   C     C_R   0.873001 0.512478 0.770166 0.015327
C12   C     C_R   0.999258 0.737820 0.500265 0.578020
C13   C     C_R   0.126540 0.497424 0.229250 0.013417
C14   C     C_R   0.916808 0.579330 0.909135 -0.139641
C15   C     C_R   0.076887 0.458149 0.086707 -0.136506
C16   C     C_R   0.968204 0.555146 0.817901 -0.118043
C17   C     C_R   0.028189 0.469512 0.179497 -0.113461
C18   C     C_R   0.727466 0.490935 0.814855 -0.116052
C19   C     C_R   0.272631 0.518073 0.185082 -0.119334
C20   C     C_R   0.671301 0.519241 0.906068 0.038697
C21   C     C_R   0.324271 0.509819 0.091245 0.037474
C22   C     C_R   0.769633 0.561986 0.953438 0.046537
C23   C     C_R   0.575350 0.572365 0.089486 -0.122070
C24   C     C_R   0.223805 0.476884 0.042418 0.047606
C25   C     C_R   0.520855 0.506995 0.951155 0.036165
C26   C     C_R   0.473119 0.529473 0.045120 0.034886
C27   C     C_R   0.416098 0.475838 0.905110 -0.119920
C28   C     C_R   0.720214 0.588558 0.044253 -0.124404
C29   C     C_R   0.270796 0.461722 0.950010 -0.123870
C30   C     C_R   0.869093 0.065639 0.518575 -0.142714
C31   C     C_R   0.130896 0.934354 0.481470 -0.143038
C32   C     C_R   0.866929 0.938083 0.519006 0.384402
Cl1   Cl    Cl    0.287804 0.325843 0.634828 -0.539375
Cl2   Cl    Cl    0.712172 0.674220 0.365196 -0.544811
Cu1   Cu    Cu3+1 0.140660 0.500020 0.500000 1.066340
Cu2   Cu    Cu3+1 0.859340 0.499980 0.500000 1.066919
F1    F     F_    0.736357 0.880562 0.539075 -0.567299
F2    F     F_    0.263633 0.119427 0.460982 -0.567287
H1    H     H_    0.794289 0.622382 0.080880 0.134132
H2    H     H_    0.441487 0.464016 0.833570 0.125740
H3    H     H_    0.766556 0.115205 0.533799 0.182949
H4    H     H_    0.233433 0.884788 0.466246 0.182747
H5    H     H_    0.589259 0.365974 0.603765 0.141927
H6    H     H_    0.410733 0.634050 0.396248 0.141034
H7    H     H_    0.194769 0.437268 0.911964 0.130720
H8    H     H_    0.344808 0.536855 0.226118 0.124092
H9    H     H_    0.660399 0.452042 0.776282 0.120893
H10   H     H_    0.914820 0.452905 0.212425 0.156297
H11   H     H_    0.081067 0.572958 0.784356 0.150553
H12   H     H_    0.991626 0.614234 0.944738 0.118416
H13   H     H_    0.999957 0.432503 0.049687 0.119390
H14   H     H_    0.546940 0.597881 0.159065 0.126915
N1    N     N_R   0.352080 0.500030 0.499980 -0.249472
N2    N     N_R   0.647920 0.499970 0.500020 -0.249113
O1    O     O_R   0.118740 0.319660 0.500000 -0.377411
O2    O     O_R   0.881260 0.680340 0.500000 -0.377509
O3    O     O_R   0.881170 0.319630 0.500010 -0.542229
O4    O     O_R   0.118830 0.680370 0.499990 -0.542984
O5    O     O_R   0.055570 0.500030 0.629830 -0.463353
O6    O     O_R   0.944430 0.499970 0.370170 -0.463495
O7    O     O_R   0.818000 0.500000 0.629840 -0.524061
O8    O     O_R   0.182000 0.500000 0.370160 -0.524473

loop_
_geom_bond_atom_site_label_1
_geom_bond_atom_site_label_2
_ccdc_geom_bond_type
C2    C4    A    
C21   C26   A    
C5    C7    A    
C30   H3    S    
Cu2   O2    S    
C31   H4    S    
C1    O3    A    
Cu1   N1    S    
C7    Cl1   S    
C11   C16   A    
C2    F2    S    
C10   O6    A    
Cu1   Cu2   S    
C17   H10   S    
C13   C17   A    
C27   H2    S    
C1    C4    S    
C12   O4    A    
C18   H9    S    
C14   C22   A    
C5    H5    S    
C19   H8    S    
C11   C18   A    
C8    Cl2   S    
C23   C28   A    
C10   O8    A    
C3    C31   A    
C9    C11   S    
C23   H14   S    
C12   O2    A    
Cu1   O4    S    
C9    O7    A    
C22   C28   A    
C15   C24   A    
C19   C21   A    
C20   C22   A    
Cu1   O8    S    
C15   H13   S    
C1    O1    A    
C3    C32   A    
C14   C16   A    
C23   C26   A    
C27   C29   A    
C20   C25   A    
C14   H12   S    
C6    N1    A    
Cu1   O1    S    
Cu2   O7    S    
C30   C32   A    
C5    N2    A    
Cu2   N2    S    
C16   H11   S    
C6    H6    S    
C18   C20   A    
Cu1   O5    S    
Cu2   O3    S    
C21   C24   A    
C8    N2    A    
C15   C17   A    
C7    N1    A    
C24   C29   A    
C13   C19   A    
C6    C8    A    
C3    C12   S    
C28   H1    S    
C9    O5    A    
C25   C26   A    
C32   F1    S    
C10   C13   S    
C4    C30   A    
C29   H7    S    
C2    C31   A    
Cu2   O6    S    
C25   C27   A    
