data_mof_unit_49074.cif
_audit_creation_date              2012-12-11T14:06:52-0500
_audit_creation_method            fapswitch 2.2
_symmetry_space_group_name_H-M    P1
_symmetry_Int_Tables_number       1
_space_group_crystal_system       triclinic
_cell_length_a                    6.926947
_cell_length_b                    17.281874
_cell_length_c                    24.091437
_cell_angle_alpha                 104.490394
_cell_angle_beta                  90.478908
_cell_angle_gamma                 89.967809
_cell_volume                      2792.15875022

loop_
_atom_site_label
_atom_site_type_symbol
_atom_type_description
_atom_site_fract_x
_atom_site_fract_y
_atom_site_fract_z
_atom_type_partial_charge
O1    O     O_R   0.494290 0.391990 0.999150 -0.536433
O2    O     O_R   0.827170 0.534410 0.082350 -0.533191
O3    O     O_R   0.994360 0.608010 0.000850 -0.530204
C1    C     C_R   0.658934 0.549833 0.105910 0.749774
O4    O     O_R   0.824210 0.388010 0.004470 -0.547568
O5    O     O_R   0.991370 0.460560 0.922410 -0.541140
C2    C     C_R   0.654550 0.354882 0.001491 0.768648
O6    O     O_R   0.497270 0.539440 0.077590 -0.548353
O7    O     O_3   0.659770 0.523970 0.973170 -0.371644
V1    V     V_3+5 0.935840 0.495550 0.004980 1.424875
O8    O     O_R   0.320910 0.465590 0.917650 -0.543344
C3    C     C_R   0.151224 0.450500 0.893870 0.706901
O9    O     O_R   0.323870 0.611990 0.995530 -0.546210
C4    C     C_R   0.154386 0.645091 0.998453 0.782624
V2    V     V_3+5 0.435470 0.504450 0.995020 1.407161
O10   O     O_3   0.161670 0.476030 0.026830 -0.374522
C5    C     C_2   0.142705 0.730164 0.997795 -0.353912
H1    H     H_    0.277003 0.760959 0.994256 0.154390
C6    C     C_2   0.972825 0.769748 0.002007 -0.343398
H2    H     H_    0.838596 0.738994 0.005711 0.158082
C7    C     C_R   0.022885 0.256433 0.626574 0.577405
N1    N     N_R   0.096182 0.331858 0.648223 -0.560098
C8    C     C_R   0.153728 0.377760 0.612327 0.572913
C9    C     C_R   0.138407 0.348271 0.552346 -0.025688
C10   C     C_R   0.062762 0.271070 0.529648 -0.015877
C11   C     C_R   0.004288 0.224650 0.566962 -0.029433
C12   C     C_R   0.196092 0.394075 0.514619 -0.163371
C13   C     C_R   0.179322 0.363544 0.455263 -0.153147
C14   C     C_R   0.104538 0.286430 0.432133 -0.021099
C15   C     C_R   0.045803 0.240127 0.469498 -0.016266
C16   C     C_R   0.970507 0.162855 0.446856 -0.028208
C17   C     C_R   0.912453 0.117120 0.484552 -0.150007
C18   C     C_R   0.929151 0.147633 0.543860 -0.136367
C19   C     C_R   0.087040 0.254252 0.372473 0.574449
N2    N     N_R   0.014467 0.178642 0.350944 -0.559370
C20   C     C_R   0.956359 0.133022 0.386942 0.571942
O11   O     O_2   0.969515 0.211945 0.662597 -0.515085
O12   O     O_2   0.223718 0.451993 0.634525 -0.515873
H3    H     H_    0.254431 0.453684 0.530798 0.171827
H4    H     H_    0.225384 0.400584 0.427595 0.170589
O13   O     O_2   0.140973 0.298453 0.336326 -0.519213
O14   O     O_2   0.887164 0.058607 0.364882 -0.520079
H5    H     H_    0.854105 0.057517 0.468378 0.170897
H6    H     H_    0.883039 0.110594 0.571520 0.178234
C21   C     C_R   0.821002 0.127779 0.262466 -0.079604
H7    H     H_    0.690100 0.138409 0.287466 0.123078
C22   C     C_R   0.808565 0.096139 0.203026 -0.198930
H8    H     H_    0.667253 0.082983 0.183405 0.128621
C23   C     C_R   0.976559 0.082197 0.169447 -0.058722
C24   C     C_R   0.157072 0.100468 0.197011 -0.200046
H9    H     H_    0.289509 0.090626 0.172714 0.130162
C25   C     C_R   0.169119 0.132084 0.256385 -0.087051
H10   H     H_    0.309401 0.145482 0.276668 0.120572
C26   C     C_R   0.001328 0.146184 0.289593 0.377645
C27   C     C_R   0.291738 0.380065 0.736663 -0.076376
H11   H     H_    0.422117 0.370099 0.711402 0.123745
C28   C     C_R   0.305483 0.408625 0.796386 -0.194768
H12   H     H_    0.447199 0.420498 0.815949 0.129326
C29   C     C_R   0.138161 0.421111 0.830308 -0.058475
C30   C     C_R   0.957042 0.404786 0.802810 -0.193111
H13   H     H_    0.825038 0.413718 0.827330 0.130598
C31   C     C_R   0.943699 0.376297 0.743207 -0.081811
H14   H     H_    0.802957 0.363985 0.723039 0.120463
C32   C     C_R   0.110750 0.363391 0.709642 0.376165
C33   C     C_R   0.440922 0.862805 0.611488 0.574272
N3    N     N_R   0.499867 0.818536 0.648518 -0.557931
C34   C     C_R   0.574163 0.743217 0.627916 0.587548
C35   C     C_R   0.593581 0.710242 0.568325 -0.067533
C36   C     C_R   0.535533 0.755085 0.529923 -0.016780
C37   C     C_R   0.457289 0.832033 0.551655 -0.019521
C38   C     C_R   0.669956 0.633592 0.546669 -0.128548
C39   C     C_R   0.691563 0.600668 0.487408 0.121449
C40   C     C_R   0.635103 0.646058 0.447784 -0.046993
C41   C     C_R   0.556050 0.723347 0.469836 -0.046767
C42   C     C_R   0.497264 0.769558 0.431979 -0.018031
C43   C     C_R   0.418402 0.845947 0.454227 -0.138387
C44   C     C_R   0.398795 0.876766 0.513223 -0.150433
C45   C     C_R   0.654332 0.618120 0.387092 0.583034
N4    N     N_R   0.596505 0.664384 0.351219 -0.545632
C46   C     C_R   0.518297 0.738540 0.372562 0.573439
O15   O     O_2   0.369156 0.936873 0.632395 -0.516986
O16   O     O_2   0.628329 0.700001 0.664916 -0.515068
H15   H     H_    0.713933 0.598801 0.576289 0.178589
O17   O     O_2   0.731812 0.545929 0.363733 -0.522302
O18   O     O_2   0.459432 0.782112 0.336263 -0.530511
H16   H     H_    0.371919 0.882490 0.426069 0.176590
H17   H     H_    0.338025 0.935959 0.528583 0.171149
C47   C     C_R   0.743800 0.671846 0.259218 -0.186972
H18   H     H_    0.822394 0.724580 0.281954 0.150750
C48   C     C_R   0.763546 0.643642 0.199233 0.349278
C49   C     C_R   0.650040 0.578458 0.169259 -0.128719
C50   C     C_R   0.522358 0.541802 0.199924 -0.284778
H19   H     H_    0.433648 0.491930 0.177554 0.148614
C51   C     C_R   0.507500 0.569022 0.259560 -0.090072
H20   H     H_    0.407548 0.540078 0.282263 0.149522
C52   C     C_R   0.617730 0.634337 0.289759 0.322984
C53   C     C_R   0.308297 0.871138 0.736618 -0.075053
H21   H     H_    0.176644 0.860407 0.711306 0.124535
C54   C     C_R   0.297501 0.903224 0.796131 -0.194383
H22   H     H_    0.156827 0.916637 0.815389 0.128769
C55   C     C_R   0.466311 0.917226 0.830268 -0.059341
C56   C     C_R   0.645863 0.898519 0.803065 -0.192291
H23   H     H_    0.779067 0.908282 0.827668 0.130466
C57   C     C_R   0.656290 0.866462 0.743703 -0.084333
H24   H     H_    0.796088 0.852710 0.723910 0.120942
C58   C     C_R   0.487831 0.852204 0.709886 0.374089
C59   C     C_2   0.642875 0.269703 0.001917 -0.338869
H25   H     H_    0.777414 0.238776 0.005282 0.150574
C60   C     C_2   0.472623 0.230277 0.997997 -0.341154
H26   H     H_    0.338082 0.261205 0.994639 0.150458
O19   O     O_R   0.618210 0.960470 0.922400 -0.540271
O20   O     O_R   0.291310 0.111960 0.995450 -0.545596
O21   O     O_R   0.124210 0.039530 0.077580 -0.541011
C61   C     C_R   0.460960 0.145098 0.998431 0.776072
O22   O     O_R   0.288310 0.965490 0.917650 -0.542445
O23   O     O_R   0.121180 0.892010 0.999220 -0.535268
C62   C     C_R   0.456636 0.949514 0.893828 0.707422
O24   O     O_R   0.621230 0.107990 0.000760 -0.534901
O25   O     O_3   0.455770 0.976060 0.026840 -0.372064
V3    V     V_3+5 0.179680 0.004440 0.995020 1.411015
O26   O     O_R   0.791670 0.888040 0.004570 -0.545241
C63   C     C_R   0.961156 0.854910 0.001584 0.774958
O27   O     O_R   0.794680 0.034510 0.082370 -0.543830
C64   C     C_R   0.964246 0.050313 0.106073 0.704936
V4    V     V_3+5 0.680070 0.995560 0.005010 1.410972
O28   O     O_3   0.953840 0.023940 0.973160 -0.370663
C65   C     C_3   0.774636 0.517338 0.469021 -0.659417
H27   H     H_    0.669559 0.476511 0.441200 0.233442
H28   H     H_    0.912805 0.518443 0.446215 0.235064
H29   H     H_    0.806583 0.491851 0.506101 0.185599
O29   O     O_3   0.862596 0.688757 0.168723 -0.574430
C66   C     C_3   0.063339 0.686231 0.178932 0.087001
H30   H     H_    0.123471 0.630398 0.150913 0.138572
H31   H     H_    0.100729 0.688229 0.224382 0.123229
C67   C     C_3   0.156042 0.758612 0.163967 -0.314120
H32   H     H_    0.112357 0.760417 0.119873 0.200903
H33   H     H_    0.103500 0.814133 0.194121 0.214874
C68   C     C_3   0.375578 0.756108 0.167429 -0.750312
H34   H     H_    0.422889 0.753098 0.210978 0.266631
H35   H     H_    0.436860 0.810948 0.158313 0.230905
H36   H     H_    0.431108 0.703500 0.135121 0.225220

loop_
_geom_bond_atom_site_label_1
_geom_bond_atom_site_label_2
_ccdc_geom_bond_type
C67   C68   S    
C27   H11   S    
C47   C52   A    
C6    C63   S    
C55   C56   A    
C40   C41   A    
C20   O14   S    
N2    C20   A    
C9    C12   A    
C1    O6    A    
C46   O18   S    
C57   C58   A    
C53   H21   S    
C48   C49   A    
O27   C64   A    
C22   C23   A    
C21   H7    S    
O29   C66   S    
C31   H14   S    
O23   C63   A    
C13   C14   A    
C36   C37   A    
C35   C38   A    
O5    C3    A    
C15   C16   A    
C56   C57   A    
V3    O28   S    
C28   C29   A    
C13   H4    S    
C33   C37   A    
C30   C31   A    
C19   N2    A    
C31   C32   A    
C3    C29   S    
O8    V2    S    
C22   H8    S    
C12   H3    S    
C66   H30   S    
O22   C62   A    
O19   V4    S    
C24   C25   A    
C8    C9    A    
O1    V2    S    
O24   V4    S    
C42   C46   A    
C1    C49   S    
N3    C34   A    
C29   C30   A    
O9    C4    A    
N2    C26   S    
C59   C60   D    
C4    C5    S    
C56   H23   S    
C19   O13   S    
N3    C58   S    
O20   C61   A    
C57   H24   S    
C53   C54   A    
C7    C11   A    
C25   C26   A    
C24   H9    S    
C38   H15   S    
C21   C22   A    
C41   C42   A    
C39   C65   S    
C34   C35   A    
C67   H32   S    
C43   C44   A    
C49   C50   A    
O20   V3    S    
C45   N4    A    
C35   C36   A    
C10   C11   A    
C23   C64   S    
C14   C19   A    
O23   V3    S    
C30   H13   S    
O2    C1    A    
C42   C43   A    
C65   H28   S    
O26   V4    S    
C14   C15   A    
O21   V3    S    
C11   C18   A    
C33   O15   S    
C16   C17   A    
C40   C45   A    
C27   C32   A    
C50   C51   A    
C5    H1    S    
C7    O11   S    
C36   C41   A    
C9    C10   A    
C51   C52   A    
O26   C63   A    
C61   O24   A    
O3    C4    A    
C68   H35   S    
C60   C61   S    
C48   O29   S    
O25   V4    S    
C54   C55   A    
C47   C48   A    
C21   C26   A    
O22   V3    S    
O6    V2    S    
O9    V2    S    
V4    O28   S    
C2    C59   S    
C53   C58   A    
C59   H25   S    
C65   H27   S    
O2    V1    S    
C43   H16   S    
C25   H10   S    
O4    C2    A    
O7    V1    S    
C10   C15   A    
C67   H33   S    
O1    C2    A    
C18   H6    S    
N1    C8    A    
C39   C40   A    
C68   H36   S    
O5    V1    S    
O25   V3    S    
C8    O12   S    
C54   H22   S    
O19   C62   A    
C55   C62   S    
C17   C18   A    
C6    H2    S    
C27   C28   A    
O7    V2    S    
C65   H29   S    
N4    C52   S    
O3    V1    S    
V1    O10   S    
C60   H26   S    
C28   H12   S    
O21   C64   A    
C66   C67   S    
C50   H19   S    
C5    C6    D    
C17   H5    S    
C33   N3    A    
C51   H20   S    
O27   V4    S    
C68   H34   S    
N1    C32   S    
N4    C46   A    
C45   O17   S    
O4    V1    S    
C38   C39   A    
C47   H18   S    
C44   H17   S    
C34   O16   S    
C66   H31   S    
C23   C24   A    
C12   C13   A    
C16   C20   A    
C7    N1    A    
V2    O10   S    
O8    C3    A    
C37   C44   A    
