data_mof_unit_22884.cif
_audit_creation_date              2013-03-05T16:47:41-0500
_audit_creation_method            fapswitch 2.2
_symmetry_space_group_name_H-M    P1
_symmetry_Int_Tables_number       1
_space_group_crystal_system       triclinic
_cell_length_a                    8.927979
_cell_length_b                    8.125684
_cell_length_c                    10.536232
_cell_angle_alpha                 89.635899
_cell_angle_beta                  90.083059
_cell_angle_gamma                 90.049335
_cell_volume                      764.344299539

loop_
_atom_site_label
_atom_site_type_symbol
_atom_site_description
_atom_site_fract_x
_atom_site_fract_y
_atom_site_fract_z
_atom_type_partial_charge
O1    O     O_R   0.285350 0.636850 0.500000 -0.614854
O2    O     O_R   0.714650 0.363150 0.500000 -0.614855
O3    O     O_R   0.714650 0.636850 0.500000 -0.616093
O4    O     O_R   0.285350 0.363150 0.500000 -0.616092
C1    C     C_R   0.218078 0.499956 0.500103 0.933244
C2    C     C_R   0.781922 0.500043 0.499897 0.933244
O5    O     O_R   0.499970 0.636850 0.313950 -0.629611
O6    O     O_R   0.500030 0.363150 0.686050 -0.629611
O7    O     O_R   0.500030 0.636850 0.686050 -0.620794
O8    O     O_R   0.499970 0.363150 0.313950 -0.620795
C3    C     C_R   0.499611 0.500614 0.256839 0.884089
C4    C     C_R   0.500389 0.499386 0.743161 0.884089
Zn1   Zn    Zn3+2 0.500000 0.682780 0.500000 0.980248
Zn2   Zn    Zn3+2 0.500000 0.317220 0.500000 0.980248
C5    C     C_3   0.490291 0.657541 0.039581 -0.184461
C6    C     C_3   0.509709 0.342459 0.960419 -0.184461
C7    C     C_3   0.618606 0.587357 0.957176 -0.223598
C8    C     C_3   0.381395 0.412643 0.042824 -0.223598
C9    C     C_3   0.373688 0.567219 0.957989 0.231639
C10   C     C_3   0.626312 0.432781 0.042010 0.231640
H1    H     H_    0.481109 0.785513 0.075098 0.158103
H2    H     H_    0.518891 0.214486 0.924901 0.158103
H3    H     H_    0.715569 0.656783 0.918236 0.150080
H4    H     H_    0.284430 0.343217 0.081764 0.150080
C11   C     C_3   0.500278 0.498145 0.877622 -0.026755
C12   C     C_3   0.499722 0.501854 0.122378 -0.026755
C13   C     C_1   0.065219 0.499939 0.500043 -0.197581
C14   C     C_1   0.934781 0.500061 0.499957 -0.197580
N1    N     N_1   0.500000 0.073640 0.500000 -0.037129
N2    N     N_1   0.500000 0.926360 0.500000 -0.037129
C15   C     C_3   0.229707 0.642651 0.906777 -0.917782
H5    H     H_    0.256372 0.752788 0.848189 0.254289
H6    H     H_    0.169656 0.551292 0.847544 0.234768
H7    H     H_    0.156945 0.679401 0.987042 0.242197
C16   C     C_3   0.770292 0.357349 0.093223 -0.917783
H8    H     H_    0.743628 0.247213 0.151812 0.254289
H9    H     H_    0.843055 0.320596 0.012958 0.242197
H10   H     H_    0.830345 0.448709 0.152455 0.234769

loop_
_geom_bond_atom_site_label_1
_geom_bond_atom_site_label_2
_geom_bond_distance
_ccdc_geom_bond_type
C5    C9    1.538029 S    
C15   H6    1.110080 S    
N1    N2    1.196750 T    
C6    C11   1.534416 S    
C15   H5    1.109812 S    
O3    Zn1   1.952709 S    
O5    Zn1   1.997806 S    
C4    C11   1.416686 S    
O6    C4    1.263339 A    
O3    C2    1.263980 A    
C9    C15   1.521311 S    
C7    C10   1.538506 S    
C15   H7    1.109740 S    
C7    C11   1.532295 S    
O2    C2    1.263680 A    
O5    C3    1.263339 A    
C7    H3    1.110514 S    
C10   C12   1.522919 S    
O1    C1    1.263680 A    
C6    C10   1.538029 S    
C16   H9    1.109739 S    
O4    Zn2   1.952709 S    
O2    Zn2   1.952078 S    
O7    C4    1.265391 A    
C8    H4    1.110514 S    
O1    Zn1   1.952078 S    
O8    C3    1.265391 A    
C9    C11   1.522918 S    
Zn1   N2    1.979254 S    
C5    H1    1.110523 S    
C16   H10   1.110080 S    
C6    C8    1.549756 S    
C8    C9    1.538506 S    
O8    Zn2   1.993146 S    
C13   C14   1.164556 T    
C5    C7    1.549756 S    
O7    Zn1   1.993146 S    
C5    C12   1.534416 S    
O6    Zn2   1.997806 S    
Zn2   N1    1.979254 S    
C3    C12   1.416687 S    
C1    C13   1.364719 S    
C10   C16   1.521310 S    
C2    C14   1.364719 S    
C16   H8    1.109811 S    
C6    H2    1.110523 S    
O4    C1    1.263981 A    
C8    C12   1.532294 S    
