data_mof_unit_19078.cif
_audit_creation_date              2012-12-11T14:08:10-0500
_audit_creation_method            fapswitch 2.2
_symmetry_space_group_name_H-M    P1
_symmetry_Int_Tables_number       1
_space_group_crystal_system       triclinic
_cell_length_a                    11.042346
_cell_length_b                    10.945013
_cell_length_c                    18.744709
_cell_angle_alpha                 90.316711
_cell_angle_beta                  89.803869
_cell_angle_gamma                 59.850521
_cell_volume                      1958.90349957

loop_
_atom_site_label
_atom_site_type_symbol
_atom_type_description
_atom_site_fract_x
_atom_site_fract_y
_atom_site_fract_z
_atom_type_partial_charge
C1    C     C_R   0.228893 0.649254 0.606346 0.567855
C2    C     C_3   0.650432 0.585426 0.809516 0.090419
C3    C     C_3   0.718679 0.685279 0.810238 0.068653
C4    C     C_3   0.667002 0.654979 0.677123 0.030899
C5    C     C_3   0.824394 0.609765 0.687194 -0.260475
C6    C     C_3   0.634440 0.558801 0.727202 -0.075146
C7    C     C_2   0.690468 0.123747 0.659847 -0.130653
C8    C     C_2   0.717101 0.092627 0.815862 -0.144778
C9    C     C_2   0.826936 0.054929 0.771682 -0.197249
C10   C     C_2   0.804589 0.102835 0.696131 -0.172821
C11   C     C_2   0.159202 0.674392 0.676049 -0.047269
C12   C     C_R   0.653101 0.624483 0.601314 0.524945
C13   C     C_2   0.170128 0.675480 0.833254 -0.156876
C14   C     C_2   0.161320 0.576320 0.794910 -0.187877
C15   C     C_2   0.169952 0.566646 0.715720 0.187330
C16   C     C_2   0.655457 0.649920 0.320133 -0.120654
C17   C     C_2   0.635637 0.661153 0.158080 0.229341
C18   C     C_2   0.710477 0.545762 0.200692 -0.031670
C19   C     C_2   0.664158 0.551145 0.274297 -0.148737
C20   C     C_2   0.676464 0.126471 0.336106 0.229835
C21   C     C_2   0.650801 0.145387 0.178414 -0.091416
C22   C     C_2   0.634734 0.056498 0.221074 -0.132164
C23   C     C_R   0.631856 0.220351 0.598852 0.534943
C24   C     C_2   0.593712 0.094379 0.295159 -0.037503
C25   C     C_2   0.253209 0.624407 0.321188 -0.125924
C26   C     C_2   0.190391 0.652532 0.171775 -0.046933
C27   C     C_2   0.229320 0.735631 0.207399 0.224684
C28   C     C_2   0.285191 0.699620 0.278800 -0.186013
C29   C     C_R   0.727503 0.046447 0.889861 0.538751
C30   C     C_R   0.751921 0.707822 0.882977 0.536933
C31   C     C_R   0.114830 0.708350 0.905916 0.538272
C32   C     C_R   0.674905 0.106957 0.104329 0.541060
C33   C     C_R   0.694679 0.687873 0.095117 0.593917
C34   C     C_R   0.290701 0.617905 0.393747 0.575739
C35   C     C_R   0.099160 0.707143 0.110881 0.574863
C36   C     C_R   0.643650 0.624541 0.394543 0.538081
C37   C     C_R   0.619404 0.224111 0.396576 0.581829
C38   C     C_3   0.621267 0.833073 0.774604 -0.231298
C39   C     C_3   0.577356 0.816074 0.698736 -0.095368
C40   C     C_3   0.854119 0.624751 0.765081 -0.259369
Cr1   Cr    Cr6+3 0.393010 0.398050 0.501480 1.028546
Cr2   Cr    Cr6+3 0.398820 0.707980 0.501630 0.992541
Cr3   Cr    Cr6+3 0.708140 0.393940 0.496850 1.029030
Cr4   Cr    Cr6+3 0.937950 0.938450 0.008940 1.037105
Cr5   Cr    Cr6+3 0.626180 0.937030 0.994750 1.019738
Cr6   Cr    Cr6+3 0.937790 0.625760 0.001410 0.978815
H1    H     H_    0.679686 0.890377 0.769582 0.095614
H2    H     H_    0.719647 0.451289 0.713115 0.149326
H3    H     H_    0.938566 0.523849 0.784897 0.139935
H4    H     H_    0.895715 0.497952 0.670736 0.166662
H5    H     H_    0.932930 0.997932 0.792163 0.140417
H6    H     H_    0.873935 0.136394 0.673784 0.150564
H7    H     H_    0.611451 0.149925 0.795144 0.112246
H8    H     H_    0.625394 0.084420 0.681470 0.102458
H9    H     H_    0.143634 0.499754 0.822560 0.135346
H10   H     H_    0.193802 0.750022 0.808222 0.081321
H11   H     H_    0.530431 0.906678 0.807979 0.144293
H12   H     H_    0.123513 0.777645 0.699700 0.044957
H13   H     H_    0.653778 0.463017 0.293276 0.148308
H14   H     H_    0.668322 0.737681 0.303559 0.102512
H15   H     H_    0.639707 0.961209 0.199974 0.164929
H16   H     H_    0.643881 0.242356 0.197768 0.090475
H17   H     H_    0.335918 0.754142 0.301365 0.125992
H18   H     H_    0.216721 0.548389 0.190315 0.035099
H19   H     H_    0.195821 0.572926 0.304214 0.098712
H20   H     H_    0.609356 0.873230 0.660999 0.133236
H21   H     H_    0.895218 0.698846 0.767920 0.117959
H22   H     H_    0.851788 0.675812 0.653285 0.136254
O1    O     O_R   0.507110 0.256280 0.580300 -0.508285
O2    O     O_R   0.524640 0.695370 0.425100 -0.517969
O3    O     O_R   0.735890 0.504390 0.415980 -0.497733
O4    O     O_R   0.690560 0.277820 0.422350 -0.461318
O5    O     O_3   0.499990 0.499990 0.499980 -0.293415
O6    O     O_R   0.089190 0.825870 0.932320 -0.526800
O7    O     O_R   0.819070 0.053960 0.931440 -0.496091
O8    O     O_R   0.607070 0.076440 0.916460 -0.525858
O9    O     O_R   0.647110 0.806550 0.917690 -0.531332
O10   O     O_R   0.837080 0.593860 0.915300 -0.539853
O11   O     O_R   0.064770 0.636080 0.932550 -0.509834
O12   O     O_R   0.280830 0.527190 0.577940 -0.424205
O13   O     O_R   0.068250 0.829200 0.092940 -0.426241
O14   O     O_R   0.799650 0.057040 0.080330 -0.487205
O15   O     O_R   0.586130 0.079760 0.077080 -0.502443
O16   O     O_R   0.627700 0.809630 0.066580 -0.449844
O17   O     O_R   0.816140 0.597180 0.075920 -0.567154
O18   O     O_R   0.045360 0.639170 0.081440 -0.520036
O19   O     O_3   0.833980 0.833750 0.001700 -0.285629
O20   O     O_R   0.261360 0.738990 0.584270 -0.555293
O21   O     O_R   0.532590 0.694780 0.574370 -0.525617
O22   O     O_R   0.744470 0.503750 0.577000 -0.524997
O23   O     O_R   0.698520 0.277230 0.571620 -0.500151
O24   O     O_R   0.498530 0.256920 0.419280 -0.574750
O25   O     O_R   0.272880 0.527780 0.428680 -0.501441
O26   O     O_R   0.252780 0.739630 0.423250 -0.490837
O27   O     O_3   0.192737 0.443704 0.682210 -0.689007
H23   H     H_    0.199893 0.375694 0.718974 0.304190
C41   C     C_3   0.850855 0.417111 0.178645 -0.278888
C42   C     C_3   0.911151 0.293460 0.230731 -0.422591
H24   H     H_    0.931674 0.326254 0.283397 0.179745
H25   H     H_    0.838139 0.252929 0.237255 0.200785
H26   H     H_    0.011792 0.206395 0.209276 0.156768
H27   H     H_    0.838168 0.376125 0.126473 0.164431
H28   H     H_    0.930983 0.449618 0.173614 0.181532
O28   O     O_3   0.504349 0.770549 0.175769 -0.714486
H29   H     H_    0.465468 0.738984 0.213334 0.328146
C43   C     C_3   0.446706 0.125967 0.316837 -0.272963
C44   C     C_3   0.382351 0.060574 0.269054 -0.441590
H30   H     H_    0.374185 0.096227 0.213024 0.193951
H31   H     H_    0.446388 0.944358 0.272062 0.183853
H32   H     H_    0.275295 0.092814 0.288666 0.132162
H33   H     H_    0.450993 0.083407 0.371075 0.174417
H34   H     H_    0.374215 0.242207 0.316877 0.172266
O29   O     O_3   0.815311 0.079526 0.318709 -0.717601
H35   H     H_    0.852732 0.993173 0.288590 0.333861
O30   O     O_3   0.207392 0.862289 0.179306 -0.636894
H36   H     H_    0.222112 0.917701 0.216798 0.323932
C45   C     C_3   0.414081 0.891071 0.695210 -0.286504
C46   C     C_3   0.346884 0.052110 0.691970 -0.457954
H37   H     H_    0.375444 0.094161 0.738982 0.141467
H38   H     H_    0.380799 0.082892 0.642717 0.178882
H39   H     H_    0.231052 0.101552 0.691077 0.141247
H40   H     H_    0.375409 0.860785 0.648447 0.214354
H41   H     H_    0.370382 0.865445 0.742183 0.128644
C47   C     C_3   0.740858 0.434620 0.846967 -0.222223
C48   C     C_3   0.892445 0.330182 0.823263 -0.440595
H42   H     H_    0.919526 0.222203 0.839657 0.150769
H43   H     H_    0.911461 0.326326 0.765189 0.124218
H44   H     H_    0.967521 0.351631 0.851958 0.158299
H45   H     H_    0.747187 0.444249 0.905304 0.181040
H46   H     H_    0.682749 0.377241 0.843216 0.142725
C49   C     C_3   0.503133 0.666332 0.851329 -0.252187
C50   C     C_3   0.497380 0.630370 0.930137 -0.420168
H47   H     H_    0.510981 0.523104 0.935006 0.129477
H48   H     H_    0.576620 0.637844 0.962841 0.193143
H49   H     H_    0.392797 0.706084 0.952933 0.165374
H50   H     H_    0.455716 0.781567 0.850422 0.145637
H51   H     H_    0.423217 0.651267 0.826453 0.136409
C51   C     C_3   0.503822 0.548096 0.705658 -0.275189
C52   C     C_3   0.498591 0.426054 0.741598 -0.460662
H52   H     H_    0.605195 0.337366 0.745220 0.154187
H53   H     H_    0.452502 0.450817 0.795789 0.150220
H54   H     H_    0.439740 0.389721 0.708797 0.203334
H55   H     H_    0.405162 0.648463 0.713733 0.133471
H56   H     H_    0.509656 0.523101 0.648128 0.200356

loop_
_geom_bond_atom_site_label_1
_geom_bond_atom_site_label_2
_ccdc_geom_bond_type
Cr3   O5    S    
C7    C10   D    
Cr3   O4    S    
Cr4   O7    S    
C23   O1    A    
O27   H23   S    
C1    C11   S    
C34   O25   A    
C10   H6    S    
Cr1   O12   S    
C41   C42   S    
C35   O13   A    
C29   O8    A    
C2    C6    S    
C25   C28   D    
C26   C27   D    
C6    H2    S    
Cr5   O8    S    
C8    C29   S    
C12   O22   A    
Cr5   O19   S    
C17   O28   S    
O29   H35   S    
Cr4   O14   S    
C51   H55   S    
C16   C19   D    
C15   O27   S    
C38   C39   S    
C52   H54   S    
C43   C44   S    
O30   H36   S    
Cr2   O2    S    
C18   C19   S    
C16   H14   S    
C26   H18   S    
C46   H37   S    
C33   O17   A    
C30   O9    A    
C11   C15   D    
Cr1   O25   S    
C20   C24   D    
C3    C38   S    
C50   H47   S    
C40   H21   S    
C9    H5    S    
C48   H44   S    
C44   H30   S    
C18   C41   S    
C4    C12   S    
C11   H12   S    
C9    C10   S    
C41   H27   S    
C36   O3    A    
C25   C34   S    
C13   H10   S    
C1    O20   A    
C14   H9    S    
C21   C22   D    
C44   H31   S    
Cr5   O15   S    
C17   C33   S    
C5    H22   S    
O28   H29   S    
C36   O2    A    
C17   C18   D    
C43   H33   S    
C21   C32   S    
Cr3   O22   S    
C12   O21   A    
C25   H19   S    
C4    C6    S    
C49   H50   S    
Cr6   O10   S    
C8    C9    D    
C31   O6    A    
C43   H34   S    
C19   H13   S    
C39   C45   S    
Cr3   O23   S    
C46   H39   S    
C6    C51   S    
C3    C30   S    
C45   H40   S    
C49   H51   S    
C38   H11   S    
C4    C39   S    
C2    C49   S    
C21   H16   S    
C47   H46   S    
Cr4   O6    S    
C38   H1    S    
C41   H28   S    
C3    C40   S    
Cr4   O13   S    
C42   H25   S    
C48   H42   S    
C39   H20   S    
C22   C24   S    
C5    H4    S    
C5    C40   S    
Cr5   O16   S    
C24   C43   S    
C49   C50   S    
Cr4   O19   S    
Cr1   O1    S    
Cr6   O19   S    
C32   O15   A    
Cr2   O5    S    
Cr3   O3    S    
C37   O24   A    
Cr2   O26   S    
C13   C31   S    
C34   O26   A    
C4    C5    S    
C8    H7    S    
C52   H52   S    
C31   O11   A    
C29   O7    A    
C2    C47   S    
C42   H26   S    
C32   O14   A    
Cr2   O21   S    
Cr6   O17   S    
C2    C3    S    
C45   H41   S    
C51   H56   S    
C45   C46   S    
C16   C36   S    
C22   H15   S    
C20   C37   S    
C52   H53   S    
Cr6   O11   S    
C50   H49   S    
C7    C23   S    
C44   H32   S    
C47   H45   S    
C23   O23   A    
C20   O29   S    
C33   O16   A    
C46   H38   S    
C51   C52   S    
Cr1   O5    S    
C30   O10   A    
C28   H17   S    
C26   C35   S    
Cr1   O24   S    
Cr2   O20   S    
C50   H48   S    
C42   H24   S    
C37   O4    A    
C27   C28   S    
C48   H43   S    
C1    O12   A    
C14   C15   S    
Cr5   O9    S    
C7    H8    S    
C13   C14   D    
C35   O18   A    
C40   H3    S    
C47   C48   S    
Cr6   O18   S    
C27   O30   S    
