data_mof_unit_24683.cif
_audit_creation_date              2012-12-10T18:26:20-0500
_audit_creation_method            fapswitch 2.2
_symmetry_space_group_name_H-M    P1
_symmetry_Int_Tables_number       1
_space_group_crystal_system       triclinic
_cell_length_a                    14.931981
_cell_length_b                    14.009249
_cell_length_c                    23.430727
_cell_angle_alpha                 90.164249
_cell_angle_beta                  90.67033
_cell_angle_gamma                 90.792536
_cell_volume                      4900.54952447

loop_
_atom_site_label
_atom_site_type_symbol
_atom_type_description
_atom_site_fract_x
_atom_site_fract_y
_atom_site_fract_z
_atom_type_partial_charge
C1    C     C_R   0.326700 0.499543 0.500391 0.891808
C2    C     C_R   0.673303 0.500664 0.499510 0.883491
C3    C     C_R   0.522058 0.419343 0.236529 -0.249172
C4    C     C_R   0.433195 0.434561 0.759472 -0.261943
C5    C     C_R   0.527942 0.418214 0.295735 0.467855
C6    C     C_R   0.435826 0.433960 0.700017 0.443385
C7    C     C_R   0.503165 0.500108 0.326810 -0.192412
C8    C     C_R   0.490484 0.501315 0.672130 -0.166517
C9    C     C_R   0.479862 0.583766 0.297660 -0.363463
C10   C     C_R   0.535316 0.573273 0.703135 -0.372839
C11   C     C_R   0.479005 0.586227 0.238185 0.280840
C12   C     C_R   0.529621 0.576353 0.762372 0.284913
C13   C     C_R   0.498671 0.502645 0.207697 0.223440
C14   C     C_R   0.480187 0.504790 0.790567 0.227264
C15   C     C_R   0.812824 0.430183 0.469213 -0.282871
C16   C     C_R   0.187284 0.572513 0.529034 -0.264076
C17   C     C_R   0.768835 0.502288 0.498351 -0.059691
C18   C     C_R   0.231161 0.499102 0.500835 -0.063524
C19   C     C_R   0.815719 0.575584 0.526566 -0.251762
C20   C     C_R   0.184180 0.426824 0.471951 -0.265764
C21   C     C_R   0.908385 0.575763 0.527213 0.117176
C22   C     C_R   0.091573 0.427379 0.470895 0.130415
C23   C     C_R   0.501139 0.499869 0.389193 0.908346
C24   C     C_R   0.497884 0.500191 0.610486 0.928687
C25   C     C_R   0.953449 0.501924 0.498762 0.060064
C26   C     C_R   0.046554 0.500977 0.499568 0.058165
C27   C     C_R   0.905361 0.429088 0.469423 0.139631
C28   C     C_R   0.094694 0.573932 0.528729 0.111433
C29   C     C_R   0.956552 0.647867 0.556086 -0.211029
C30   C     C_R   0.043430 0.356312 0.441262 -0.226481
C31   C     C_R   0.049629 0.646931 0.556867 -0.212493
C32   C     C_R   0.950457 0.356680 0.440848 -0.230255
C33   C     C_R   0.571229 0.798885 0.478117 -0.015508
C34   C     C_R   0.428039 0.200790 0.520839 0.022756
C35   C     C_R   0.429842 0.796958 0.523064 -0.003620
C36   C     C_R   0.572727 0.202833 0.480370 0.012324
C37   C     C_R   0.428373 0.897615 0.524338 -0.085897
C38   C     C_R   0.575229 0.102101 0.480168 -0.096481
C39   C     C_R   0.573913 0.899705 0.478330 -0.100349
C40   C     C_R   0.426556 0.099904 0.522432 -0.100435
C41   C     C_R   0.501041 0.949335 0.501276 -0.056617
C42   C     C_R   0.500975 0.050377 0.501341 -0.065732
C43   C     C_R   0.356417 0.946961 0.548462 0.347589
C44   C     C_R   0.650267 0.052553 0.459769 0.379708
C45   C     C_R   0.647441 0.951472 0.456174 0.336134
C46   C     C_R   0.352513 0.048042 0.544203 0.370970
C47   C     C_R   0.560478 0.481085 0.878845 0.555719
C48   C     C_R   0.414445 0.512614 0.119491 0.556116
C49   C     C_R   0.403938 0.515155 0.880456 0.491669
C50   C     C_R   0.572496 0.486996 0.117523 0.487822
C51   C     C_R   0.404479 0.513283 0.940080 -0.014354
C52   C     C_R   0.570867 0.483915 0.057997 -0.013447
C53   C     C_R   0.486040 0.497305 0.969109 -0.021129
C54   C     C_R   0.488910 0.497909 0.029058 -0.021999
C55   C     C_R   0.564837 0.480988 0.938339 -0.028167
C56   C     C_R   0.409900 0.512719 0.059910 -0.030122
C57   C     C_R   0.326073 0.527990 0.971196 -0.159710
C58   C     C_R   0.649013 0.467716 0.026929 -0.159498
C59   C     C_R   0.328674 0.527214 0.030627 -0.161131
C60   C     C_R   0.645921 0.465716 0.967577 -0.162660
H1    H     H_    0.262595 0.540171 0.949781 0.190928
H2    H     H_    0.712680 0.456469 0.048319 0.191531
H3    H     H_    0.086320 0.703090 0.579331 0.156494
H4    H     H_    0.913948 0.300525 0.418349 0.155841
H5    H     H_    0.625975 0.758792 0.460665 0.171422
H6    H     H_    0.372010 0.240548 0.536471 0.166375
H7    H     H_    0.374956 0.755387 0.540249 0.168270
H8    H     H_    0.628959 0.244177 0.465149 0.150250
H9    H     H_    0.267110 0.538751 0.053484 0.191307
H10   H     H_    0.707313 0.453102 0.944743 0.191376
H11   H     H_    0.537116 0.355350 0.212613 0.170694
H12   H     H_    0.395151 0.379979 0.781601 0.170965
H13   H     H_    0.462124 0.647513 0.321020 0.185520
H14   H     H_    0.575346 0.626653 0.681292 0.175872
H15   H     H_    0.774877 0.375615 0.446122 0.137461
H16   H     H_    0.225293 0.627893 0.551436 0.150765
H17   H     H_    0.780011 0.631124 0.548841 0.156373
H18   H     H_    0.219879 0.371732 0.449339 0.151765
H19   H     H_    0.922278 0.704677 0.578023 0.150341
H20   H     H_    0.077714 0.301083 0.418214 0.164640
N1    N     N_R   0.481390 0.500099 0.851364 -0.333883
N2    N     N_R   0.495075 0.501311 0.146824 -0.335195
N3    N     N_R   0.500000 0.750030 0.500000 -0.125809
N4    N     N_R   0.500000 0.249970 0.500000 -0.123149
O1    O     O_R   0.367850 0.580280 0.500010 -0.629006
O2    O     O_R   0.632150 0.419720 0.499990 -0.644448
O3    O     O_R   0.632150 0.580280 0.499990 -0.632726
O4    O     O_R   0.367850 0.419720 0.500010 -0.643326
O5    O     O_R   0.499970 0.580290 0.416160 -0.624879
O6    O     O_R   0.500030 0.419710 0.583840 -0.567971
O7    O     O_R   0.500030 0.580290 0.583840 -0.637937
O8    O     O_R   0.499970 0.419710 0.416160 -0.579122
O9    O     O_2   0.634553 0.462411 0.848494 -0.558097
O10   O     O_2   0.339070 0.523164 0.149986 -0.555051
O11   O     O_2   0.327201 0.533165 0.851685 -0.579843
O12   O     O_2   0.650828 0.476751 0.146069 -0.582480
Zn1   Zn    Zn3+2 0.500000 0.607200 0.500000 0.935465
Zn2   Zn    Zn3+2 0.500000 0.392800 0.500000 0.969937
O13   O     O_3   0.287509 0.895614 0.573582 -0.676544
C61   C     C_3   0.293687 0.902674 0.633814 0.118798
H21   H     H_    0.226813 0.923368 0.649637 0.171245
H22   H     H_    0.342659 0.957764 0.649992 0.139439
C62   C     C_3   0.317747 0.805253 0.658688 -0.392969
H23   H     H_    0.271306 0.749614 0.641010 0.227105
H24   H     H_    0.387133 0.787092 0.646401 0.220550
C63   C     C_3   0.311693 0.805004 0.723633 -0.924368
H25   H     H_    0.357862 0.859815 0.742354 0.260880
H26   H     H_    0.330739 0.733788 0.740170 0.281225
H27   H     H_    0.242143 0.819938 0.737008 0.268494
O14   O     O_3   0.722320 0.103615 0.437892 -0.667319
C64   C     C_3   0.798503 0.095631 0.474145 0.091228
H28   H     H_    0.858395 0.111498 0.447920 0.164995
H29   H     H_    0.807696 0.022467 0.491502 0.176671
C65   C     C_3   0.795724 0.167974 0.523302 -0.398412
H30   H     H_    0.782006 0.239922 0.506100 0.237263
H31   H     H_    0.740993 0.148074 0.552902 0.221160
C66   C     C_3   0.884289 0.171698 0.556485 -0.930664
H32   H     H_    0.899504 0.100452 0.574566 0.259675
H33   H     H_    0.879657 0.223926 0.592027 0.277052
H34   H     H_    0.939694 0.194631 0.528198 0.262506
O15   O     O_3   0.719444 0.903311 0.433999 -0.659187
C67   C     C_3   0.706891 0.893656 0.374478 0.083541
H35   H     H_    0.705255 0.965074 0.353665 0.174829
H36   H     H_    0.643335 0.853955 0.364495 0.129177
C68   C     C_3   0.785070 0.837719 0.350386 -0.322011
H37   H     H_    0.848632 0.877844 0.358806 0.229753
H38   H     H_    0.789096 0.767404 0.372096 0.230715
C69   C     C_3   0.774089 0.821387 0.286283 -0.945634
H39   H     H_    0.712854 0.777857 0.277281 0.262929
H40   H     H_    0.832870 0.782457 0.270025 0.275414
H41   H     H_    0.769379 0.890682 0.263597 0.266075
O16   O     O_3   0.279852 0.097440 0.565200 -0.670226
C70   C     C_3   0.201930 0.078793 0.531574 0.095117
H42   H     H_    0.143490 0.104103 0.556030 0.163146
H43   H     H_    0.189620 0.001473 0.523777 0.188728
C71   C     C_3   0.204168 0.132518 0.474658 -0.398124
H44   H     H_    0.206279 0.210491 0.483149 0.223269
H45   H     H_    0.264919 0.113290 0.450503 0.226252
C72   C     C_3   0.121953 0.107419 0.437988 -0.961287
H46   H     H_    0.118087 0.029255 0.430026 0.271590
H47   H     H_    0.126787 0.143986 0.396158 0.266963
H48   H     H_    0.059939 0.130299 0.459553 0.258668
O17   O     O_3   0.553846 0.334913 0.322443 -0.625990
C73   C     C_3   0.646090 0.340982 0.337043 0.110439
H49   H     H_    0.657157 0.293505 0.374096 0.180364
H50   H     H_    0.668276 0.413942 0.350974 0.102092
C74   C     C_3   0.704016 0.305772 0.287918 -0.360528
H51   H     H_    0.678149 0.235351 0.272591 0.238421
H52   H     H_    0.700967 0.357216 0.251991 0.245244
C75   C     C_3   0.801488 0.295579 0.306959 -0.933235
H53   H     H_    0.842225 0.272108 0.270287 0.274786
H54   H     H_    0.806806 0.241384 0.341316 0.270547
H55   H     H_    0.828654 0.365057 0.322877 0.267243
O18   O     O_3   0.387096 0.366245 0.669150 -0.624618
C76   C     C_3   0.296145 0.393076 0.667837 0.062663
H56   H     H_    0.288921 0.467610 0.651841 0.124598
H57   H     H_    0.267016 0.387548 0.711275 0.161264
C77   C     C_3   0.243717 0.326150 0.627618 -0.296721
H58   H     H_    0.269231 0.334700 0.583666 0.230507
H59   H     H_    0.253498 0.250964 0.641062 0.258468
C78   C     C_3   0.143801 0.347646 0.627260 -0.948400
H60   H     H_    0.115281 0.334772 0.670163 0.268246
H61   H     H_    0.108593 0.300360 0.595888 0.269385
H62   H     H_    0.132428 0.422992 0.614941 0.273547
N5    N     N_2   0.455607 0.671645 0.209173 -0.278547
H63   H     H_    0.412953 0.714666 0.231721 0.232936
C79   C     C_3   0.530912 0.724896 0.186710 -0.771675
H64   H     H_    0.506156 0.787190 0.162283 0.242927
H65   H     H_    0.570454 0.680007 0.157459 0.260440
H66   H     H_    0.574679 0.751175 0.222201 0.228570
N6    N     N_2   0.576692 0.648696 0.793760 -0.280692
H67   H     H_    0.633795 0.673657 0.774041 0.234221
C80   C     C_3   0.521211 0.725608 0.813404 -0.788240
H68   H     H_    0.561853 0.774770 0.840834 0.246126
H69   H     H_    0.464545 0.697672 0.838972 0.261786
H70   H     H_    0.494832 0.766295 0.776382 0.238876

loop_
_geom_bond_atom_site_label_1
_geom_bond_atom_site_label_2
_ccdc_geom_bond_type
C16   C28   A    
C15   H15   S    
N6    H67   S    
C69   H41   S    
C58   H2    S    
N5    H63   S    
C76   H57   S    
C10   H14   S    
C41   C42   A    
C74   H51   S    
C69   H39   S    
C34   H6    S    
C65   H30   S    
C33   H5    S    
C39   C41   A    
C80   H68   S    
C40   C46   A    
N6    C80   S    
C1    C18   S    
C33   C39   A    
C48   O10   S    
C37   C41   A    
C34   C40   A    
C35   C37   A    
C43   O13   S    
C38   C42   A    
C66   H33   S    
C46   O16   S    
C72   H48   S    
C57   C59   A    
C63   H25   S    
C58   C60   A    
O17   C73   S    
C34   N4    A    
C11   C13   A    
C48   C56   A    
C49   N1    A    
C19   H17   S    
O14   C64   S    
C77   C78   S    
C17   C19   A    
C62   H24   S    
C64   H28   S    
O16   C70   S    
C49   C51   A    
C75   H55   S    
C70   C71   S    
C50   C52   A    
C23   O5    A    
C51   C57   A    
C60   H10   S    
C12   N6    S    
C3    C13   A    
C39   C45   A    
C30   H20   S    
C1    O4    A    
C40   C42   A    
C68   H37   S    
N5    C79   S    
C55   C60   A    
C76   C77   S    
C77   H59   S    
C2    C17   S    
C79   H65   S    
C9    H13   S    
C73   C74   S    
C10   C12   A    
C78   H61   S    
C52   C54   A    
C78   H60   S    
C79   H66   S    
C53   C55   A    
C1    O1    A    
C54   C56   A    
C74   H52   S    
O8    Zn2   S    
C31   H3    S    
C74   C75   S    
O1    Zn1   S    
C32   H4    S    
C4    C6    A    
C66   H34   S    
C79   H64   S    
C5    C7    A    
C35   N3    A    
C73   H49   S    
C6    C8    A    
C45   O15   S    
C25   C26   A    
C53   C54   A    
C21   C29   A    
C13   N2    S    
C61   C62   S    
O7    Zn1   S    
C24   O6    A    
C51   C53   A    
C71   C72   S    
C62   C63   S    
C37   C43   A    
C3    H11   S    
C38   C44   A    
C68   C69   S    
C9    C11   A    
C15   C27   A    
O13   C61   S    
C29   H19   S    
C35   H7    S    
C61   H22   S    
C47   O9    S    
C2    O3    A    
C64   H29   S    
C16   C18   A    
C49   O11   S    
C33   N3    A    
O18   C76   S    
O15   C67   S    
C6    O18   S    
C80   H69   S    
C52   C58   A    
C59   H9    S    
C73   H50   S    
C12   C14   A    
N3    Zn1   S    
C77   H58   S    
C75   H54   S    
C67   H36   S    
C24   O7    A    
C4    H12   S    
C78   H62   S    
C44   C45   A    
C50   N2    A    
C71   H45   S    
C47   C55   A    
C80   H70   S    
C23   O8    A    
C15   C17   A    
C21   C25   A    
C22   C30   A    
C19   C21   A    
C27   C32   A    
C16   H16   S    
C28   C31   A    
C20   C22   A    
C71   H44   S    
C3    C5    A    
C69   H40   S    
C65   H31   S    
C72   H46   S    
C36   H8    S    
C57   H1    S    
C25   C27   A    
C26   C28   A    
C56   C59   A    
C20   H18   S    
N4    Zn2   S    
C67   C68   S    
C36   C38   A    
C29   C31   A    
C66   H32   S    
C30   C32   A    
C72   H47   S    
C50   O12   S    
C70   H42   S    
C63   H26   S    
C36   N4    A    
C7    C23   S    
C61   H21   S    
C8    C24   S    
C48   N2    A    
C2    O2    A    
C64   C65   S    
C18   C20   A    
C47   N1    A    
C4    C14   A    
O2    Zn2   S    
C43   C46   A    
C65   C66   S    
C5    O17   S    
C7    C9    A    
C8    C10   A    
C22   C26   A    
O5    Zn1   S    
C62   H23   S    
C68   H38   S    
C70   H43   S    
C75   H53   S    
C11   N5    S    
C14   N1    S    
C67   H35   S    
C76   H56   S    
O6    Zn2   S    
O4    Zn2   S    
O3    Zn1   S    
C63   H27   S    
C44   O14   S    
