data_mof_unit_41081.cif
_audit_creation_date              2012-12-10T21:18:29-0500
_audit_creation_method            fapswitch 2.2
_symmetry_space_group_name_H-M    P1
_symmetry_Int_Tables_number       1
_space_group_crystal_system       triclinic
_cell_length_a                    17.620252
_cell_length_b                    16.827076
_cell_length_c                    10.597866
_cell_angle_alpha                 91.81658
_cell_angle_beta                  93.781629
_cell_angle_gamma                 92.207759
_cell_volume                      3131.22182172

loop_
_atom_site_label
_atom_site_type_symbol
_atom_type_description
_atom_site_fract_x
_atom_site_fract_y
_atom_site_fract_z
_atom_type_partial_charge
C1    C     C_R   0.353540 0.498548 0.503203 0.932533
C2    C     C_R   0.551346 0.255606 0.579490 0.536562
C3    C     C_R   0.548109 0.751952 0.584833 0.536328
C4    C     C_R   0.451892 0.248046 0.415167 0.536317
C5    C     C_R   0.500744 0.875802 0.496271 0.066664
C6    C     C_R   0.499258 0.124198 0.503741 0.066618
C7    C     C_1   0.500146 0.963521 0.498315 -0.006848
C8    C     C_1   0.499858 0.036479 0.501701 -0.006849
C9    C     C_R   0.499947 0.498795 0.257068 0.895057
C10   C     C_R   0.500053 0.501205 0.742933 0.895038
C11   C     C_3   0.430634 0.513791 0.035455 0.193788
C12   C     C_R   0.646460 0.501452 0.496796 0.932550
C13   C     C_3   0.569365 0.486207 0.964547 0.193782
C14   C     C_3   0.479904 0.572307 0.965074 0.224512
C15   C     C_3   0.520095 0.427691 0.034927 0.224521
C16   C     C_3   0.449576 0.444042 0.946300 -0.275075
C17   C     C_3   0.550423 0.555956 0.053701 -0.275088
C18   C     C_3   0.499589 0.503166 0.877321 -0.087909
C19   C     C_3   0.500411 0.496832 0.122680 -0.087903
C20   C     C_R   0.853586 0.545640 0.588119 0.443123
C21   C     C_R   0.146418 0.454363 0.411835 0.443130
C22   C     C_R   0.157746 0.551719 0.588347 0.437243
C23   C     C_1   0.966362 0.498164 0.500079 0.107430
C24   C     C_R   0.842245 0.448315 0.411564 0.437273
C25   C     C_R   0.774885 0.554053 0.578439 -0.028816
C26   C     C_R   0.225117 0.445934 0.421560 -0.028847
C27   C     C_R   0.237116 0.546200 0.596286 0.050939
C28   C     C_R   0.762875 0.453826 0.403655 0.050887
C29   C     C_R   0.729100 0.504350 0.491398 -0.192041
C30   C     C_R   0.270897 0.495652 0.508587 -0.192067
C31   C     C_R   0.886325 0.495896 0.501258 -0.212856
C32   C     C_R   0.113673 0.504130 0.498656 -0.212844
C33   C     C_3   0.351653 0.531223 0.075407 -0.939326
C34   C     C_1   0.033635 0.501868 0.499811 0.107448
C35   C     C_3   0.648348 0.468774 0.924603 -0.939291
C36   C     C_3   0.453811 0.654443 0.929569 -0.887009
C37   C     C_3   0.546185 0.345554 0.070430 -0.887009
C38   C     C_3   0.905692 0.543574 0.789247 0.104692
C39   C     C_3   0.954325 0.590237 0.892221 -0.829940
C40   C     C_3   0.094372 0.456398 0.210667 0.104693
C41   C     C_3   0.045719 0.409747 0.107706 -0.830019
C42   C     C_3   0.118117 0.677143 0.616388 0.106698
C43   C     C_3   0.077853 0.732789 0.703298 -0.818649
C44   C     C_3   0.881866 0.322893 0.383467 0.106700
C45   C     C_R   0.450703 0.828827 0.414863 -0.396421
C46   C     C_3   0.922113 0.267255 0.296523 -0.818650
C47   C     C_3   0.741007 0.617704 0.657253 -0.747626
C48   C     C_3   0.258996 0.382255 0.342804 -0.747601
C49   C     C_3   0.284789 0.589308 0.703080 -0.869054
C50   C     C_3   0.715193 0.410746 0.296842 -0.869134
C51   C     C_3   0.321226 0.717169 0.375047 0.122559
C52   C     C_3   0.262507 0.663028 0.299376 -0.869796
C53   C     C_3   0.678774 0.282892 0.624799 0.122790
C54   C     C_3   0.737490 0.336981 0.700603 -0.869543
C55   C     C_3   0.618866 0.759248 0.781521 0.062746
C56   C     C_R   0.549297 0.171176 0.585149 -0.396337
C57   C     C_3   0.649244 0.707645 0.887610 -0.869304
C58   C     C_3   0.381134 0.240745 0.218479 0.062741
C59   C     C_3   0.350750 0.292345 0.112390 -0.869303
C60   C     C_R   0.550014 0.837030 0.579845 -0.405416
C61   C     C_R   0.449989 0.162967 0.420160 -0.405412
C62   C     C_R   0.448652 0.744395 0.420513 0.536600
H1    H     H_    0.408188 0.399188 0.899577 0.164818
H2    H     H_    0.685853 0.454803 0.008456 0.247898
H3    H     H_    0.643607 0.417024 0.857310 0.291513
H4    H     H_    0.673402 0.520812 0.879351 0.227798
H5    H     H_    0.457129 0.694372 0.015290 0.253758
H6    H     H_    0.489644 0.679980 0.858387 0.271521
H7    H     H_    0.394228 0.650229 0.889127 0.240949
H8    H     H_    0.542867 0.305626 0.984707 0.253768
H9    H     H_    0.605768 0.349765 0.110873 0.240942
H10   H     H_    0.510351 0.320017 0.141610 0.271516
H11   H     H_    0.933243 0.486294 0.770170 0.140727
H12   H     H_    0.591812 0.600810 0.100424 0.164820
H13   H     H_    0.848668 0.530764 0.825521 0.143710
H14   H     H_    0.930390 0.649424 0.909290 0.251286
H15   H     H_    0.955318 0.557339 0.981453 0.209559
H16   H     H_    0.013519 0.598335 0.863556 0.287212
H17   H     H_    0.151410 0.469145 0.174408 0.143739
H18   H     H_    0.066865 0.513710 0.229693 0.140711
H19   H     H_    0.986511 0.401730 0.136340 0.287192
H20   H     H_    0.044784 0.442609 0.018439 0.209562
H21   H     H_    0.069597 0.350522 0.090710 0.251306
H22   H     H_    0.085127 0.673022 0.522797 0.135865
H23   H     H_    0.412887 0.857763 0.347732 0.159263
H24   H     H_    0.176032 0.703579 0.604202 0.133625
H25   H     H_    0.108010 0.736475 0.798828 0.248237
H26   H     H_    0.077175 0.793201 0.664118 0.200351
H27   H     H_    0.018240 0.710685 0.711121 0.291140
H28   H     H_    0.823953 0.296458 0.395666 0.133602
H29   H     H_    0.914869 0.327001 0.477047 0.135872
H30   H     H_    0.981728 0.289352 0.288694 0.291128
H31   H     H_    0.922784 0.206835 0.335678 0.200350
H32   H     H_    0.891946 0.263588 0.200999 0.248244
H33   H     H_    0.783056 0.648250 0.726489 0.247079
H34   H     H_    0.587116 0.142248 0.652285 0.159317
H35   H     H_    0.718553 0.663696 0.593776 0.277262
H36   H     H_    0.694581 0.591492 0.709643 0.243371
H37   H     H_    0.216946 0.351678 0.273605 0.247078
H38   H     H_    0.305416 0.408450 0.290379 0.243414
H39   H     H_    0.281459 0.336290 0.406324 0.277236
H40   H     H_    0.249743 0.614818 0.776317 0.264596
H41   H     H_    0.323023 0.546891 0.750740 0.224600
H42   H     H_    0.319514 0.638667 0.666545 0.235970
H43   H     H_    0.750233 0.385242 0.223594 0.264613
H44   H     H_    0.680457 0.361386 0.333352 0.235913
H45   H     H_    0.589048 0.874215 0.641086 0.144226
H46   H     H_    0.676966 0.453180 0.249204 0.224624
H47   H     H_    0.307894 0.779249 0.351920 0.120732
H48   H     H_    0.314154 0.708939 0.477401 0.133183
H49   H     H_    0.275355 0.599782 0.312100 0.261327
H50   H     H_    0.204962 0.673128 0.332159 0.191964
H51   H     H_    0.262325 0.676212 0.197371 0.250970
H52   H     H_    0.685809 0.291266 0.522428 0.133197
H53   H     H_    0.692144 0.220758 0.647707 0.120545
H54   H     H_    0.737642 0.323728 0.802596 0.250995
H55   H     H_    0.795041 0.326888 0.667834 0.191926
H56   H     H_    0.410958 0.125780 0.358917 0.144227
H57   H     H_    0.724664 0.400250 0.687968 0.261198
H58   H     H_    0.571150 0.792854 0.818177 0.138519
H59   H     H_    0.665962 0.801299 0.759126 0.149717
H60   H     H_    0.711198 0.700233 0.882916 0.235417
H61   H     H_    0.640020 0.736167 0.981011 0.221652
H62   H     H_    0.619771 0.648359 0.880686 0.284510
H63   H     H_    0.334041 0.198691 0.240879 0.149716
H64   H     H_    0.428852 0.207141 0.181821 0.138522
H65   H     H_    0.380229 0.351628 0.119297 0.284504
H66   H     H_    0.359959 0.263814 0.018988 0.221650
H67   H     H_    0.314131 0.545139 0.991551 0.247887
H68   H     H_    0.288797 0.299765 0.117105 0.235419
H69   H     H_    0.326625 0.479207 0.120746 0.227794
H70   H     H_    0.356390 0.583005 0.142631 0.291531
N1    N     N_R   0.500000 0.707230 0.500000 -0.157658
N2    N     N_R   0.500000 0.292770 0.500000 -0.157683
O1    O     O_R   0.389110 0.566570 0.499990 -0.595344
O2    O     O_3   0.100483 0.411199 0.320851 -0.601974
O3    O     O_3   0.122586 0.601689 0.670612 -0.600932
O4    O     O_3   0.877397 0.398356 0.329272 -0.600918
O5    O     O_3   0.395777 0.698694 0.343832 -0.581830
O6    O     O_3   0.604224 0.301303 0.656168 -0.581838
O7    O     O_3   0.593773 0.711573 0.672525 -0.596880
O8    O     O_3   0.406229 0.288422 0.327472 -0.596883
O9    O     O_R   0.610890 0.433430 0.500010 -0.595429
O10   O     O_R   0.610890 0.566570 0.500010 -0.596000
O11   O     O_R   0.389110 0.433430 0.499990 -0.596018
O12   O     O_R   0.499980 0.566530 0.313950 -0.589885
O13   O     O_R   0.500020 0.433470 0.686050 -0.589893
O14   O     O_R   0.500020 0.566530 0.686050 -0.598154
O15   O     O_R   0.499980 0.433470 0.313950 -0.598159
O16   O     O_3   0.899529 0.588800 0.679097 -0.601966
Zn1   Zn    Zn3+2 0.500000 0.588860 0.500000 1.009564
Zn2   Zn    Zn3+2 0.500000 0.411140 0.500000 1.009521

loop_
_geom_bond_atom_site_label_1
_geom_bond_atom_site_label_2
_ccdc_geom_bond_type
C21   C26   A    
C55   H59   S    
C59   H68   S    
C55   O7    S    
C12   C29   S    
C53   O6    S    
C14   C18   S    
C1    O11   A    
N1    Zn1   S    
O14   Zn1   S    
C49   H42   S    
C36   H5    S    
C7    C8    T    
C53   C54   S    
C53   H52   S    
C15   C19   S    
C40   O2    S    
C22   O3    S    
C9    O15   A    
C43   H27   S    
C47   H36   S    
C22   C32   A    
C13   C18   S    
C43   H26   S    
C39   H15   S    
C62   N1    A    
C28   C29   A    
C10   O14   A    
C13   C35   S    
O10   Zn1   S    
C4    O8    S    
C38   C39   S    
C38   H11   S    
C11   C14   S    
C46   H30   S    
C20   C25   A    
C35   H3    S    
C59   H65   S    
C15   C16   S    
C41   H21   S    
C47   H33   S    
C9    O12   A    
C15   C37   S    
C57   H60   S    
C28   C50   S    
C9    C19   S    
C54   H54   S    
C50   H43   S    
C40   H18   S    
C35   H2    S    
C42   H24   S    
C16   H1    S    
C62   O5    S    
C25   C47   S    
C21   O2    S    
C26   C48   S    
C10   O13   A    
C38   H13   S    
C3    C60   A    
C33   H69   S    
N2    Zn2   S    
C51   H47   S    
C54   H57   S    
C42   O3    S    
C50   H46   S    
C14   C17   S    
C44   C46   S    
C55   H58   S    
C25   C29   A    
C48   H38   S    
C21   C32   A    
C51   C52   S    
C39   H16   S    
C11   C33   S    
C42   H22   S    
O15   Zn2   S    
C49   H40   S    
C5    C7    S    
C6    C8    S    
C52   H49   S    
C24   O4    S    
C58   C59   S    
C52   H51   S    
C5    C45   A    
C4    C61   A    
C12   O10   A    
C3    N1    A    
C32   C34   S    
C45   H23   S    
C57   H61   S    
C11   C16   S    
C58   O8    S    
C46   H32   S    
C13   C15   S    
C23   C34   T    
C41   H19   S    
C40   H17   S    
C2    N2    A    
C39   H14   S    
C60   H45   S    
C44   H29   S    
C33   H70   S    
O9    Zn2   S    
C26   C30   A    
C51   H48   S    
C22   C27   A    
C37   H9    S    
C17   H12   S    
C37   H10   S    
C42   C43   S    
C44   H28   S    
C36   H7    S    
C6    C61   A    
C4    N2    A    
C33   H67   S    
C56   H34   S    
C48   H37   S    
C40   C41   S    
C44   O4    S    
C5    C60   A    
C61   H56   S    
C24   C28   A    
C6    C56   A    
C47   H35   S    
C49   H41   S    
C36   H6    S    
C58   H64   S    
C3    O7    S    
C35   H4    S    
C12   O9    A    
C13   C17   S    
C2    O6    S    
C55   C57   S    
O13   Zn2   S    
C59   H66   S    
C24   C31   A    
C43   H25   S    
C2    C56   A    
C57   H62   S    
C14   C36   S    
C46   H31   S    
C10   C18   S    
O1    Zn1   S    
C48   H39   S    
C1    C30   S    
C17   C19   S    
C20   O16   S    
C11   C19   S    
O11   Zn2   S    
C45   C62   A    
O12   Zn1   S    
C27   C49   S    
C41   H20   S    
C58   H63   S    
C16   C18   S    
C54   H55   S    
C1    O1    A    
C50   H44   S    
C52   H50   S    
C37   H8    S    
C38   O16   S    
C53   H53   S    
C23   C31   S    
C27   C30   A    
C20   C31   A    
C51   O5    S    
