data_mof_unit_31175.cif
_audit_creation_date              2013-03-05T16:43:43-0500
_audit_creation_method            fapswitch 2.2
_symmetry_space_group_name_H-M    P1
_symmetry_Int_Tables_number       1
_space_group_crystal_system       triclinic
_cell_length_a                    15.744742
_cell_length_b                    10.683393
_cell_length_c                    9.861427
_cell_angle_alpha                 90.075004
_cell_angle_beta                  90.052304
_cell_angle_gamma                 89.850417
_cell_volume                      1658.75591896

loop_
_atom_site_label
_atom_site_type_symbol
_atom_site_description
_atom_site_fract_x
_atom_site_fract_y
_atom_site_fract_z
_atom_type_partial_charge
O1    O     O_R   0.500010 0.316790 0.614690 -0.612388
O2    O     O_R   0.500000 0.316760 0.385350 -0.629571
C1    C     C_R   0.502380 0.260022 0.499986 0.925445
O3    O     O_R   0.376780 0.500010 0.614650 -0.593075
O4    O     O_R   0.376770 0.499970 0.385310 -0.613467
C2    C     C_R   0.338004 0.500189 0.499933 0.930402
Zn1   Zn    Zn3+2 0.500010 0.500020 0.653130 1.018141
Zn2   Zn    Zn3+2 0.499990 0.499980 0.346870 0.975286
O5    O     O_R   0.500000 0.683240 0.614650 -0.580254
O6    O     O_R   0.499990 0.683210 0.385310 -0.622666
O7    O     O_R   0.623230 0.500030 0.614690 -0.618283
O8    O     O_R   0.623220 0.499990 0.385350 -0.613719
C3    C     C_R   0.502308 0.740027 0.500111 0.877972
C4    C     C_R   0.662041 0.500048 0.500071 0.886667
C5    C     C_3   0.972034 0.397473 0.446054 0.333364
C6    C     C_3   0.026699 0.492763 0.371557 0.233826
H1    H     H_    0.945645 0.680029 0.360506 0.189956
C7    C     C_1   0.249322 0.501638 0.499651 -0.107674
C8    C     C_1   0.750802 0.501314 0.500135 -0.154486
C9    C     C_3   0.028066 0.409708 0.571684 0.380111
C10   C     C_3   0.083517 0.504407 0.496872 -0.017821
C11   C     C_3   0.972222 0.516500 0.627821 -0.243941
C12   C     C_3   0.916640 0.504301 0.499330 0.036692
C13   C     C_3   0.028280 0.613209 0.550901 -0.229035
C14   C     C_3   0.970686 0.601581 0.422642 -0.243269
C15   C     C_1   0.174195 0.503068 0.498641 0.120027
C16   C     C_1   0.825967 0.502715 0.499921 0.065518
H2    H     H_    0.053187 0.701981 0.593754 0.195534
H3    H     H_    0.948422 0.525104 0.733363 0.195177
C17   C     C_R   0.512394 0.063949 0.623081 -0.053982
C18   C     C_R   0.514828 0.128616 0.500692 -0.056286
C19   C     C_R   0.532684 0.064488 0.379825 -0.184447
H4    H     H_    0.541004 0.113285 0.284533 0.170306
C20   C     C_R   0.532656 0.935021 0.379944 -0.181447
H5    H     H_    0.540774 0.885876 0.284641 0.182654
C21   C     C_R   0.515124 0.871359 0.501054 -0.131316
C22   C     C_R   0.513351 0.936238 0.623530 0.130341
C23   C     C_3   0.453106 0.927914 0.740601 0.189109
C24   C     C_3   0.451964 0.070574 0.740557 0.042815
H6    H     H_    0.392111 0.880730 0.715122 0.181677
H7    H     H_    0.480628 0.114592 0.832142 0.144277
C25   C     C_R   0.447203 0.576826 0.071326 0.120986
N1    N     N_R   0.499430 0.499140 0.142800 -0.108601
C26   C     C_R   0.556937 0.428598 0.071954 -0.099970
H8    H     H_    0.601754 0.370362 0.126303 0.155400
C27   C     C_R   0.556925 0.428601 0.927931 -0.124894
H9    H     H_    0.601718 0.370352 0.873515 0.157095
N2    N     N_R   0.499430 0.499180 0.857150 -0.136111
C28   C     C_R   0.447118 0.576697 0.928657 0.300335
C29   C     C_3   0.352465 0.576504 0.923416 0.181342
C30   C     C_3   0.352556 0.577855 0.077519 -0.491893
H10   H     H_    0.325267 0.490409 0.876813 0.172537
H11   H     H_    0.327626 0.666004 0.122683 0.234773
H12   H     H_    0.326243 0.490671 0.122112 0.227763
N3    N     N_R   0.054910 0.478665 0.231644 0.227602
O9    O     O_R   0.999120 0.469324 0.134877 -0.348017
O10   O     O_R   0.135413 0.475987 0.202415 -0.392681
O11   O     O_3   0.493744 0.878948 0.855329 -0.739176
H13   H     H_    0.450547 0.879960 0.928503 0.356204
N4    N     N_R   0.368899 0.123000 0.704373 0.215956
O12   O     O_R   0.336514 0.212451 0.777638 -0.362475
O13   O     O_R   0.327301 0.082640 0.598878 -0.383960
O14   O     O_3   0.321320 0.688194 0.868079 -0.748074
H14   H     H_    0.258587 0.679810 0.867322 0.361622
O15   O     O_3   0.940907 0.285517 0.392136 -0.719657
H15   H     H_    0.991931 0.235954 0.367525 0.362219
O16   O     O_3   0.060033 0.309569 0.647408 -0.691438
H16   H     H_    0.009419 0.266383 0.684195 0.354943

loop_
_geom_bond_atom_site_label_1
_geom_bond_atom_site_label_2
_geom_bond_distance
_ccdc_geom_bond_type
O4    Zn2   1.977094 S    
C23   H6    1.114106 S    
N1    C26   1.368244 A    
Zn2   O6    1.993397 S    
C13   C14   1.560635 S    
Zn1   O5    1.994342 S    
C6    C10   1.530062 S    
C11   H3    1.110141 S    
C12   C16   1.427788 S    
C8    C16   1.183591 T    
C9    O16   1.397883 S    
C20   C21   1.403171 A    
C18   C19   1.402334 A    
C7    C15   1.182947 T    
Zn2   N1    2.012441 S    
C9    C11   1.541172 S    
C25   C30   1.491498 S    
Zn2   O8    1.976646 S    
C30   H12   1.111747 S    
H1    C14   1.110171 S    
Zn1   N2    2.011989 S    
N3    O9    1.300319 A    
C5    C12   1.527513 S    
C29   C30   1.519718 S    
C6    N3    1.457362 S    
C24   H7    1.113451 S    
O1    Zn1   1.993397 S    
C19   H4    1.083451 S    
C1    C18   1.416998 S    
Zn1   O7    1.977092 S    
C29   O14   1.400078 S    
C22   C23   1.497726 S    
N4    O12   1.300603 A    
O3    Zn1   1.976645 S    
O4    C2    1.285099 A    
O3    C2    1.285014 A    
N2    C28   1.362878 A    
C10   C15   1.427819 S    
O8    C4    1.285375 A    
C17   C24   1.501259 S    
O15   H15   0.991192 S    
O16   H16   0.991171 S    
O2    C1    1.283894 A    
N3    O10   1.300338 A    
C17   C18   1.392068 A    
C2    C7    1.396322 S    
O7    C4    1.285403 A    
C11   C13   1.558815 S    
C25   N1    1.363343 A    
C24   N4    1.465381 S    
C25   C28   1.406912 A    
O14   H14   0.992012 S    
C5    O15   1.397997 S    
C27   N2    1.368166 A    
C13   H2    1.110136 S    
C6    C14   1.541744 S    
C12   C14   1.544009 S    
C23   C24   1.524152 S    
C9    C10   1.528984 S    
C3    C21   1.418045 S    
N4    O13   1.302387 A    
C20   H5    1.083439 S    
C10   C13   1.544434 S    
C29   H10   1.114092 S    
C28   C29   1.491138 S    
O5    C3    1.283429 A    
C27   H9    1.081718 S    
C21   C22   1.392019 A    
C30   H11   1.112018 S    
O11   H13   0.992075 S    
C23   O11   1.400550 S    
C4    C8    1.397626 S    
C11   C12   1.544837 S    
O2    Zn2   1.994340 S    
C26   H8    1.081733 S    
C5    C6    1.524646 S    
C17   C22   1.364450 A    
C26   C27   1.420270 A    
C5    C9    1.525912 S    
O1    C1    1.283299 A    
O6    C3    1.284396 A    
C19   C20   1.383149 A    
