data_mof_unit_43976.cif
_audit_creation_date              2012-12-10T18:58:42-0500
_audit_creation_method            fapswitch 2.2
_symmetry_space_group_name_H-M    P1
_symmetry_Int_Tables_number       1
_space_group_crystal_system       triclinic
_cell_length_a                    10.716545
_cell_length_b                    9.821137
_cell_length_c                    17.486741
_cell_angle_alpha                 89.931919
_cell_angle_beta                  90.098823
_cell_angle_gamma                 90.012267
_cell_volume                      1840.45192054

loop_
_atom_site_label
_atom_site_type_symbol
_atom_type_description
_atom_site_fract_x
_atom_site_fract_y
_atom_site_fract_z
_atom_type_partial_charge
C1    C     C_R   0.259812 0.499988 0.499955 0.869824
C2    C     C_R   0.497764 0.499917 0.646682 0.920146
C3    C     C_R   0.872603 0.500027 0.500069 -0.018790
C4    C     C_R   0.127418 0.499975 0.499946 -0.016213
C5    C     C_R   0.483445 0.620196 0.849366 0.353817
C6    C     C_R   0.481349 0.380023 0.150572 0.352308
C7    C     C_R   0.399046 0.612637 0.158031 0.344918
C8    C     C_R   0.397981 0.388902 0.841770 0.343826
C9    C     C_R   0.506804 0.616738 0.771231 -0.262850
C10   C     C_R   0.504682 0.383036 0.228768 -0.267142
C11   C     C_R   0.426703 0.614327 0.235662 -0.261962
C12   C     C_R   0.740194 0.500012 0.500049 0.874527
C13   C     C_R   0.425723 0.386678 0.764209 -0.261572
C14   C     C_R   0.479747 0.499948 0.728928 -0.152662
C15   C     C_R   0.479253 0.500222 0.271039 -0.151971
C16   C     C_R   0.575881 0.071934 0.548630 -0.054926
C17   C     C_R   0.424123 0.928056 0.451358 -0.050409
C18   C     C_R   0.424118 0.072098 0.451365 -0.053060
C19   C     C_R   0.575866 0.927897 0.548639 -0.051860
C20   C     C_R   0.429357 0.505300 0.884894 -0.143386
C21   C     C_R   0.428918 0.495821 0.114941 -0.143027
C22   C     C_1   0.418454 0.502274 0.965833 0.209758
C23   C     C_1   0.418314 0.499164 0.033969 0.209538
C24   C     C_R   0.063955 0.379066 0.516027 -0.180361
C25   C     C_R   0.936075 0.620942 0.484006 -0.178984
C26   C     C_R   0.936117 0.379092 0.516093 -0.177875
C27   C     C_R   0.063912 0.620906 0.483913 -0.178316
C28   C     C_R   0.497577 0.500100 0.353313 0.922150
H1    H     H_    0.546597 0.704907 0.743154 0.194164
H2    H     H_    0.887326 0.714847 0.471036 0.163371
H3    H     H_    0.887401 0.285212 0.529129 0.158572
H4    H     H_    0.112631 0.714776 0.470855 0.158418
H5    H     H_    0.684507 0.840207 0.839872 0.356806
H6    H     H_    0.680108 0.156905 0.159885 0.359627
H7    H     H_    0.181302 0.779007 0.200602 0.347384
H8    H     H_    0.176792 0.226356 0.799373 0.348832
H9    H     H_    0.543250 0.294214 0.256895 0.199497
H10   H     H_    0.404788 0.704145 0.268943 0.199089
H11   H     H_    0.402598 0.297216 0.730881 0.206679
H12   H     H_    0.636509 0.126593 0.587449 0.137729
H13   H     H_    0.363528 0.873388 0.412512 0.134041
H14   H     H_    0.363518 0.126890 0.412526 0.144474
H15   H     H_    0.636453 0.873104 0.587487 0.134466
H16   H     H_    0.112709 0.285172 0.529019 0.163094
N1    N     N_R   0.500000 0.857200 0.500000 -0.087267
N2    N     N_R   0.500000 0.142800 0.500000 -0.089643
O1    O     O_R   0.316770 0.614620 0.500000 -0.626212
O2    O     O_2   0.597269 0.736728 0.969852 -0.262560
O3    O     O_3   0.600304 0.880658 0.845104 -0.495231
O4    O     O_2   0.396363 0.164148 0.074713 -0.114517
O5    O     O_2   0.593482 0.261889 0.030217 -0.262273
O6    O     O_3   0.595160 0.118039 0.155000 -0.490522
O7    O     O_2   0.431275 0.852085 0.089322 -0.091667
O8    O     O_2   0.244624 0.723566 0.052413 -0.250774
O9    O     O_3   0.247210 0.843700 0.184581 -0.513445
O10   O     O_2   0.426588 0.148742 0.910365 -0.092996
O11   O     O_2   0.242098 0.280589 0.947164 -0.252611
O12   O     O_R   0.683230 0.385380 0.500000 -0.625713
O13   O     O_3   0.242432 0.160788 0.814904 -0.506996
O14   O     O_R   0.683230 0.614620 0.500000 -0.626837
O15   O     O_R   0.316770 0.385380 0.500000 -0.628102
O16   O     O_R   0.500010 0.614710 0.389120 -0.617611
O17   O     O_R   0.499990 0.385290 0.610880 -0.618757
O18   O     O_R   0.499990 0.614710 0.610880 -0.614039
O19   O     O_R   0.500010 0.385290 0.389120 -0.616196
O20   O     O_2   0.401187 0.837119 0.925149 -0.113141
S1    S     S_3+6 0.520574 0.770619 0.900330 0.117379
S2    S     S_3+6 0.516571 0.229089 0.099656 0.117662
S3    S     S_3+6 0.329614 0.759900 0.117750 0.116982
S4    S     S_3+6 0.326338 0.242869 0.881895 0.117047
Zn1   Zn    Zn3+2 0.500000 0.653120 0.500000 0.964409
Zn2   Zn    Zn3+2 0.500000 0.346880 0.500000 0.961939

loop_
_geom_bond_atom_site_label_1
_geom_bond_atom_site_label_2
_ccdc_geom_bond_type
C6    C10   A    
C11   H10   S    
C9    C14   A    
C19   N1    A    
C7    S3    S    
C8    C13   A    
C3    C12   S    
C10   H9    S    
O11   S4    D    
N1    Zn1   S    
O19   Zn2   S    
N2    Zn2   S    
O6    S2    S    
C9    H1    S    
C5    S1    S    
C1    C4    S    
C12   O12   A    
H8    O13   S    
C11   C15   A    
C6    S2    S    
C17   C18   A    
C2    C14   S    
O7    S3    D    
C26   H3    S    
C5    C20   A    
O9    S3    S    
C13   C14   A    
C2    O17   A    
C7    C11   A    
O12   Zn2   S    
C15   C28   S    
C8    C20   A    
O8    S3    D    
O4    S2    D    
C16   H12   S    
C16   C19   A    
C24   H16   S    
C18   N2    A    
O15   Zn2   S    
O5    S2    D    
C20   C22   S    
O16   Zn1   S    
O20   S1    D    
O10   S4    D    
C10   C15   A    
C21   C23   S    
O2    S1    D    
C8    S4    S    
C4    C24   A    
C17   N1    A    
C17   H13   S    
C18   H14   S    
C13   H11   S    
C25   C27   A    
O1    Zn1   S    
O13   S4    S    
H7    O9    S    
C12   O14   A    
C3    C25   A    
C4    C27   A    
C1    O15   A    
O17   Zn2   S    
C2    O18   A    
O18   Zn1   S    
C16   N2    A    
C25   H2    S    
C22   C23   T    
C1    O1    A    
C5    C9    A    
O3    S1    S    
O14   Zn1   S    
C27   H4    S    
C7    C21   A    
C6    C21   A    
H6    O6    S    
C3    C26   A    
C24   C26   A    
C28   O19   A    
C19   H15   S    
H5    O3    S    
C28   O16   A    
