data_mof_unit_8363.cif
_audit_creation_date              2012-12-10T17:57:51-0500
_audit_creation_method            fapswitch 2.2
_symmetry_space_group_name_H-M    P1
_symmetry_Int_Tables_number       1
_space_group_crystal_system       triclinic
_cell_length_a                    10.818534
_cell_length_b                    9.625861
_cell_length_c                    15.007842
_cell_angle_alpha                 90.078748
_cell_angle_beta                  92.336443
_cell_angle_gamma                 90.009318
_cell_volume                      1561.58142787

loop_
_atom_site_label
_atom_site_type_symbol
_atom_type_description
_atom_site_fract_x
_atom_site_fract_y
_atom_site_fract_z
_atom_type_partial_charge
C1    C     C_R   0.262364 0.500000 0.499411 0.840756
C2    C     C_R   0.737636 0.500000 0.500586 0.840740
C3    C     C_R   0.277983 0.511287 0.045485 -0.170627
C4    C     C_R   0.721993 0.488625 0.954520 -0.170616
C5    C     C_R   0.063849 0.373787 0.499446 -0.096570
C6    C     C_R   0.936150 0.626213 0.500547 -0.096561
C7    C     C_R   0.936071 0.373784 0.499851 -0.107323
C8    C     C_R   0.063928 0.626215 0.500141 -0.107307
C9    C     C_R   0.871660 0.499996 0.500532 -0.020869
C10   C     C_R   0.128339 0.500003 0.499462 -0.020859
C11   C     C_R   0.421860 0.073883 0.442994 0.285382
C12   C     C_R   0.578140 0.926117 0.557005 0.285382
C13   C     C_R   0.578158 0.074135 0.556998 0.286738
C14   C     C_R   0.421842 0.925865 0.443002 0.286744
C15   C     C_R   0.501328 0.499881 0.329329 0.870595
C16   C     C_R   0.498672 0.500118 0.670671 0.870615
C17   C     C_R   0.606407 0.503606 0.815271 -0.179716
C18   C     C_R   0.393577 0.496352 0.184734 -0.179707
C19   C     C_R   0.494521 0.500774 0.766936 -0.104590
C20   C     C_R   0.505467 0.499222 0.233065 -0.104580
C21   C     C_R   0.381140 0.496015 0.809468 0.230242
C22   C     C_R   0.618840 0.503992 0.190526 0.230233
C23   C     C_R   0.380732 0.505502 0.904078 -0.008645
C24   C     C_R   0.619240 0.494455 0.095921 -0.008639
C25   C     C_R   0.497169 0.501141 0.952900 -0.000571
C26   C     C_R   0.502805 0.498812 0.047100 -0.000563
C27   C     C_R   0.608672 0.499171 0.907617 0.063628
C28   C     C_R   0.391306 0.500776 0.092386 0.063626
C29   C     C_R   0.271130 0.518503 0.952884 0.316665
C30   C     C_R   0.728838 0.481405 0.047120 0.316661
Cu1   Cu    Cu3+1 0.500000 0.640660 0.500000 1.064720
Cu2   Cu    Cu3+1 0.500000 0.359340 0.500000 1.064707
H1    H     H_    0.692306 0.504481 0.780256 0.175132
H2    H     H_    0.307681 0.495465 0.219752 0.175128
H3    H     H_    0.193508 0.519544 0.081673 0.211258
H4    H     H_    0.806467 0.480337 0.918335 0.211265
H5    H     H_    0.111766 0.275036 0.499290 0.190736
H6    H     H_    0.888233 0.724964 0.500703 0.190737
H7    H     H_    0.888100 0.275029 0.499498 0.188908
H8    H     H_    0.111899 0.724970 0.500495 0.188908
N1    N     N_R   0.500000 0.852070 0.500000 -0.251696
N2    N     N_R   0.500000 0.147930 0.500000 -0.251697
O1    O     O_R   0.319640 0.618740 0.499990 -0.563982
O2    O     O_R   0.680360 0.381260 0.500010 -0.563988
O3    O     O_R   0.680360 0.618740 0.500010 -0.557858
O4    O     O_R   0.319640 0.381260 0.499990 -0.557863
O5    O     O_R   0.499970 0.618800 0.370260 -0.533508
O6    O     O_R   0.500030 0.381200 0.629740 -0.533520
O7    O     O_R   0.500030 0.618800 0.629740 -0.542774
O8    O     O_R   0.499970 0.381200 0.370260 -0.542789
Br1   Br    Br    0.236318 0.453057 0.734542 -0.426924
Br2   Br    Br    0.763661 0.547088 0.265422 -0.426901
Br3   Br    Br    0.109681 0.569975 0.905201 -0.359478
Br4   Br    Br    0.890241 0.429796 0.094822 -0.359463
Br5   Br    Br    0.309241 0.168085 0.360599 -0.400212
Br6   Br    Br    0.690759 0.831915 0.639401 -0.400195
Br7   Br    Br    0.690951 0.168651 0.639320 -0.399461
Br8   Br    Br    0.309049 0.831349 0.360679 -0.399455

loop_
_geom_bond_atom_site_label_1
_geom_bond_atom_site_label_2
_ccdc_geom_bond_type
C3    C28   A    
C6    H6    S    
C12   N1    A    
C15   O5    A    
C25   C27   A    
Cu2   O6    S    
C14   N1    A    
C26   C28   A    
Cu1   Cu2   S    
C3    H3    S    
C16   O6    A    
C6    C9    A    
C23   C25   A    
Cu2   O2    S    
C11   Br5   S    
C5    C10   A    
C17   H1    S    
Cu1   N1    S    
Cu1   O5    S    
C12   C13   A    
C30   Br4   S    
Cu2   O8    S    
C12   Br6   S    
Cu1   O1    S    
Cu1   O7    S    
C16   C19   S    
C23   C29   A    
C7    H7    S    
C22   Br2   S    
C13   N2    A    
C19   C21   A    
C4    H4    S    
C18   C20   A    
C18   H2    S    
C21   C23   A    
C15   C20   S    
C14   Br8   S    
C11   C14   A    
C22   C24   A    
C1    O4    A    
C24   C30   A    
C13   Br7   S    
C2    O3    A    
C20   C22   A    
C17   C27   A    
C7    C9    A    
C21   Br1   S    
C4    C27   A    
C18   C28   A    
C16   O7    A    
C11   N2    A    
C8    C10   A    
Cu1   O3    S    
C15   O8    A    
C2    O2    A    
C5    C7    A    
Cu2   N2    S    
C5    H5    S    
C3    C29   A    
C6    C8    A    
C8    H8    S    
C17   C19   A    
C25   C26   A    
C2    C9    S    
Cu2   O4    S    
C1    O1    A    
C4    C30   A    
C1    C10   S    
C24   C26   A    
C29   Br3   S    
