data_mof_unit_22214.cif
_audit_creation_date              2012-12-10T18:46:01-0500
_audit_creation_method            fapswitch 2.2
_symmetry_space_group_name_H-M    P1
_symmetry_Int_Tables_number       1
_space_group_crystal_system       triclinic
_cell_length_a                    13.44855
_cell_length_b                    18.161955
_cell_length_c                    19.41535
_cell_angle_alpha                 89.858458
_cell_angle_beta                  90.857917
_cell_angle_gamma                 72.147839
_cell_volume                      4513.27167223

loop_
_atom_site_label
_atom_site_type_symbol
_atom_type_description
_atom_site_fract_x
_atom_site_fract_y
_atom_site_fract_z
_atom_type_partial_charge
C1    C     C_R   0.501947 0.499461 0.632183 0.772425
C2    C     C_R   0.972549 0.476535 0.514920 0.023689
C3    C     C_R   0.873202 0.482997 0.485752 -0.032412
C4    C     C_R   0.027332 0.527357 0.491018 0.016174
C5    C     C_R   0.977711 0.590381 0.445693 -0.009990
C6    C     C_R   0.875270 0.598484 0.421225 -0.036184
C7    C     C_R   0.830119 0.540817 0.435725 -0.220064
C8    C     C_R   0.133754 0.512775 0.506425 -0.163436
C9    C     C_R   0.135348 0.630376 0.450113 -0.274813
C10   C     C_R   0.815871 0.434328 0.509816 -0.237714
C11   C     C_R   0.556589 0.540299 0.254597 0.434760
C12   C     C_R   0.700831 0.458531 0.500616 0.818224
C13   C     C_R   0.561797 0.533428 0.183287 -0.252142
C14   C     C_R   0.501805 0.495027 0.147277 -0.016188
C15   C     C_R   0.439860 0.458004 0.183064 0.474237
C16   C     C_R   0.439909 0.461271 0.255833 -0.390006
C17   C     C_R   0.499303 0.500657 0.291667 -0.190675
C18   C     C_R   0.526530 0.427545 0.034678 -0.199249
C19   C     C_R   0.528188 0.428448 0.963215 -0.122373
C20   C     C_R   0.509198 0.498358 0.927133 -0.018053
C21   C     C_R   0.488345 0.569020 0.963213 -0.121275
C22   C     C_R   0.480181 0.567965 0.035625 0.432954
C23   C     C_R   0.499729 0.500301 0.367455 0.853479
C24   C     C_R   0.502305 0.496809 0.071303 0.026182
C25   C     C_R   0.432035 0.474445 0.815014 0.495918
C26   C     C_R   0.433351 0.473624 0.743028 -0.299735
C27   C     C_R   0.507742 0.497825 0.707358 -0.172383
C28   C     C_R   0.586372 0.519183 0.743898 0.007568
C29   C     C_R   0.586352 0.517622 0.816042 -0.225167
C30   C     C_R   0.509564 0.496126 0.851467 -0.037660
C31   C     C_R   0.553783 0.270718 0.552703 0.073773
C32   C     C_R   0.562058 0.191748 0.557358 -0.347248
C33   C     C_R   0.514592 0.157505 0.507310 0.023585
C34   C     C_R   0.299782 0.541258 0.498606 0.846273
C35   C     C_R   0.455114 0.205492 0.454683 0.301833
C36   C     C_R   0.450513 0.284656 0.450973 0.099557
C37   C     C_R   0.503168 0.036926 0.569031 -0.213486
C38   C     C_R   0.504476 0.959119 0.568307 -0.152416
C39   C     C_R   0.530285 0.914147 0.508396 0.024398
C40   C     C_R   0.560135 0.948058 0.449358 -0.026803
C41   C     C_R   0.556938 0.026628 0.450557 -0.068410
C42   C     C_R   0.526478 0.072333 0.509541 0.094768
C43   C     C_R   0.581541 0.774147 0.548471 -0.233675
C44   C     C_R   0.571040 0.699571 0.543925 0.095528
C45   C     C_R   0.036407 0.638756 0.422030 0.521320
C46   C     C_R   0.435417 0.742435 0.459910 0.183678
C47   C     C_R   0.445331 0.817775 0.463009 -0.249563
C48   C     C_R   0.519160 0.834237 0.506961 0.031763
C49   C     C_R   0.186475 0.564808 0.488764 -0.161275
C50   C     C_R   0.865716 0.370620 0.553370 0.393089
C51   C     C_R   0.967960 0.360614 0.577937 -0.146936
C52   C     C_R   0.012529 0.420122 0.567762 0.281996
Cu1   Cu    Cu3+1 0.500030 0.426630 0.500000 0.981331
Cu2   Cu    Cu3+1 0.499970 0.573370 0.500000 0.925841
H1    H     H_    0.177625 0.668761 0.432778 0.178970
H2    H     H_    0.611193 0.559997 0.155418 0.182233
H3    H     H_    0.390728 0.436766 0.285418 0.187062
H4    H     H_    0.544509 0.372621 0.061533 0.161891
H5    H     H_    0.545572 0.374225 0.935734 0.167952
H6    H     H_    0.375013 0.455182 0.714881 0.159636
H7    H     H_    0.646225 0.533116 0.845248 0.200288
H8    H     H_    0.591931 0.295428 0.591372 0.156882
H9    H     H_    0.607264 0.157244 0.599242 0.165777
H10   H     H_    0.479625 0.070450 0.615343 0.148378
H11   H     H_    0.481907 0.934559 0.614166 0.154003
H12   H     H_    0.578497 0.052682 0.405179 0.196710
H13   H     H_    0.639320 0.784444 0.583395 0.155652
H14   H     H_    0.621035 0.653944 0.575913 0.140336
H15   H     H_    0.395931 0.863918 0.430955 0.183838
H16   H     H_    0.179531 0.458154 0.528267 0.232203
H17   H     H_    0.757529 0.543926 0.409264 0.182423
N1    N     N_R   0.500010 0.316380 0.499980 -0.204079
N2    N     N_R   0.499860 0.683650 0.499960 -0.222531
O1    O     O_R   0.500040 0.438010 0.599820 -0.596337
O2    O     O_R   0.499990 0.561930 0.599810 -0.584578
O3    O     O_R   0.651020 0.407800 0.499990 -0.541028
O4    O     O_R   0.650970 0.531720 0.499980 -0.602955
O5    O     O_R   0.500010 0.438070 0.400190 -0.571793
O6    O     O_R   0.499960 0.561990 0.400180 -0.604982
O7    O     O_R   0.349030 0.468280 0.500020 -0.528305
O8    O     O_R   0.348980 0.592200 0.500010 -0.609360
O9    O     O_3   0.374091 0.427223 0.144058 -0.619366
C53   C     C_3   0.351635 0.363298 0.174600 0.059528
H18   H     H_    0.296830 0.347037 0.138748 0.179542
H19   H     H_    0.307836 0.378713 0.223127 0.135481
C54   C     C_3   0.449349 0.292480 0.183182 -0.404946
H20   H     H_    0.490978 0.280357 0.133507 0.227383
H21   H     H_    0.503328 0.303990 0.222565 0.214586
C55   C     C_3   0.420379 0.220969 0.205079 -0.847581
H22   H     H_    0.375575 0.231943 0.253545 0.259078
H23   H     H_    0.492571 0.171718 0.213739 0.273000
H24   H     H_    0.372419 0.204879 0.164166 0.253480
C56   C     C_2   0.471692 0.643478 0.925396 0.355657
H25   H     H_    0.451493 0.648082 0.870947 0.075122
O10   O     O_2   0.481756 0.700464 0.954292 -0.490130
O11   O     O_3   0.450750 0.636281 0.072271 -0.590469
C57   C     C_3   0.340493 0.664154 0.073811 0.077730
H26   H     H_    0.306273 0.618037 0.089405 0.127452
H27   H     H_    0.308551 0.686715 0.022056 0.166295
C58   C     C_3   0.308095 0.729619 0.125999 -0.322820
H28   H     H_    0.330989 0.705586 0.178651 0.212036
H29   H     H_    0.349351 0.772762 0.115110 0.250984
C59   C     C_3   0.190582 0.770208 0.123015 -0.898794
H30   H     H_    0.167215 0.798239 0.071870 0.261535
H31   H     H_    0.169473 0.815362 0.163337 0.271096
H32   H     H_    0.147042 0.728281 0.132100 0.259112
O12   O     O_3   0.360674 0.447882 0.850091 -0.610836
C60   C     C_3   0.259831 0.502710 0.845900 0.050913
H33   H     H_    0.202273 0.470194 0.849301 0.171573
H34   H     H_    0.243181 0.535333 0.796112 0.126914
C61   C     C_3   0.243399 0.559001 0.906440 -0.360609
H35   H     H_    0.267397 0.526034 0.955420 0.244574
H36   H     H_    0.292343 0.597566 0.899384 0.193674
C62   C     C_3   0.129827 0.609211 0.911398 -0.905837
H37   H     H_    0.105621 0.645150 0.864107 0.263596
H38   H     H_    0.121361 0.648264 0.956330 0.255500
H39   H     H_    0.078003 0.572579 0.918426 0.262055
C63   C     C_2   0.671250 0.539697 0.707963 0.322162
H40   H     H_    0.681050 0.531903 0.652900 0.055558
O13   O     O_2   0.732625 0.564912 0.739785 -0.571735
C64   C     C_2   0.809159 0.667060 0.382862 0.386849
H41   H     H_    0.757354 0.659839 0.341944 0.068928
O14   O     O_2   0.806813 0.732305 0.399601 -0.502156
O15   O     O_3   0.405442 0.173963 0.404932 -0.633638
C65   C     C_3   0.296696 0.195143 0.417263 0.044050
H42   H     H_    0.256340 0.198407 0.366474 0.173708
H43   H     H_    0.264495 0.253214 0.441222 0.149822
C66   C     C_3   0.270531 0.134120 0.461873 -0.366632
H44   H     H_    0.306243 0.075751 0.439700 0.244124
H45   H     H_    0.302890 0.134995 0.514701 0.220882
C67   C     C_3   0.152661 0.149930 0.466467 -0.815344
H46   H     H_    0.115329 0.208409 0.487837 0.266887
H47   H     H_    0.136048 0.106316 0.500832 0.276373
H48   H     H_    0.118469 0.146165 0.414656 0.251405
C68   C     C_2   0.394886 0.330082 0.391584 0.402003
H49   H     H_    0.420610 0.311613 0.340124 0.050627
O16   O     O_2   0.316059 0.384528 0.399069 -0.573166
C69   C     C_2   0.597532 0.901571 0.386862 0.384150
H50   H     H_    0.611280 0.839572 0.387518 0.104293
O17   O     O_2   0.614624 0.931771 0.333926 -0.530613
O18   O     O_3   0.004871 0.688385 0.366115 -0.557968
C70   C     C_3   0.026934 0.645386 0.304149 0.071518
H51   H     H_    0.970473 0.677753 0.264066 0.175024
H52   H     H_    0.014974 0.587361 0.308202 0.116462
C71   C     C_3   0.137864 0.636918 0.279480 -0.372305
H53   H     H_    0.145487 0.695131 0.269056 0.247094
H54   H     H_    0.196605 0.607997 0.319543 0.213295
C72   C     C_3   0.162480 0.588227 0.214403 -0.888617
H55   H     H_    0.161291 0.528404 0.225184 0.264846
H56   H     H_    0.241601 0.585427 0.196793 0.265901
H57   H     H_    0.104728 0.614062 0.172767 0.249483
C73   C     C_2   0.355463 0.728954 0.412513 0.294536
H58   H     H_    0.350427 0.671893 0.403442 0.117197
O19   O     O_2   0.293332 0.782626 0.381567 -0.568971
O20   O     O_3   0.811763 0.322022 0.577335 -0.546749
C74   C     C_3   0.772352 0.346294 0.643691 0.083195
H59   H     H_    0.691730 0.385523 0.637411 0.138181
H60   H     H_    0.818096 0.378159 0.673110 0.098023
C75   C     C_3   0.771231 0.276083 0.687119 -0.290235
H61   H     H_    0.741218 0.236023 0.656011 0.222148
H62   H     H_    0.852150 0.244110 0.704227 0.248402
C76   C     C_3   0.703579 0.300509 0.750576 -0.940054
H63   H     H_    0.731348 0.341494 0.782118 0.266198
H64   H     H_    0.707929 0.248783 0.782499 0.262713
H65   H     H_    0.620814 0.328530 0.734832 0.268262
O21   O     O_3   0.090491 0.425288 0.613212 -0.642603
C77   C     C_3   0.045303 0.463879 0.673860 0.042347
H66   H     H_    0.091629 0.432186 0.718575 0.155577
H67   H     H_    0.962860 0.464624 0.682108 0.144351
C78   C     C_3   0.051362 0.546657 0.673880 -0.337577
H68   H     H_    0.134484 0.545139 0.671072 0.213646
H69   H     H_    0.008533 0.578749 0.628265 0.234772
C79   C     C_3   0.003295 0.589668 0.738564 -0.888448
H70   H     H_    0.918087 0.597779 0.738948 0.303778
H71   H     H_    0.015477 0.647418 0.739507 0.255240
H72   H     H_    0.040124 0.556781 0.785356 0.245991
C80   C     C_2   0.026457 0.291498 0.619362 0.372419
H73   H     H_    0.094314 0.292017 0.650048 0.103015
O22   O     O_2   0.002648 0.231857 0.617380 -0.525921
O23   O     O_3   0.610298 0.584333 0.287557 -0.627066
C81   C     C_3   0.544716 0.662017 0.291569 0.069305
H74   H     H_    0.562264 0.685514 0.341450 0.164061
H75   H     H_    0.459587 0.667715 0.291574 0.136157
C82   C     C_3   0.566812 0.711804 0.233491 -0.397522
H76   H     H_    0.650452 0.709121 0.235476 0.230626
H77   H     H_    0.549857 0.690057 0.182771 0.251974
C83   C     C_3   0.498706 0.795813 0.239668 -0.815709
H78   H     H_    0.414737 0.800023 0.235313 0.254760
H79   H     H_    0.517478 0.831001 0.197892 0.271558
H80   H     H_    0.512782 0.819700 0.289997 0.259351

loop_
_geom_bond_atom_site_label_1
_geom_bond_atom_site_label_2
_ccdc_geom_bond_type
C46   C73   S    
C36   C68   S    
C9    C45   A    
C56   H25   S    
C41   C42   A    
C35   C36   A    
C31   H8    S    
C72   H57   S    
C4    C8    A    
C67   H48   S    
C66   H44   S    
C57   C58   S    
C71   H53   S    
C68   H49   S    
C77   H67   S    
C20   C30   S    
C79   H70   S    
C82   H76   S    
C26   C27   A    
C17   C23   S    
C21   C56   S    
C18   C24   A    
C33   C42   S    
C35   O15   S    
C72   H56   S    
Cu2   O6    S    
C3    C7    A    
C7    H17   S    
C5    C6    A    
C31   C32   A    
C54   H21   S    
C79   H72   S    
C78   H68   S    
C15   C16   A    
Cu2   N2    S    
C57   H26   S    
C60   H33   S    
C18   C19   A    
C14   C24   S    
C37   C42   A    
C63   H40   S    
C47   H15   S    
C83   H80   S    
C34   O7    A    
C18   H4    S    
C11   C17   A    
C75   H61   S    
C82   H77   S    
C16   C17   A    
C80   O22   D    
C40   C69   S    
C65   C66   S    
O12   C60   S    
C75   H62   S    
C9    H1    S    
C34   O8    A    
C55   H23   S    
C29   C30   A    
C43   C48   A    
C13   H2    S    
C52   O21   S    
C81   H75   S    
C56   O10   D    
C13   C14   A    
C12   O4    A    
C45   O18   S    
C70   C71   S    
C71   H54   S    
C62   H37   S    
C77   C78   S    
C76   H64   S    
C79   H71   S    
C38   C39   A    
C29   H7    S    
O20   C74   S    
C64   O14   D    
C51   C52   A    
C1    O2    A    
C47   C48   A    
Cu1   O7    S    
C9    C49   A    
C72   H55   S    
C59   H31   S    
C57   H27   S    
C77   H66   S    
C54   H20   S    
C19   H5    S    
C25   C26   A    
C81   H74   S    
C5    C45   A    
C58   C59   S    
C37   H10   S    
C74   H59   S    
C59   H32   S    
C2    C4    A    
C43   C44   A    
C37   C38   A    
C2    C52   A    
C76   H65   S    
C53   H18   S    
C38   H11   S    
C50   O20   S    
O11   C57   S    
C58   H29   S    
C50   C51   A    
C75   C76   S    
C61   H36   S    
C20   C21   A    
C55   H24   S    
C64   H41   S    
C6    C7    A    
C10   C12   S    
C31   N1    A    
C53   H19   S    
C73   O19   D    
C80   H73   S    
C12   O3    A    
O21   C77   S    
C70   H52   S    
C44   H14   S    
Cu1   O3    S    
C1    O1    A    
C67   H46   S    
C10   C50   A    
C66   C67   S    
C15   O9    S    
C27   C28   A    
C71   C72   S    
O23   C81   S    
C25   O12   S    
C65   H43   S    
C76   H63   S    
C81   C82   S    
C25   C30   A    
C68   O16   D    
C46   C47   A    
C28   C29   A    
C34   C49   S    
C61   H35   S    
C70   H51   S    
C22   O11   S    
C74   C75   S    
C32   H9    S    
C4    C5    A    
C67   H47   S    
C54   C55   S    
C66   H45   S    
C62   H38   S    
C60   C61   S    
Cu1   Cu2   S    
C41   H12   S    
C69   O17   D    
C8    H16   S    
C82   C83   S    
C32   C33   A    
Cu2   O4    S    
C19   C20   A    
C74   H60   S    
C2    C3    A    
C51   C80   S    
C83   H78   S    
C3    C10   A    
C28   C63   S    
O18   C70   S    
C11   C13   A    
C65   H42   S    
C78   H69   S    
C58   H28   S    
C33   C35   A    
C60   H34   S    
Cu1   O5    S    
C61   C62   S    
C22   C24   A    
C16   H3    S    
Cu2   O8    S    
C23   O5    A    
C44   N2    A    
C63   O13   D    
C83   H79   S    
C62   H39   S    
C69   H50   S    
Cu2   O2    S    
C39   C40   A    
C53   C54   S    
C73   H58   S    
C43   H13   S    
O9    C53   S    
C59   H30   S    
C1    C27   S    
C14   C15   A    
C39   C48   S    
C40   C41   A    
C11   O23   S    
C6    C64   S    
C23   O6    A    
C55   H22   S    
C21   C22   A    
Cu1   N1    S    
C26   H6    S    
C8    C49   A    
C78   C79   S    
C46   N2    A    
C36   N1    A    
O15   C65   S    
Cu1   O1    S    
