data_mof_unit_61173.cif
_audit_creation_date              2012-12-11T20:44:38-0500
_audit_creation_method            fapswitch 2.2
_symmetry_space_group_name_H-M    P1
_symmetry_Int_Tables_number       1
_space_group_crystal_system       triclinic
_cell_length_a                    8.233866
_cell_length_b                    19.14654
_cell_length_c                    18.795154
_cell_angle_alpha                 100.733157
_cell_angle_beta                  93.553146
_cell_angle_gamma                 91.989726
_cell_volume                      2902.38741359

loop_
_atom_site_label
_atom_site_type_symbol
_atom_type_description
_atom_site_fract_x
_atom_site_fract_y
_atom_site_fract_z
_atom_type_partial_charge
Ba1   Ba    Ba6+2 0.153030 0.533740 0.468880 1.643525
Ba2   Ba    Ba6+2 0.657140 0.466250 0.531070 1.638720
C1    C     C_3   0.376500 0.690120 0.199321 -0.296458
C2    C     C_R   0.985240 0.273187 0.475388 0.064350
C3    C     C_R   0.136100 0.190507 0.564326 -0.158070
C4    C     C_3   0.917762 0.715155 0.320682 0.492057
C5    C     C_R   0.203943 0.257556 0.560175 0.003082
C6    C     C_R   0.666046 0.811691 0.442202 -0.145582
C7    C     C_R   0.595422 0.745830 0.448549 0.022141
C8    C     C_R   0.855391 0.803228 0.542794 -0.153100
C9    C     C_R   0.820375 0.728689 0.529331 0.052907
C10   C     C_R   0.016577 0.155433 0.510472 0.002955
C11   C     C_R   0.116832 0.301352 0.522706 -0.247323
C12   C     C_3   0.414888 0.678710 0.276340 0.322431
C13   C     C_R   0.789047 0.846603 0.494358 0.006143
C14   C     C_R   0.681847 0.701960 0.486201 -0.234310
C15   C     C_R   0.234117 0.041222 0.546290 -0.081918
C16   C     C_3   0.921993 0.788434 0.299865 0.315832
C17   C     C_R   0.333172 0.994425 0.574621 -0.070980
C18   C     C_R   0.283662 0.923626 0.564346 -0.070319
C19   C     C_R   0.131978 0.901685 0.529927 -0.083745
C20   C     C_R   0.012973 0.950247 0.517953 0.017144
C21   C     C_R   0.067487 0.023655 0.524046 0.032562
C22   C     C_R   0.847094 0.925743 0.497076 -0.017161
C23   C     C_3   0.504948 0.685777 0.646165 0.313310
C24   C     C_R   0.739011 0.978179 0.478665 0.032405
C25   C     C_R   0.793735 0.051560 0.484634 0.016220
C26   C     C_R   0.959183 0.076109 0.506281 -0.019281
C27   C     C_R   0.572481 0.960801 0.455853 -0.084419
C28   C     C_3   0.781439 0.364420 0.304496 0.317413
C29   C     C_R   0.474228 0.007447 0.426895 -0.080159
C30   C     C_R   0.524128 0.078116 0.436872 -0.068799
C31   C     C_R   0.675362 0.100118 0.471715 -0.080394
C32   C     C_2   0.610530 0.517983 0.297537 -0.268900
C33   C     C_3   0.747414 0.514262 0.247212 -0.014960
C34   C     C_3   0.515389 0.766437 0.668028 -0.391935
C35   C     C_2   0.682957 0.519642 0.171363 -0.129537
C36   C     C_2   0.524975 0.499722 0.149410 -0.080443
C37   C     C_2   0.415293 0.479216 0.203840 -0.136950
C38   C     C_1   0.471217 0.483592 0.272328 0.062620
C39   C     C_R   0.347604 0.491541 0.932818 0.457583
C40   C     C_3   0.740712 0.334717 0.224183 -0.388712
C41   C     C_R   0.461420 0.497556 0.073172 0.459247
C42   C     C_R   0.384150 0.519528 0.809771 -0.129472
C43   C     C_R   0.333397 0.514474 0.736691 0.031366
C44   C     C_R   0.088418 0.448004 0.753452 0.012560
C45   C     C_3   0.893095 0.275699 0.682957 0.366038
C46   C     C_R   0.137604 0.452879 0.827219 -0.141535
C47   C     C_R   0.288589 0.487579 0.855766 -0.066803
C48   C     C_R   0.189875 0.476252 0.708274 -0.279735
C49   C     C_3   0.009871 0.624342 0.692064 0.309941
C50   C     C_3   0.028806 0.643845 0.774504 -0.384528
C51   C     C_3   0.304347 0.317983 0.371168 0.318429
C52   C     C_3   0.291349 0.237253 0.350466 -0.399893
C53   C     C_3   0.101151 0.874809 0.274756 0.306544
C54   C     C_3   0.265387 0.887774 0.245520 -0.316067
C55   C     C_3   0.861245 0.203998 0.704696 -0.361571
C56   C     C_3   0.423620 0.322097 0.726887 0.364294
C57   C     C_3   0.456639 0.302987 0.801272 -0.345852
C58   C     C_R   0.953624 0.198473 0.461146 -0.155711
H1    H     H_    0.373523 0.623606 0.279066 0.061182
H2    H     H_    0.186159 0.337528 0.388794 0.005445
H3    H     H_    0.398654 0.332897 0.416728 0.084719
H4    H     H_    0.243142 0.683203 0.185277 0.168087
H5    H     H_    0.191250 0.220261 0.307691 0.125286
H6    H     H_    0.265793 0.213999 0.398621 0.061205
H7    H     H_    0.407868 0.217069 0.329990 0.122442
H8    H     H_    0.548903 0.685752 0.288552 -0.045498
H9    H     H_    0.439502 0.650886 0.160668 0.064836
H10   H     H_    0.626821 0.667513 0.631491 0.011735
H11   H     H_    0.416407 0.671260 0.598179 0.068985
H12   H     H_    0.664165 0.284702 0.217635 0.132699
H13   H     H_    0.607083 0.783174 0.714516 0.127844
H14   H     H_    0.551894 0.790464 0.621717 0.053459
H15   H     H_    0.394830 0.785998 0.683753 0.125914
H16   H     H_    0.419149 0.744508 0.194314 0.105325
H17   H     H_    0.820127 0.790990 0.258813 0.014171
H18   H     H_    0.833370 0.273991 0.627890 0.076182
H19   H     H_    0.026560 0.284730 0.682246 -0.065955
H20   H     H_    0.728801 0.193720 0.708127 0.156363
H21   H     H_    0.906069 0.160727 0.663901 0.068877
H22   H     H_    0.925244 0.203442 0.758351 0.109127
H23   H     H_    0.672115 0.373001 0.198167 0.067025
H24   H     H_    0.289664 0.323724 0.716814 -0.082004
H25   H     H_    0.481084 0.375531 0.727360 0.079478
H26   H     H_    0.404008 0.342733 0.843249 0.074319
H27   H     H_    0.589704 0.302355 0.814575 0.155936
H28   H     H_    0.029527 0.711377 0.355653 0.093348
H29   H     H_    0.399956 0.249640 0.801916 0.105780
H30   H     H_    0.873898 0.175552 0.414095 0.065088
H31   H     H_    0.181848 0.166258 0.608556 0.068466
H32   H     H_    0.621703 0.834677 0.396844 0.052658
H33   H     H_    0.939553 0.825513 0.588452 0.066353
H34   H     H_    0.854577 0.323418 0.196283 0.121503
H35   H     H_    0.158640 0.356177 0.526334 0.065534
H36   H     H_    0.638482 0.647524 0.483759 0.063465
H37   H     H_    0.296650 0.088730 0.538140 0.082048
H38   H     H_    0.456703 0.011144 0.595592 0.078737
H39   H     H_    0.367887 0.884906 0.577332 0.077110
H40   H     H_    0.810192 0.709841 0.351777 -0.203514
H41   H     H_    0.110898 0.846139 0.511682 0.131946
H42   H     H_    0.508520 0.913900 0.464432 0.080396
H43   H     H_    0.350782 0.990802 0.405739 0.070804
H44   H     H_    0.440406 0.116706 0.423285 0.081507
H45   H     H_    0.127929 0.608256 0.671168 0.006259
H46   H     H_    0.696443 0.155749 0.489553 0.132241
H47   H     H_    0.767686 0.533502 0.133624 0.111437
H48   H     H_    0.290036 0.460998 0.187157 0.116871
H49   H     H_    0.496895 0.549172 0.830551 0.105766
H50   H     H_    0.058562 0.430174 0.861760 0.103497
H51   H     H_    0.622845 0.550971 0.351423 0.060447
H52   H     H_    0.903965 0.827984 0.349866 -0.075184
H53   H     H_    0.151347 0.472957 0.651598 0.062431
H54   H     H_    0.667136 0.379146 0.330164 0.020756
H55   H     H_    0.866428 0.411745 0.310796 0.032380
H56   H     H_    0.918284 0.579385 0.676419 0.074283
H57   H     H_    0.105122 0.904408 0.331877 0.027476
H58   H     H_    0.004837 0.895881 0.241368 0.018813
H59   H     H_    0.266149 0.859815 0.188211 0.118707
H60   H     H_    0.288894 0.945685 0.248086 0.051374
H61   H     H_    0.363741 0.867981 0.278684 0.130352
H62   H     H_    0.126245 0.686305 0.791656 0.129165
H63   H     H_    0.061258 0.596873 0.797998 0.070116
H64   H     H_    0.912375 0.663141 0.795873 0.130173
N1    N     N_R   0.500501 0.518234 0.956605 -0.242983
N2    N     N_R   0.556227 0.521142 0.025157 -0.243276
N3    N     N_R   0.308150 0.471021 0.049592 -0.245308
N4    N     N_R   0.252422 0.467954 0.980827 -0.244261
O1    O     O_2   0.114910 0.675240 0.550030 -0.467575
O2    O     O_2   0.755769 0.461161 0.748707 -0.478060
O3    O     O_3   0.829079 0.329044 0.733582 -0.592706
O4    O     O_3   0.867890 0.586390 0.543600 -0.490468
O5    O     O_3   0.439510 0.461180 0.412500 -0.493375
O6    O     O_2   0.623160 0.539640 0.674980 -0.455755
O7    O     O_3   0.454651 0.656164 0.704600 -0.638889
O8    O     O_2   0.528888 0.243144 0.534464 -0.508803
O9    O     O_3   0.490048 0.271129 0.674299 -0.591782
O10   O     O_3   0.355250 0.627820 0.418550 -0.476312
O11   O     O_2   0.262766 0.755171 0.461364 -0.512931
O12   O     O_3   0.345198 0.346102 0.310635 -0.634798
O13   O     O_3   0.960018 0.684046 0.665193 -0.634693
O14   O     O_3   0.332406 0.727769 0.324633 -0.568054
O15   O     O_2   0.187140 0.460320 0.325000 -0.464164
O16   O     O_3   0.941730 0.590880 0.379870 -0.489992
O17   O     O_2   0.083022 0.552421 0.256548 -0.483650
O18   O     O_3   0.072797 0.801069 0.271425 -0.609637
O19   O     O_3   0.906376 0.661585 0.258305 -0.615828
O20   O     O_2   0.695400 0.324710 0.449950 -0.476771
O21   O     O_3   0.942410 0.413600 0.456340 -0.488424
O22   O     O_3   0.455050 0.372170 0.581390 -0.470003
O23   O     O_3   0.856226 0.311798 0.335115 -0.634889
O24   O     O_3   0.370790 0.538810 0.587440 -0.482883
O25   O     O_3   0.868570 0.409120 0.620070 -0.487599
P1    P     P_3+3 0.943060 0.664750 0.570190 0.977953
P2    P     P_3+3 0.360910 0.439170 0.334000 0.979399
P3    P     P_3+3 0.919556 0.578771 0.285069 0.966748
P4    P     P_3+3 0.867240 0.335250 0.429760 0.977145
P5    P     P_3+3 0.886021 0.411994 0.714265 0.955328
P6    P     P_3+3 0.387859 0.716187 0.412739 0.934750
P7    P     P_3+3 0.443227 0.563370 0.678320 0.945311
P8    P     P_3+3 0.417678 0.284415 0.588751 0.934264

loop_
_geom_bond_atom_site_label_1
_geom_bond_atom_site_label_2
_ccdc_geom_bond_type
C42   C47   A    
Ba2   O22   S    
O6    P7    D    
C53   C54   S    
O24   P7    S    
C51   O12   S    
C51   H3    S    
C46   H50   S    
C17   C18   A    
C39   N4    A    
C45   H19   S    
O14   P6    S    
Ba1   O4    S    
C12   O14   S    
C52   H5    S    
C51   C52   S    
C25   C31   A    
C5    P8    S    
C24   C25   A    
Ba2   O6    S    
C11   H35   S    
C32   C38   D    
O23   P4    S    
C1    H9    S    
C7    C14   A    
C16   H52   S    
C35   H47   S    
Ba1   O1    S    
C8    C13   A    
Ba2   P4    S    
C28   H54   S    
C36   C37   S    
C32   C33   S    
C50   H63   S    
O13   P1    S    
C7    P6    S    
C55   H22   S    
Ba2   O20   S    
C44   P5    S    
C2    C11   A    
C4    H28   S    
Ba1   O24   S    
Ba1   Ba2   S    
C57   H29   S    
O25   P5    S    
Ba1   P2    S    
C9    P1    S    
O17   P3    D    
C50   H62   S    
O10   P6    S    
C29   C30   A    
C6    C7    A    
Ba2   O4    S    
C30   H44   S    
C38   P2    S    
Ba1   O21   S    
C23   H11   S    
C28   H55   S    
C19   H41   S    
C42   H49   S    
Ba2   O21   S    
O11   P6    D    
C40   H34   S    
C19   C20   A    
C32   H51   S    
C54   H60   S    
C55   H20   S    
C43   P7    S    
O4    P1    S    
Ba1   O5    S    
C41   N2    A    
C39   C47   S    
C17   H38   S    
O8    P8    D    
C49   O13   S    
Ba2   O24   S    
C37   H48   S    
C4    C16   S    
C44   C46   A    
C14   H36   S    
Ba2   O5    S    
C40   H23   S    
C49   C50   S    
C39   N1    A    
C33   P3    S    
C3    C10   A    
C8    C9    A    
C41   N3    A    
C37   C38   D    
C3    C5    A    
C53   O18   S    
C52   H7    S    
O12   P2    S    
C8    H33   S    
C56   C57   S    
C1    H4    S    
C12   H1    S    
C45   O3    S    
C29   H43   S    
O16   P3    S    
O3    P5    S    
C35   C36   D    
Ba1   O15   S    
C34   H15   S    
C56   H24   S    
C45   C55   S    
C9    C14   A    
O15   P2    D    
C2    P4    S    
C49   H45   S    
C2    C58   A    
C40   H12   S    
C15   C21   A    
C21   C26   A    
O19   P3    S    
C3    H31   S    
C1    C12   S    
C34   H14   S    
C24   C27   A    
C6    H32   S    
C56   O9    S    
C46   C47   A    
C10   C26   S    
Ba2   O25   S    
N1    N2    A    
C54   H59   S    
C55   H21   S    
N3    N4    A    
C56   H25   S    
C42   C43   A    
C53   H57   S    
O22   P8    S    
C13   C22   S    
O7    P7    S    
C33   C35   S    
O5    P2    S    
C31   H46   S    
C22   C24   A    
C16   O18   S    
C52   H6    S    
C58   H30   S    
C6    C13   A    
C44   C48   A    
C49   H56   S    
C1    H16   S    
O2    P5    D    
C48   H53   S    
C30   C31   A    
C57   H26   S    
C36   C41   S    
C27   C29   A    
Ba1   O16   S    
C54   H61   S    
O9    P8    S    
C4    O19   S    
C50   H64   S    
C28   O23   S    
O1    P1    D    
C18   H39   S    
C15   H37   S    
C43   C48   A    
C16   H17   S    
C15   C17   A    
C27   H42   S    
C20   C22   A    
O20   P4    D    
Ba1   P1    S    
C23   O7    S    
C57   H27   S    
C34   H13   S    
C23   C34   S    
C10   C58   A    
C5    C11   A    
C18   C19   A    
C51   H2    S    
C25   C26   A    
C12   H8    S    
C20   C21   A    
C28   C40   S    
C23   H10   S    
C45   H18   S    
O21   P4    S    
Ba1   O10   S    
C4    H40   S    
C53   H58   S    
