data_mof_unit_56868.cif
_audit_creation_date              2012-12-10T19:16:19-0500
_audit_creation_method            fapswitch 2.2
_symmetry_space_group_name_H-M    P1
_symmetry_Int_Tables_number       1
_space_group_crystal_system       triclinic
_cell_length_a                    10.622558
_cell_length_b                    9.717981
_cell_length_c                    27.692627
_cell_angle_alpha                 89.734861
_cell_angle_beta                  89.385952
_cell_angle_gamma                 89.936094
_cell_volume                      2858.50841175

loop_
_atom_site_label
_atom_site_type_symbol
_atom_type_description
_atom_site_fract_x
_atom_site_fract_y
_atom_site_fract_z
_atom_type_partial_charge
C1    C     C_R   0.257656 0.499775 0.499622 0.870241
C2    C     C_R   0.432124 0.388258 0.280225 -0.080345
C3    C     C_R   0.493543 0.489403 0.252929 0.240030
C4    C     C_R   0.490949 0.469778 0.101747 -0.055123
C5    C     C_R   0.380799 0.506460 0.127362 -0.030654
C6    C     C_R   0.271994 0.541000 0.102091 -0.134793
C7    C     C_R   0.602185 0.440891 0.127079 -0.029709
C8    C     C_R   0.499988 0.499821 0.353396 -0.133375
C9    C     C_R   0.498166 0.497573 0.646779 -0.131334
C10   C     C_R   0.373636 0.466716 0.975110 -0.047600
C11   C     C_R   0.606126 0.455488 0.974374 0.058643
C12   C     C_R   0.501546 0.500321 0.406026 0.914730
C13   C     C_R   0.490210 0.464930 0.949486 0.039202
C14   C     C_R   0.260581 0.449454 0.948623 0.354479
C15   C     C_R   0.263162 0.457012 0.898433 -0.137916
C16   C     C_R   0.376846 0.472438 0.873219 -0.102688
C17   C     C_R   0.490989 0.472263 0.898527 -0.050695
C18   C     C_R   0.605985 0.479134 0.872790 -0.019770
C19   C     C_R   0.604390 0.488578 0.822420 0.568246
C20   C     C_R   0.379718 0.481329 0.822785 0.603610
C21   C     C_R   0.495910 0.367771 0.721645 0.448448
C22   C     C_R   0.498333 0.371075 0.671506 -0.220977
C23   C     C_R   0.742506 0.499678 0.499478 0.846528
C24   C     C_R   0.495703 0.621089 0.672844 -0.166745
C25   C     C_R   0.493333 0.617857 0.723032 -0.138871
C26   C     C_R   0.493393 0.491559 0.747371 0.211131
C27   C     C_R   0.376024 0.484855 0.025798 0.064741
C28   C     C_R   0.490336 0.464159 0.050768 0.077841
C29   C     C_R   0.604595 0.441471 0.025193 0.044304
C30   C     C_R   0.270444 0.532744 0.052064 -0.133579
C31   C     C_R   0.712219 0.407294 0.101641 -0.116649
C32   C     C_R   0.719890 0.463361 0.947602 -0.185599
C33   C     C_R   0.719565 0.475750 0.897693 -0.096921
C34   C     C_R   0.499809 0.499579 0.594027 0.939498
C35   C     C_R   0.713854 0.408379 0.051509 -0.199887
C36   C     C_3   0.070591 0.565049 0.546372 -0.343597
C37   C     C_3   0.071635 0.348739 0.496014 -0.368609
C38   C     C_3   0.926218 0.564434 0.546429 -0.413527
C39   C     C_3   0.928771 0.348646 0.495832 -0.399713
C40   C     C_3   0.073514 0.581469 0.455080 -0.413554
C41   C     C_3   0.121252 0.498821 0.499257 0.124469
C42   C     C_3   0.878762 0.498663 0.499178 0.147924
C43   C     C_3   0.928958 0.581722 0.455105 -0.356451
C44   C     C_3   0.408520 0.081614 0.463830 -0.254163
C45   C     C_3   0.408940 0.919473 0.463670 -0.245594
C46   C     C_3   0.625186 0.081226 0.485398 -0.360276
C47   C     C_3   0.625328 0.918843 0.485603 -0.348410
C48   C     C_3   0.467222 0.081008 0.547573 0.325236
C49   C     C_3   0.466685 0.917863 0.547521 0.320523
C50   C     C_R   0.383735 0.512376 0.177782 0.526019
C51   C     C_R   0.600513 0.446748 0.177511 0.523926
C52   C     C_R   0.558210 0.595943 0.275555 -0.127916
C53   C     C_R   0.562196 0.601983 0.325722 0.355947
C54   C     C_R   0.435555 0.393186 0.330245 -0.276391
H1    H     H_    0.387089 0.314046 0.350907 0.167184
H2    H     H_    0.606450 0.673123 0.253940 0.178590
H3    H     H_    0.798301 0.382007 0.120365 0.200577
H4    H     H_    0.810923 0.465173 0.964448 0.184891
H5    H     H_    0.495612 0.719832 0.654563 0.200225
H6    H     H_    0.809069 0.482329 0.878688 0.206777
H7    H     H_    0.491646 0.713234 0.743099 0.182016
H8    H     H_    0.801503 0.379936 0.034224 0.179765
H9    H     H_    0.104183 0.672980 0.549319 0.231065
H10   H     H_    0.107628 0.298475 0.462521 0.170918
H11   H     H_    0.105444 0.507332 0.578393 0.194949
H12   H     H_    0.104301 0.286924 0.527408 0.236447
H13   H     H_    0.890441 0.505457 0.578289 0.178874
H14   H     H_    0.893616 0.286224 0.527010 0.186414
H15   H     H_    0.382532 0.305514 0.262586 0.158749
H16   H     H_    0.890929 0.671947 0.549812 0.184946
H17   H     H_    0.895374 0.298974 0.462133 0.180529
H18   H     H_    0.108072 0.689517 0.456282 0.188999
H19   H     H_    0.109763 0.534817 0.421011 0.170492
H20   H     H_    0.894412 0.689875 0.456492 0.193340
H21   H     H_    0.894489 0.535701 0.420961 0.188494
H22   H     H_    0.431557 0.120162 0.426911 0.164661
H23   H     H_    0.432958 0.882506 0.426750 0.190582
H24   H     H_    0.312009 0.119537 0.472058 0.191890
H25   H     H_    0.312481 0.880791 0.471513 0.191647
H26   H     H_    0.653843 0.120025 0.449053 0.201139
H27   H     H_    0.654733 0.880358 0.449452 0.234803
H28   H     H_    0.540244 0.114612 0.573512 0.067709
H29   H     H_    0.538957 0.882761 0.573661 0.067625
H30   H     H_    0.697552 0.118581 0.510909 0.161425
H31   H     H_    0.697342 0.881190 0.511378 0.158341
H32   H     H_    0.188028 0.576461 0.120798 0.198700
H33   H     H_    0.500441 0.274655 0.652062 0.209407
H34   H     H_    0.175631 0.445891 0.879085 0.224085
H35   H     H_    0.187668 0.571442 0.034317 0.198640
N1    N     N_R   0.492434 0.482367 0.201571 -0.350649
N2    N     N_R   0.492361 0.489216 0.798757 -0.345419
N3    N     N_3   0.499750 0.138610 0.498940 -0.083713
N4    N     N_3   0.499750 0.861390 0.498940 -0.086859
O1    O     O_R   0.314910 0.616040 0.499990 -0.593864
O2    O     O_R   0.314910 0.383960 0.499990 -0.596271
O3    O     O_R   0.500140 0.616020 0.428740 -0.583105
O4    O     O_R   0.500140 0.383980 0.428740 -0.636671
O5    O     O_R   0.685320 0.616040 0.499970 -0.632784
O6    O     O_R   0.685320 0.383960 0.499970 -0.642221
O7    O     O_R   0.500090 0.616050 0.571230 -0.597086
O8    O     O_R   0.500090 0.383950 0.571230 -0.594797
O9    O     O_2   0.279382 0.548686 0.202908 -0.541728
O10   O     O_2   0.271260 0.481223 0.797821 -0.511870
O11   O     O_2   0.705739 0.417047 0.202423 -0.537244
O12   O     O_2   0.713564 0.495845 0.797133 -0.522716
Zn1   Zn    Zn3+2 0.500150 0.654960 0.499980 0.977313
Zn2   Zn    Zn3+2 0.500150 0.345040 0.499980 0.956990
Cl1   Cl    Cl    0.323508 0.154640 0.570935 -0.560967
Cl2   Cl    Cl    0.321959 0.845065 0.570354 -0.568737
Cl3   Cl    Cl    0.496526 0.207805 0.751658 -0.547879
Cl4   Cl    Cl    0.117309 0.390497 0.974335 -0.652757
Cl5   Cl    Cl    0.652112 0.734025 0.351820 -0.656149

loop_
_geom_bond_atom_site_label_1
_geom_bond_atom_site_label_2
_ccdc_geom_bond_type
C10   C27   A    
O8    Zn2   S    
C23   O6    A    
C21   C26   A    
C38   H16   S    
C39   H14   S    
C32   H4    S    
C45   N4    S    
C21   Cl3   S    
C20   O10   S    
C44   C45   S    
C23   C42   S    
C3    N1    S    
C47   H31   S    
C28   C29   A    
C38   C42   S    
C4    C7    A    
C51   N1    A    
C5    C6    A    
C9    C22   A    
C46   N3    S    
C15   C16   A    
C40   H19   S    
C18   C19   A    
C44   H22   S    
C46   C47   S    
C50   N1    A    
C40   C43   S    
O1    Zn1   S    
C16   C17   A    
C34   O7    A    
C8    C12   S    
C26   N2    S    
C36   H9    S    
C44   N3    S    
C16   C20   A    
C43   H20   S    
C21   C22   A    
C27   C30   A    
C36   C41   S    
C30   H35   S    
C4    C28   A    
C39   C42   S    
C43   H21   S    
C14   Cl4   S    
C20   N2    A    
C34   O8    A    
C7    C31   A    
C24   C25   A    
C2    C54   A    
C8    C54   A    
C36   H11   S    
C1    O1    A    
C25   C26   A    
N4    Zn1   S    
N3    Zn2   S    
C1    O2    A    
C37   H12   S    
C17   C18   A    
C47   N4    S    
C45   H25   S    
C25   H7    S    
C22   H33   S    
C12   O4    A    
O2    Zn2   S    
C46   H30   S    
C19   O12   S    
C53   Cl5   S    
C1    C41   S    
C48   C49   S    
C6    C30   A    
C11   C32   A    
C50   O9    S    
C33   H6    S    
C10   C14   A    
C9    C34   S    
C31   C35   A    
C5    C50   A    
C42   C43   S    
C2    H15   S    
C37   H10   S    
C52   C53   A    
C49   Cl2   S    
O3    Zn1   S    
C54   H1    S    
C40   C41   S    
C40   H18   S    
C4    C5    A    
C10   C13   A    
C6    H32   S    
C8    C53   A    
C3    C52   A    
C9    C24   A    
O6    Zn2   S    
C29   C35   A    
O7    Zn1   S    
O5    Zn1   S    
C13   C17   A    
C32   C33   A    
C49   H29   S    
C44   H24   S    
C2    C3    A    
C51   O11   S    
C7    C51   A    
C37   C39   S    
C46   H26   S    
C11   C13   A    
C31   H3    S    
C48   Cl1   S    
C24   H5    S    
C36   C38   S    
C48   H28   S    
C35   H8    S    
C47   H27   S    
C37   C41   S    
C18   C33   A    
C19   N2    A    
O4    Zn2   S    
C23   O5    A    
C38   H13   S    
C11   C29   A    
C48   N3    S    
C27   C28   A    
C39   H17   S    
C14   C15   A    
C12   O3    A    
C45   H23   S    
C49   N4    S    
C52   H2    S    
C15   H34   S    
