data_mof_unit_26445.cif
_audit_creation_date              2013-03-05T15:52:43-0500
_audit_creation_method            fapswitch 2.2
_symmetry_space_group_name_H-M    P1
_symmetry_Int_Tables_number       1
_space_group_crystal_system       triclinic
_cell_length_a                    9.938805
_cell_length_b                    10.610333
_cell_length_c                    13.078687
_cell_angle_alpha                 91.425983
_cell_angle_beta                  69.402276
_cell_angle_gamma                 89.967176
_cell_volume                      1290.56888828

loop_
_atom_site_label
_atom_site_type_symbol
_atom_site_description
_atom_site_fract_x
_atom_site_fract_y
_atom_site_fract_z
_atom_type_partial_charge
O1    O     O_R   0.385310 0.683220 0.500000 -0.623733
O2    O     O_R   0.614640 0.683250 0.500010 -0.631709
C1    C     C_R   0.501077 0.739204 0.497524 0.873622
O3    O     O_R   0.328400 0.499950 0.653610 -0.612863
O4    O     O_R   0.557730 0.499970 0.653620 -0.624904
C2    C     C_R   0.419462 0.497071 0.704359 0.854212
Zn1   Zn    Zn3+2 0.346880 0.499980 0.499990 0.959009
Zn2   Zn    Zn3+2 0.653120 0.500020 0.500010 0.942300
O5    O     O_R   0.385360 0.316750 0.499990 -0.591129
O6    O     O_R   0.614690 0.316780 0.500000 -0.618269
O7    O     O_R   0.442270 0.500030 0.346380 -0.625218
O8    O     O_R   0.671600 0.500050 0.346390 -0.603830
C3    C     C_R   0.501306 0.260657 0.497396 0.853817
C4    C     C_R   0.580705 0.493325 0.295580 0.823712
C5    C     C_R   0.746237 0.323458 0.023014 -0.162774
H1    H     H_    0.825723 0.250910 0.984606 0.206227
C6    C     C_R   0.630178 0.463502 0.178500 -0.079226
C7    C     C_R   0.245758 0.570022 0.882115 -0.145083
C8    C     C_R   0.216440 0.598685 0.992026 -0.141020
C9    C     C_R   0.311461 0.560231 0.042316 -0.195123
C10   C     C_R   0.435549 0.487026 0.983723 0.101057
C11   C     C_R   0.453067 0.444099 0.877171 0.029385
C12   C     C_R   0.541992 0.454186 0.027537 0.041399
C13   C     C_R   0.650825 0.363930 0.972507 -0.016735
C14   C     C_R   0.657769 0.312260 0.870553 0.282410
C15   C     C_R   0.558176 0.351509 0.825063 -0.262765
C16   C     C_R   0.543267 0.510140 0.124694 -0.256524
C17   C     C_R   0.734594 0.369060 0.127163 0.130425
C18   C     C_R   0.367037 0.497132 0.823376 -0.094626
H2    H     H_    0.471222 0.587263 0.163871 0.142831
H3    H     H_    0.177229 0.609039 0.842045 0.180307
H4    H     H_    0.282845 0.585971 0.127684 0.137151
H5    H     H_    0.122298 0.654617 0.037596 0.166183
H6    H     H_    0.564627 0.309313 0.747307 0.185004
H7    H     H_    0.536691 0.889978 0.645408 0.154797
C19   C     C_R   0.479032 0.862963 0.308617 -0.176149
H8    H     H_    0.480877 0.761114 0.304654 0.138293
C20   C     C_R   0.468102 0.926125 0.219519 -0.116354
H9    H     H_    0.460246 0.873052 0.150088 0.146317
C21   C     C_R   0.468757 0.057342 0.219352 -0.114555
H10   H     H_    0.461563 0.106305 0.149769 0.148949
C22   C     C_R   0.479977 0.125753 0.308397 -0.199945
H11   H     H_    0.482319 0.227372 0.304326 0.135189
C23   C     C_R   0.490367 0.063069 0.399631 0.095841
C24   C     C_R   0.489976 0.931010 0.399739 0.101694
C25   C     C_R   0.504512 0.871313 0.490515 -0.099415
C26   C     C_R   0.524214 0.937929 0.576928 -0.144399
H12   H     H_    0.536622 0.118661 0.645364 0.172275
C27   C     C_R   0.524326 0.066665 0.576872 -0.136571
C28   C     C_R   0.504981 0.128140 0.490371 -0.110366
H13   H     H_    0.928288 0.350474 0.385388 0.150441
C29   C     C_R   0.797648 0.670513 0.639180 -0.216823
H14   H     H_    0.688657 0.677732 0.644683 0.217842
C30   C     C_R   0.836510 0.753429 0.707828 -0.242841
H15   H     H_    0.756541 0.818871 0.759932 0.211021
C31   C     C_R   0.975816 0.752258 0.709642 0.325030
C32   C     C_R   0.075691 0.665673 0.641456 -0.255852
H16   H     H_    0.179480 0.663979 0.647648 0.229627
C33   C     C_R   0.040614 0.582630 0.569147 0.127927
C34   C     C_R   0.896709 0.583797 0.568408 0.194911
N1    N     N_R   0.856860 0.501200 0.500990 -0.109153
C35   C     C_R   0.958238 0.418386 0.436202 -0.105112
H17   H     H_    0.179493 0.353029 0.382405 0.143579
C36   C     C_R   0.101520 0.419219 0.435336 -0.069408
N2    N     N_R   0.142450 0.501280 0.501020 -0.105506
C37   C     C_3   0.831340 0.310380 0.180481 -0.408798
C38   C     C_3   0.967933 0.387246 0.157933 -0.812701
H18   H     H_    0.022974 0.396564 0.068416 0.275215
H19   H     H_    0.942176 0.482636 0.197157 0.265749
H20   H     H_    0.042722 0.338576 0.190423 0.233655
H21   H     H_    0.775232 0.299061 0.269335 0.215615
H22   H     H_    0.862984 0.213054 0.146952 0.214036
N3    N     N_R   0.016086 0.838870 0.780295 0.221055
O9    O     O_R   0.920080 0.911494 0.850477 -0.349096
O10   O     O_R   0.149685 0.848583 0.773033 -0.422207
N4    N     N_R   0.768026 0.223673 0.809792 0.215284
O11   O     O_R   0.735155 0.126039 0.761434 -0.394194
O12   O     O_R   0.902698 0.253050 0.784863 -0.368420

loop_
_geom_bond_atom_site_label_1
_geom_bond_atom_site_label_2
_geom_bond_distance
_ccdc_geom_bond_type
C11   C18   1.408967 A    
N3    O9    1.301714 A    
C8    C9    1.393159 A    
H7    C26   1.084954 S    
C5    C17   1.399697 A    
C26   C27   1.365949 A    
C24   C25   1.410535 A    
C23   C24   1.401232 A    
Zn1   O7    1.896017 S    
C19   H8    1.080444 S    
N4    O12   1.301329 A    
C20   H9    1.082715 S    
O7    C4    1.301489 A    
C32   C33   1.408227 A    
C5    H1    1.081571 S    
C31   C32   1.399980 A    
C7    C8    1.388241 A    
O5    C3    1.286083 A    
C35   C36   1.420141 A    
C29   C34   1.409972 A    
C25   C26   1.389720 A    
C15   H6    1.081738 S    
C37   H22   1.112493 S    
C12   C13   1.421912 A    
C12   C16   1.393220 A    
Zn2   N1    2.029519 S    
C21   C22   1.394625 A    
C37   C38   1.525349 S    
C33   C34   1.433719 A    
C10   C11   1.406189 A    
C16   H2    1.079436 S    
N3    O10   1.301782 A    
C4    C6    1.460344 S    
H13   C35   1.079398 S    
C22   C23   1.415242 A    
O3    Zn1   1.952126 S    
C29   C30   1.390801 A    
C30   C31   1.393105 A    
C38   H18   1.111260 S    
C6    C16   1.389508 A    
C13   C14   1.407896 A    
O3    C2    1.297781 A    
C8    H5    1.082710 S    
C14   C15   1.390471 A    
H17   C36   1.081995 S    
C34   N1    1.382035 A    
O1    C1    1.285788 A    
C17   C37   1.513656 S    
Zn1   N2    2.027127 S    
C37   H21   1.107662 S    
Zn2   O8    1.952128 S    
C19   C24   1.414868 A    
C7    C18   1.399658 A    
N4    O11   1.301168 A    
C21   H10   1.082816 S    
O8    C4    1.297265 A    
C10   C12   1.415991 A    
C22   H11   1.080714 S    
C29   H14   1.062652 S    
C9    H4    1.078590 S    
C23   C28   1.409527 A    
Zn1   O5    1.981177 S    
C30   H15   1.083029 S    
C5    C13   1.405122 A    
C31   N3    1.441175 S    
O1    Zn1   1.981619 S    
C6    C17   1.416674 A    
O2    Zn2   1.981176 S    
O6    C3    1.285470 A    
O4    Zn2   1.896017 S    
C1    C25   1.406641 S    
C14   N4    1.436917 S    
C36   N2    1.367714 A    
C38   H20   1.110161 S    
C19   C20   1.395237 A    
O2    C1    1.285872 A    
C33   N2    1.374605 A    
C20   C21   1.392324 A    
C32   H16   1.062913 S    
O4    C2    1.299692 A    
H12   C27   1.083627 S    
N1    C35   1.366197 A    
C3    C28   1.406384 S    
C2    C18   1.457298 S    
C9    C10   1.419809 A    
Zn2   O6    1.981620 S    
C27   C28   1.389939 A    
C11   C15   1.409062 A    
C7    H3    1.082378 S    
C38   H19   1.111111 S    
