data_mof_unit_5776.cif
_audit_creation_date              2012-12-10T17:34:57-0500
_audit_creation_method            fapswitch 2.2
_symmetry_space_group_name_H-M    P1
_symmetry_Int_Tables_number       1
_space_group_crystal_system       triclinic
_cell_length_a                    12.399179
_cell_length_b                    13.267305
_cell_length_c                    13.813018
_cell_angle_alpha                 107.179528
_cell_angle_beta                  73.425038
_cell_angle_gamma                 117.454148
_cell_volume                      1896.40005016

loop_
_atom_site_label
_atom_site_type_symbol
_atom_type_description
_atom_site_fract_x
_atom_site_fract_y
_atom_site_fract_z
_atom_type_partial_charge
C1    C     C_R   0.144270 0.713801 0.514936 0.863600
C2    C     C_1   0.971172 0.502539 0.791812 -0.181998
C3    C     C_R   0.721357 0.985670 0.328763 0.462919
C4    C     C_R   0.772840 0.164020 0.456460 -0.236315
C5    C     C_R   0.195971 0.908088 0.625614 0.319842
C6    C     C_R   0.266721 0.028220 0.641053 0.307165
C7    C     C_R   0.380544 0.072171 0.576027 0.423162
C8    C     C_R   0.429304 0.995214 0.503962 -0.078374
C9    C     C_R   0.344149 0.881652 0.471959 -0.126910
C10   C     C_R   0.557311 0.026504 0.461352 -0.097111
C11   C     C_R   0.594022 0.952632 0.372640 -0.102924
C12   C     C_R   0.982955 0.503221 0.686432 0.804905
C13   C     C_R   0.502635 0.846943 0.331523 0.462012
C14   C     C_R   0.379384 0.814520 0.380267 -0.229097
C15   C     C_R   0.650918 0.124482 0.508973 0.481490
C16   C     C_R   0.807632 0.094939 0.367362 -0.411925
C17   C     C_R   0.226190 0.837387 0.533777 -0.252639
C18   C     C_R   0.651860 0.691212 0.651040 -0.426011
C19   C     C_R   0.254666 0.357707 0.354647 0.720108
C20   C     C_R   0.366101 0.346711 0.308949 -0.395414
C21   C     C_R   0.469187 0.414729 0.354995 -0.266350
C22   C     C_R   0.461469 0.482699 0.453390 0.015142
C23   C     C_R   0.855679 0.286012 0.484146 0.853044
C24   C     C_R   0.351597 0.501776 0.492125 0.169688
C25   C     C_R   0.561576 0.539472 0.510524 -0.109855
C26   C     C_R   0.558294 0.632161 0.592711 0.049993
C27   C     C_R   0.455805 0.659322 0.622739 -0.230502
C28   C     C_R   0.352073 0.591621 0.576929 -0.139392
C29   C     C_R   0.657916 0.501788 0.496614 0.545824
C30   C     C_R   0.743039 0.651775 0.636707 0.579268
C31   C     C_R   0.017050 0.496370 0.313423 0.793853
C32   C     C_1   0.030077 0.496068 0.207523 -0.203452
C33   C     C_2   0.053539 0.497159 0.011175 0.492280
C34   C     C_2   0.960181 0.501389 0.984610 -0.245288
C35   C     C_1   0.964049 0.501950 0.880086 0.057769
C36   C     C_1   0.041610 0.496352 0.118335 -0.181502
Cu1   Cu    Cu3+1 0.899780 0.525060 0.522890 1.024110
Cu2   Cu    Cu3+1 0.100220 0.474940 0.477110 0.953072
H1    H     H_    0.880038 0.504968 0.041467 0.108026
H2    H     H_    0.310939 0.735572 0.344887 0.157598
H3    H     H_    0.452410 0.729114 0.687019 0.140582
H4    H     H_    0.649703 0.763521 0.712788 0.161417
H5    H     H_    0.555854 0.422596 0.307639 0.166382
H6    H     H_    0.375704 0.290031 0.235631 0.157742
H7    H     H_    0.274764 0.613716 0.609100 0.193021
H8    H     H_    0.901473 0.127398 0.325808 0.215382
N1    N     N_R   0.748810 0.563010 0.557590 -0.249639
N2    N     N_R   0.250540 0.437620 0.443020 -0.249030
O1    O     O_R   0.025040 0.682470 0.528790 -0.521955
O2    O     O_R   0.194310 0.640150 0.490130 -0.624753
O3    O     O_R   0.903380 0.524130 0.659910 -0.532449
O4    O     O_R   0.072660 0.481800 0.621240 -0.595279
O5    O     O_R   0.805690 0.359850 0.509870 -0.501774
O6    O     O_R   0.974960 0.317530 0.471210 -0.545029
O7    O     O_R   0.927340 0.518200 0.378760 -0.607817
O8    O     O_R   0.096620 0.475870 0.340090 -0.550287
O9    O     O_3   0.823022 0.698559 0.706210 -0.517498
C37   C     C_3   0.754362 0.665636 0.801857 0.092436
H9    H     H_    0.714437 0.569809 0.794013 0.153033
H10   H     H_    0.678132 0.695013 0.832429 0.122242
C38   C     C_3   0.837279 0.720632 0.882143 -0.758704
H11   H     H_    0.881724 0.816173 0.889208 0.257506
H12   H     H_    0.781771 0.699264 0.957825 0.194392
H13   H     H_    0.908629 0.686271 0.860231 0.241895
O10   O     O_3   0.633666 0.385862 0.454146 -0.544397
C39   C     C_3   0.693034 0.366733 0.350847 -0.213517
H14   H     H_    0.759493 0.330307 0.344209 0.183091
H15   H     H_    0.738900 0.444334 0.314318 0.122135
H16   H     H_    0.623882 0.296372 0.304956 0.135908
O11   O     O_3   0.147744 0.290197 0.312707 -0.562976
C40   C     C_3   0.170500 0.279394 0.204689 -0.359957
H17   H     H_    0.200623 0.208140 0.165768 0.160625
H18   H     H_    0.238471 0.361956 0.179113 0.156688
H19   H     H_    0.082688 0.255903 0.180269 0.192300
O12   O     O_3   0.154578 0.492142 0.935145 -0.568644
C41   C     C_3   0.250776 0.498264 0.975162 0.068766
H20   H     H_    0.219019 0.422107 0.011084 0.145421
H21   H     H_    0.284549 0.579868 0.032572 0.155128
C42   C     C_3   0.358107 0.497524 0.887695 -0.764070
H22   H     H_    0.392494 0.572933 0.850373 0.245439
H23   H     H_    0.434604 0.502582 0.918158 0.192560
H24   H     H_    0.327831 0.416542 0.829328 0.270218
O13   O     O_3   0.531275 0.778854 0.239375 -0.537414
C43   C     C_3   0.515976 0.672825 0.257104 0.115056
H25   H     H_    0.428129 0.631386 0.309146 0.133248
H26   H     H_    0.593941 0.687146 0.291481 0.148260
C44   C     C_3   0.514630 0.588055 0.154937 -0.819795
H27   H     H_    0.596993 0.627545 0.097847 0.255028
H28   H     H_    0.514664 0.508449 0.165708 0.200759
H29   H     H_    0.430371 0.564199 0.124704 0.230214
O14   O     O_3   0.759583 0.916759 0.241895 -0.527161
C45   C     C_3   0.843128 0.884732 0.263751 0.085512
H30   H     H_    0.801793 0.842328 0.332125 0.120529
H31   H     H_    0.931041 0.960978 0.277670 0.146507
C46   C     C_3   0.874888 0.799735 0.171903 -0.799591
H32   H     H_    0.942993 0.776793 0.187620 0.198944
H33   H     H_    0.790978 0.719441 0.157441 0.242743
H34   H     H_    0.915483 0.839345 0.102259 0.252037
O15   O     O_3   0.625843 0.182641 0.607818 -0.510307
C47   C     C_3   0.633956 0.128888 0.678039 0.041781
H35   H     H_    0.728592 0.132697 0.665124 0.124462
H36   H     H_    0.565329 0.036899 0.671291 0.126808
C48   C     C_3   0.606450 0.192469 0.786885 -0.747137
H37   H     H_    0.511926 0.189005 0.802427 0.266418
H38   H     H_    0.612585 0.151225 0.843166 0.187031
H39   H     H_    0.674331 0.284378 0.796379 0.243571
O16   O     O_3   0.104529 0.859540 0.703910 -0.528426
C49   C     C_3   0.160692 0.841043 0.769112 -0.262994
H40   H     H_    0.249827 0.914911 0.785353 0.147715
H41   H     H_    0.175200 0.760152 0.735622 0.134726
H42   H     H_    0.099393 0.831952 0.844777 0.174185
O17   O     O_3   0.439832 0.190228 0.580160 -0.485329
C50   C     C_3   0.379897 0.221816 0.528823 -0.144172
H43   H     H_    0.277354 0.178213 0.545609 0.100274
H44   H     H_    0.412200 0.204370 0.444359 0.168882
H45   H     H_    0.403483 0.315408 0.555880 0.201622
O18   O     O_3   0.235190 0.104256 0.725091 -0.556136
C51   C     C_3   0.113866 0.091390 0.731245 -0.226530
H46   H     H_    0.046769 0.027367 0.779876 0.210736
H47   H     H_    0.086634 0.067175 0.654521 0.126159
H48   H     H_    0.108582 0.175610 0.769500 0.175445

loop_
_geom_bond_atom_site_label_1
_geom_bond_atom_site_label_2
_ccdc_geom_bond_type
C2    C35   T    
C39   H15   S    
C44   H27   S    
C46   H32   S    
C18   C26   A    
C41   C42   S    
C9    C14   A    
C2    C12   S    
C46   H34   S    
C7    C8    A    
C7    O17   S    
C26   C27   A    
C29   N1    A    
C32   C36   T    
C41   H21   S    
C10   C15   A    
C18   H4    S    
C5    C6    A    
Cu1   O3    S    
C39   H16   S    
C5    C17   A    
C37   H10   S    
C30   O9    S    
C33   C36   S    
C49   H40   S    
C3    O14   S    
C34   C35   S    
C38   H12   S    
C51   H46   S    
C47   H35   S    
C12   O4    A    
C21   H5    S    
C33   O12   S    
O13   C43   S    
C8    C9    A    
C22   C25   A    
O16   C49   S    
C43   C44   S    
O11   C40   S    
C18   C30   A    
C31   O8    A    
Cu1   N1    S    
C1    O2    A    
C6    O18   S    
Cu2   N2    S    
C50   H45   S    
Cu1   O5    S    
C37   C38   S    
C39   H14   S    
C21   C22   A    
C47   H36   S    
O17   C50   S    
C20   H6    S    
C23   O5    A    
C25   C29   A    
C28   H7    S    
C34   H1    S    
C24   N2    A    
C30   N1    A    
C41   H20   S    
C16   H8    S    
O14   C45   S    
C42   H23   S    
C4    C23   S    
C19   N2    A    
C37   H9    S    
C47   C48   S    
C51   H48   S    
C4    C16   A    
C38   H13   S    
O12   C41   S    
Cu1   Cu2   S    
C40   H19   S    
Cu1   O1    S    
C27   H3    S    
O15   C47   S    
Cu2   O6    S    
C45   H31   S    
C33   C34   D    
Cu2   O8    S    
C48   H38   S    
C43   H25   S    
C29   O10   S    
C9    C17   A    
C44   H28   S    
C22   C24   A    
C48   H37   S    
C12   O3    A    
C23   O6    A    
C40   H18   S    
C50   H43   S    
C5    O16   S    
C31   C32   S    
C24   C28   A    
C15   O15   S    
C42   H24   S    
C46   H33   S    
C6    C7    A    
Cu2   O2    S    
C13   O13   S    
C1    C17   S    
C49   H42   S    
C19   C20   A    
C25   C26   A    
C40   H17   S    
O18   C51   S    
C11   C13   A    
O9    C37   S    
C4    C15   A    
C45   H30   S    
C49   H41   S    
C48   H39   S    
C45   C46   S    
C38   H11   S    
C51   H47   S    
C3    C11   A    
C10   C11   A    
C14   H2    S    
C42   H22   S    
Cu1   O7    S    
Cu2   O4    S    
C20   C21   A    
C8    C10   A    
O10   C39   S    
C44   H29   S    
C27   C28   A    
C43   H26   S    
C19   O11   S    
C31   O7    A    
C13   C14   A    
C1    O1    A    
C3    C16   A    
C50   H44   S    
