data_mof_unit_29254.cif
_audit_creation_date              2012-10-26T18:52:32-0400
_audit_creation_method            fapswitch 2.2
_symmetry_space_group_name_H-M    P1
_symmetry_Int_Tables_number       1
_space_group_crystal_system       triclinic
_cell_length_a                    10.741521
_cell_length_b                    14.747749
_cell_length_c                    14.717054
_cell_angle_alpha                 65.090225
_cell_angle_beta                  104.430704
_cell_angle_gamma                 103.257194
_cell_volume                      2027.15295164

loop_
_atom_site_label
_atom_site_type_symbol
_atom_type_description
_atom_site_fract_x
_atom_site_fract_y
_atom_site_fract_z
_atom_type_partial_charge
C1    C     C_R   0.480378 0.119654 0.312067 0.533082
C2    C     C_R   0.506026 0.361523 0.079771 0.030801
C3    C     C_R   0.497986 0.323249 0.004515 0.048708
C4    C     C_R   0.260171 0.998461 0.502508 0.550998
C5    C     C_R   0.528099 0.467816 0.053852 0.030610
C6    C     C_R   0.526975 0.534214 0.950163 0.029266
C7    C     C_R   0.518615 0.492720 0.877422 -0.144354
C8    C     C_R   0.505719 0.389299 0.904621 -0.138005
C9    C     C_R   0.555774 0.509885 0.128466 -0.147880
C10   C     C_R   0.574810 0.613573 0.101861 -0.140672
C11   C     C_R   0.564712 0.679181 0.000160 0.051359
C12   C     C_3   0.879822 0.996234 0.509745 0.014377
C13   C     C_R   0.538170 0.640184 0.923155 0.029043
C14   C     C_R   0.580946 0.783769 0.974566 -0.138995
C15   C     C_R   0.568759 0.850369 0.872978 -0.146215
C16   C     C_R   0.522090 0.880454 0.687905 0.533801
C17   C     C_R   0.520897 0.708645 0.821423 -0.148553
C18   C     C_R   0.718355 0.285653 0.668630 -0.163596
C19   C     C_R   0.684831 0.204448 0.638324 0.033039
C20   C     C_R   0.512775 0.281814 0.513590 0.053481
C21   C     C_R   0.535670 0.364477 0.545064 0.010339
C22   C     C_R   0.645205 0.366092 0.621961 0.030145
C23   C     C_3   0.918332 0.888917 0.574271 -0.189831
C24   C     C_R   0.457211 0.445437 0.503619 0.024928
C25   C     C_R   0.501732 0.531806 0.532414 -0.013619
C26   C     C_R   0.613713 0.529639 0.607008 -0.143501
C27   C     C_R   0.681769 0.447608 0.652214 -0.135667
C28   C     C_R   0.740687 0.997085 0.505444 0.540458
C29   C     C_R   0.335227 0.443769 0.436874 0.246469
C30   C     C_R   0.264320 0.523807 0.401436 -0.110178
C31   C     C_R   0.315537 0.611694 0.418250 -0.032991
C32   C     C_R   0.433202 0.618132 0.484829 -0.023760
C33   C     C_R   0.252902 0.695891 0.361356 -0.145086
C34   C     C_3   0.971371 0.073041 0.554543 -0.102995
C35   C     C_R   0.311850 0.789745 0.362922 0.185186
C36   C     C_R   0.475881 0.711856 0.498672 0.018200
C37   C     C_3   0.039479 0.017315 0.399117 -0.247982
C38   C     C_3   0.900595 0.027756 0.399268 -0.257348
C39   C     C_3   0.065870 0.891320 0.581898 0.163896
C40   C     C_3   0.111976 0.079114 0.542117 -0.253615
C41   C     C_3   0.122381 0.996113 0.506401 0.052543
C42   C     C_3   0.964850 0.046869 0.667644 -0.284228
C43   C     C_3   0.019266 0.137431 0.698130 -0.453843
C44   C     C_3   0.284885 0.877624 0.262704 -0.225397
C45   C     C_R   0.479533 0.187674 0.204656 -0.006807
C46   C     C_3   0.177176 0.932735 0.255784 -0.410393
C47   C     C_3   0.269597 0.386051 0.308184 -0.033060
C48   C     C_3   0.210163 0.293783 0.282736 -0.392839
C49   C     C_3   0.116002 0.727364 0.646788 -0.007350
C50   C     C_3   0.132339 0.643997 0.617457 -0.353382
C51   C     C_R   0.537528 0.812894 0.795880 -0.012539
C52   C     C_R   0.484122 0.218911 0.030285 -0.136970
C53   C     C_R   0.477583 0.151735 0.130078 -0.141839
C54   C     C_R   0.490843 0.291781 0.178397 -0.139002
Cu1   Cu    Cu3+1 0.465900 0.918260 0.475680 0.925806
Cu2   Cu    Cu3+1 0.534100 0.081740 0.524320 0.908316
H1    H     H_    0.034441 0.953420 0.376807 0.164955
H2    H     H_    0.486421 0.316652 0.236373 0.113246
H3    H     H_    0.083211 0.086693 0.341541 0.084629
H4    H     H_    0.526899 0.538224 0.799059 0.101890
H5    H     H_    0.568551 0.464813 0.208892 0.098277
H6    H     H_    0.602833 0.814007 0.033236 0.100523
H7    H     H_    0.765841 0.448821 0.710753 0.106291
H8    H     H_    0.559167 0.720677 0.554294 0.117293
H9    H     H_    0.169015 0.518899 0.355232 0.113237
H10   H     H_    0.800380 0.285039 0.729123 0.088303
H11   H     H_    0.737998 0.140789 0.676957 0.121699
H12   H     H_    0.116219 0.884957 0.660241 0.070203
H13   H     H_    0.440356 0.276364 0.451228 0.185687
H14   H     H_    0.883320 0.107421 0.353404 0.116029
H15   H     H_    0.649787 0.589949 0.633963 0.090981
H16   H     H_    0.167547 0.691490 0.304559 0.091482
H17   H     H_    0.830535 0.980050 0.361906 0.132869
H18   H     H_    0.861063 0.835684 0.538348 0.158587
H19   H     H_    0.180961 0.070997 0.614531 0.137361
H20   H     H_    0.142268 0.155111 0.485499 0.166467
H21   H     H_    0.941304 0.149223 0.508124 0.166696
H22   H     H_    0.124331 0.160216 0.694337 0.160772
H23   H     H_    0.894082 0.859635 0.651754 0.062291
H24   H     H_    0.967141 0.202712 0.647176 0.153248
H25   H     H_    0.006658 0.117006 0.777365 0.129437
H26   H     H_    0.863623 0.021319 0.681910 0.165602
H27   H     H_    0.020148 0.983537 0.719324 0.133085
H28   H     H_    0.092980 0.877589 0.285742 0.143313
H29   H     H_    0.212510 0.983716 0.296966 0.184885
H30   H     H_    0.144419 0.980345 0.174936 0.111816
H31   H     H_    0.375041 0.927792 0.243002 0.159327
H32   H     H_    0.253957 0.849759 0.199798 0.091630
H33   H     H_    0.368439 0.412017 0.287780 0.115994
H34   H     H_    0.501412 0.360845 0.846739 0.116014
H35   H     H_    0.207671 0.446088 0.259902 0.132966
H36   H     H_    0.109052 0.269436 0.297921 0.146817
H37   H     H_    0.208523 0.312606 0.201049 0.105098
H38   H     H_    0.268013 0.230957 0.329162 0.161023
H39   H     H_    0.037414 0.698658 0.693293 0.112301
H40   H     H_    0.209441 0.746829 0.692792 0.136110
H41   H     H_    0.212134 0.670318 0.572724 0.181701
H42   H     H_    0.156645 0.576640 0.687067 0.090430
H43   H     H_    0.040903 0.622614 0.571157 0.154026
H44   H     H_    0.490948 0.682293 0.760298 0.118328
H45   H     H_    0.582043 0.930790 0.854839 0.124530
H46   H     H_    0.596663 0.642555 0.161509 0.105432
H47   H     H_    0.480901 0.189334 0.973517 0.102695
H48   H     H_    0.473884 0.072380 0.148576 0.109194
N1    N     N_R   0.585360 0.204570 0.560800 -0.244084
N2    N     N_R   0.414550 0.795430 0.439160 -0.226040
O1    O     O_R   0.455060 0.022100 0.338110 -0.516426
O2    O     O_3   0.084231 0.812195 0.557604 -0.548178
O3    O     O_R   0.512640 0.160150 0.379180 -0.513564
O4    O     O_R   0.288900 0.930980 0.479450 -0.449453
O5    O     O_R   0.346480 0.069030 0.520520 -0.523033
O6    O     O_R   0.487360 0.839850 0.620820 -0.514589
O7    O     O_R   0.544940 0.977900 0.661890 -0.508633
O8    O     O_R   0.653520 0.930970 0.479480 -0.512296
O9    O     O_R   0.711100 0.069020 0.520550 -0.506984
O10   O     O_3   0.275941 0.360668 0.413421 -0.593847

loop_
_geom_bond_atom_site_label_1
_geom_bond_atom_site_label_2
_ccdc_geom_bond_type
Cu1   Cu2   S    
C38   H14   S    
C52   H47   S    
Cu1   O6    S    
C39   H12   S    
C7    H4    S    
C34   C42   S    
C16   C51   S    
C16   O7    A    
C17   C51   A    
C7    C8    A    
C39   C41   S    
C43   H22   S    
C12   C23   S    
C50   H43   S    
C37   C38   S    
C48   H38   S    
C12   C28   S    
C9    H5    S    
C32   C36   A    
C34   H21   S    
C30   C31   A    
C11   C14   A    
C4    C41   S    
C53   H48   S    
C14   H6    S    
C18   C19   A    
C24   C29   A    
C33   H16   S    
C1    O3    A    
C47   C48   S    
C42   H26   S    
Cu2   O7    S    
C31   C33   A    
C19   H11   S    
C15   C51   A    
C44   H31   S    
C9    C10   A    
Cu2   O5    S    
C46   H29   S    
C25   C32   A    
C45   C53   A    
C21   C22   A    
C12   C38   S    
C26   H15   S    
C47   H33   S    
C47   O10   S    
C44   C46   S    
C49   O2    S    
C39   O2    S    
C50   H42   S    
C48   H37   S    
Cu1   N2    S    
C36   N2    A    
C10   H46   S    
C24   C25   A    
C3    C8    A    
C2    C54   A    
C25   C26   A    
C15   H45   S    
C40   H20   S    
Cu1   O1    S    
C5    C9    A    
C29   C30   A    
C28   O9    A    
C31   C32   A    
C26   C27   A    
C49   H39   S    
C35   C44   S    
C37   H3    S    
C27   H7    S    
C1    O1    A    
C46   H28   S    
C19   N1    A    
C40   C41   S    
C29   O10   S    
C45   C54   A    
C22   C27   A    
Cu1   O4    S    
C43   H25   S    
C34   C40   S    
C20   H13   S    
C2    C5    A    
C8    H34   S    
C42   C43   S    
C23   H18   S    
C12   C34   S    
Cu2   O3    S    
C52   C53   A    
C16   O6    A    
C20   N1    A    
C54   H2    S    
C4    O4    A    
C50   H41   S    
C18   C22   A    
C47   H35   S    
C4    O5    A    
C42   H27   S    
C3    C52   A    
C6    C7    A    
Cu1   O8    S    
C18   H10   S    
C40   H19   S    
C13   C17   A    
C2    C3    A    
C43   H24   S    
C35   N2    A    
C44   H32   S    
C6    C13   A    
C11   C13   A    
C1    C45   S    
C5    C6    A    
C23   C39   S    
C28   O8    A    
C33   C35   A    
Cu2   O9    S    
C49   H40   S    
C37   C41   S    
C17   H44   S    
Cu2   N1    S    
C30   H9    S    
C10   C11   A    
C20   C21   A    
C49   C50   S    
C48   H36   S    
C21   C24   A    
C14   C15   A    
C23   H23   S    
C36   H8    S    
C37   H1    S    
C46   H30   S    
C38   H17   S    
