data_mof_unit_38348.cif
_audit_creation_date              2012-12-11T15:32:39-0500
_audit_creation_method            fapswitch 2.2
_symmetry_space_group_name_H-M    P1
_symmetry_Int_Tables_number       1
_space_group_crystal_system       triclinic
_cell_length_a                    6.966602
_cell_length_b                    20.387768
_cell_length_c                    24.409528
_cell_angle_alpha                 89.628038
_cell_angle_beta                  90.035652
_cell_angle_gamma                 89.676866
_cell_volume                      3466.8409025

loop_
_atom_site_label
_atom_site_type_symbol
_atom_type_description
_atom_site_fract_x
_atom_site_fract_y
_atom_site_fract_z
_atom_type_partial_charge
O1    O     O_R   0.507320 0.423560 0.460500 -0.531567
O2    O     O_R   0.170760 0.556250 0.437010 -0.541411
O3    O     O_R   0.004030 0.576440 0.539500 -0.537453
C1    C     C_R   0.339237 0.576319 0.421144 0.741479
O4    O     O_R   0.177370 0.422820 0.454110 -0.537154
O5    O     O_R   0.010680 0.442050 0.556720 -0.535842
C2    C     C_R   0.346421 0.398806 0.443583 0.709553
O6    O     O_R   0.500680 0.557950 0.443280 -0.530601
O7    O     O_3   0.340380 0.506470 0.533650 -0.371633
V1    V     V_3+5 0.064130 0.498800 0.493760 1.423515
O8    O     O_R   0.681160 0.443750 0.562990 -0.540999
C3    C     C_R   0.849590 0.423503 0.578759 0.726117
O9    O     O_R   0.674560 0.577180 0.545890 -0.538504
C4    C     C_R   0.842628 0.601032 0.556768 0.688109
V2    V     V_3+5 0.564560 0.501200 0.506240 1.429995
O10   O     O_3   0.838180 0.493530 0.466350 -0.361276
C5    C     C_R   0.974542 0.837490 0.911617 -0.074902
C6    C     C_R   0.846839 0.662109 0.588904 -0.039925
C7    C     C_R   0.008790 0.718423 0.909467 0.091410
C8    C     C_R   0.006529 0.777952 0.938343 -0.174383
C9    C     C_R   0.940899 0.838736 0.855105 -0.221904
C10   C     C_R   0.939851 0.780153 0.823701 0.081467
C11   C     C_R   0.981245 0.719956 0.851432 0.096038
C12   C     C_R   0.900530 0.779575 0.765658 0.042115
C13   C     C_R   0.916831 0.719964 0.735342 0.055712
C14   C     C_R   0.966677 0.662345 0.764304 -0.175144
C15   C     C_R   0.995164 0.662255 0.820549 -0.213631
C16   C     C_R   0.839086 0.836501 0.737561 -0.224138
C17   C     C_R   0.797804 0.837020 0.681498 0.059357
C18   C     C_R   0.817970 0.778630 0.650860 0.110124
C19   C     C_R   0.878598 0.719467 0.677389 0.058125
C20   C     C_R   0.775230 0.777812 0.594226 -0.173679
C21   C     C_R   0.787377 0.720348 0.564116 -0.172285
C22   C     C_R   0.894373 0.661635 0.644832 -0.204042
H1    H     H_    0.030544 0.615558 0.839313 0.117492
H2    H     H_    0.938832 0.614995 0.661559 0.092209
H3    H     H_    0.748573 0.721256 0.521107 0.104116
H4    H     H_    0.031020 0.779206 0.982050 0.096680
H5    H     H_    0.922285 0.886618 0.836932 0.100675
H6    H     H_    0.981572 0.615342 0.744956 0.118294
H7    H     H_    0.813394 0.881658 0.758938 0.126076
H8    H     H_    0.728013 0.821129 0.572298 0.121958
C23   C     C_3   0.785066 0.294789 0.765358 -0.222379
C24   C     C_3   0.981168 0.281312 0.793905 -0.161591
H9    H     H_    0.038050 0.307294 0.830238 0.106765
H10   H     H_    0.678671 0.331460 0.779689 0.122651
C25   C     C_1   0.968308 0.121266 0.874766 -0.170867
C26   C     C_1   0.857029 0.377630 0.624398 -0.197901
C27   C     C_3   0.752895 0.220013 0.761807 0.014002
C28   C     C_3   0.945722 0.206717 0.790032 0.124839
C29   C     C_3   0.849926 0.217363 0.705005 -0.212773
C30   C     C_3   0.884952 0.291968 0.708777 0.144294
C31   C     C_3   0.045968 0.204028 0.733532 -0.154957
C32   C     C_3   0.078712 0.279025 0.736988 0.144276
C33   C     C_1   0.962754 0.159423 0.836333 -0.016179
C34   C     C_1   0.864797 0.338965 0.662419 -0.064573
H11   H     H_    0.152299 0.167011 0.719705 0.143160
H12   H     H_    0.792879 0.191257 0.668750 0.121035
C35   C     C_3   0.476548 0.715638 0.204236 0.114776
C36   C     C_3   0.282987 0.703369 0.234037 -0.203030
H13   H     H_    0.176258 0.666421 0.221274 0.116687
H14   H     H_    0.111838 0.804473 0.227483 0.140920
C37   C     C_1   0.349347 0.621591 0.375085 -0.187875
C38   C     C_1   0.475891 0.877599 0.124346 -0.171567
C39   C     C_3   0.581505 0.717040 0.260178 0.044668
C40   C     C_3   0.388734 0.705721 0.289952 0.095846
C41   C     C_3   0.547446 0.791925 0.263051 -0.060815
C42   C     C_3   0.442534 0.790450 0.207517 0.056607
C43   C     C_3   0.355553 0.780451 0.292820 0.081155
C44   C     C_3   0.248892 0.778832 0.237061 -0.171803
C45   C     C_1   0.363533 0.659537 0.336704 -0.064917
C46   C     C_1   0.463718 0.838525 0.161977 -0.038582
C47   C     C_R   0.462660 0.163693 0.086582 -0.071687
C48   C     C_R   0.352844 0.338315 0.410516 -0.083426
C49   C     C_R   0.399776 0.280586 0.088969 -0.189552
C50   C     C_R   0.428702 0.223416 0.058655 0.072350
C51   C     C_R   0.461893 0.162352 0.144239 -0.230006
C52   C     C_R   0.411403 0.218623 0.175321 0.078537
C53   C     C_R   0.391047 0.278713 0.146317 0.121039
C54   C     C_R   0.382819 0.218092 0.233946 0.013540
C55   C     C_R   0.376004 0.279681 0.262504 0.045846
C56   C     C_R   0.350971 0.337398 0.231123 -0.156008
C57   C     C_R   0.357258 0.336790 0.174438 -0.192889
C58   C     C_R   0.342455 0.160043 0.264781 -0.048331
C59   C     C_R   0.317572 0.163015 0.321367 -0.223136
C60   C     C_R   0.330663 0.221950 0.349671 0.121227
C61   C     C_R   0.370312 0.281319 0.321439 0.040539
C62   C     C_R   0.296181 0.221726 0.406259 -0.150562
C63   C     C_R   0.299785 0.279650 0.435800 -0.180097
C64   C     C_R   0.399135 0.339095 0.354001 -0.097912
H15   H     H_    0.334865 0.382523 0.152343 0.121089
H16   H     H_    0.264528 0.278513 0.479035 0.108752
H17   H     H_    0.281657 0.118498 0.343742 0.124469
H18   H     H_    0.380367 0.326898 0.067465 0.110815
H19   H     H_    0.504999 0.117043 0.163692 0.131828
H20   H     H_    0.310410 0.383400 0.249356 0.138054
H21   H     H_    0.260425 0.176622 0.427589 0.113859
O11   O     O_R   0.323550 0.942140 0.056770 -0.533032
O12   O     O_R   0.647080 0.077200 0.045890 -0.539748
O13   O     O_R   0.813610 0.057920 0.943260 -0.534360
C65   C     C_R   0.477534 0.101489 0.056126 0.707437
O14   O     O_R   0.653470 0.943760 0.063000 -0.536311
O15   O     O_R   0.820050 0.923540 0.960490 -0.537550
C66   C     C_R   0.485098 0.923644 0.078814 0.731784
O16   O     O_R   0.317110 0.076520 0.039540 -0.536225
O17   O     O_3   0.483830 0.993580 0.966380 -0.367982
V3    V     V_3+5 0.760140 0.001190 0.006240 1.438756
O18   O     O_R   0.149510 0.922740 0.954070 -0.539087
C67   C     C_R   0.981269 0.898780 0.943416 0.698907
O19   O     O_R   0.143120 0.056170 0.936970 -0.537336
C68   C     C_R   0.974793 0.076197 0.921013 0.714702
V4    V     V_3+5 0.259690 0.998700 0.993700 1.442610
O20   O     O_3   0.986130 0.006420 0.033620 -0.362762
C69   C     C_3   0.262946 0.314727 0.720787 -0.360412
C70   C     C_3   0.254333 0.387769 0.735892 -0.318638
C71   C     C_3   0.408311 0.427158 0.706040 -0.750099
H22   H     H_    0.553463 0.408884 0.716996 0.226982
H23   H     H_    0.388300 0.423730 0.660989 0.238513
H24   H     H_    0.397401 0.479524 0.717927 0.209201
H25   H     H_    0.112357 0.409232 0.725117 0.202291
H26   H     H_    0.274424 0.392974 0.780831 0.183519
H27   H     H_    0.385368 0.291386 0.742148 0.177304
H28   H     H_    0.284412 0.308917 0.675960 0.180020
C72   C     C_1   0.577813 0.184620 0.776887 0.247108
N1    N     N_1   0.441398 0.156189 0.789436 -0.381950
C73   C     C_3   0.546125 0.681618 0.151956 -0.362427
C74   C     C_3   0.463683 0.612416 0.146278 -0.305874
C75   C     C_3   0.555946 0.576115 0.098529 -0.776846
H29   H     H_    0.535154 0.604098 0.059745 0.234359
H30   H     H_    0.711888 0.569141 0.106163 0.229505
H31   H     H_    0.488681 0.527174 0.094171 0.216180
H32   H     H_    0.486555 0.583563 0.184436 0.195472
H33   H     H_    0.306670 0.615959 0.138962 0.190263
H34   H     H_    0.500021 0.711178 0.115823 0.170706
H35   H     H_    0.705560 0.680062 0.152200 0.171061
C76   C     C_3   0.282188 0.816034 0.343731 -0.373741
C77   C     C_3   0.270167 0.890454 0.334594 -0.261574
C78   C     C_3   0.176043 0.924416 0.383269 -0.738144
H36   H     H_    0.027594 0.906151 0.389305 0.242653
H37   H     H_    0.260801 0.915219 0.421139 0.216855
H38   H     H_    0.169641 0.978127 0.375540 0.218703
H39   H     H_    0.416293 0.910842 0.329165 0.203928
H40   H     H_    0.186156 0.901704 0.296985 0.233841
H41   H     H_    0.137707 0.796566 0.353898 0.187867
H42   H     H_    0.380421 0.805086 0.378531 0.168832
C79   C     C_1   0.693378 0.840234 0.277889 0.264079
N2    N     N_1   0.807687 0.878603 0.289534 -0.376838
C80   C     C_3   0.770393 0.683712 0.276893 -0.373590
C81   C     C_3   0.768101 0.609306 0.267151 -0.303838
C82   C     C_3   0.922227 0.573682 0.300510 -0.707175
H43   H     H_    0.912822 0.520103 0.293245 0.231969
H44   H     H_    0.066780 0.590141 0.287854 0.217499
H45   H     H_    0.901871 0.582761 0.344957 0.238012
H46   H     H_    0.626753 0.588403 0.278514 0.220248
H47   H     H_    0.794198 0.599430 0.223121 0.190732
H48   H     H_    0.887761 0.706326 0.253021 0.166625
H49   H     H_    0.795712 0.694091 0.320952 0.184273
C83   C     C_1   0.495319 0.396776 0.332868 0.268692
N3    N     N_1   0.572498 0.442972 0.316342 -0.382225
C84   C     C_3   0.428336 0.228437 0.996763 -0.370968
C85   C     C_3   0.629381 0.244867 0.975590 -0.310804
C86   C     C_3   0.629957 0.252246 0.913424 -0.754530
H50   H     H_    0.588141 0.205294 0.894133 0.249375
H51   H     H_    0.528667 0.291565 0.900245 0.223058
H52   H     H_    0.776286 0.265479 0.899491 0.213840
H53   H     H_    0.678940 0.291556 0.994015 0.194938
H54   H     H_    0.731684 0.205194 0.987498 0.196323
H55   H     H_    0.377518 0.182289 0.977850 0.175273
H56   H     H_    0.325480 0.267370 0.983506 0.169568
C87   C     C_1   0.290784 0.098158 0.240362 0.295279
N4    N     N_1   0.248318 0.048444 0.221291 -0.360842
C88   C     C_3   0.725373 0.901089 0.656570 -0.367183
C89   C     C_3   0.505897 0.900573 0.650782 -0.288829
C90   C     C_3   0.431767 0.964379 0.625296 -0.775653
H57   H     H_    0.471331 0.006778 0.651256 0.232835
H58   H     H_    0.493010 0.971226 0.583656 0.226449
H59   H     H_    0.272893 0.962596 0.621922 0.217105
H60   H     H_    0.459641 0.859001 0.624826 0.196715
H61   H     H_    0.439660 0.894275 0.691910 0.202843
H62   H     H_    0.765533 0.943156 0.682952 0.174806
H63   H     H_    0.796462 0.910998 0.616703 0.165655
C91   C     C_3   0.038709 0.653106 0.939593 -0.370833
C92   C     C_3   0.045209 0.655864 0.002566 -0.309158
C93   C     C_3   0.060977 0.587123 0.027394 -0.780711
H64   H     H_    0.936745 0.556800 0.014793 0.228894
H65   H     H_    0.196123 0.562926 0.014010 0.231959
H66   H     H_    0.061290 0.590414 0.072740 0.213005
H67   H     H_    0.171736 0.684598 0.016043 0.193776
H68   H     H_    0.911849 0.679303 0.018302 0.195656
H69   H     H_    0.918237 0.620254 0.928321 0.175137
H70   H     H_    0.175156 0.630688 0.925034 0.172949

loop_
_geom_bond_atom_site_label_1
_geom_bond_atom_site_label_2
_ccdc_geom_bond_type
C13   C19   A    
C51   C52   A    
C77   H39   S    
C73   C74   S    
C70   H26   S    
C4    C6    S    
O2    C1    A    
C7    C8    A    
C1    O6    A    
C75   H29   S    
C69   C70   S    
O17   V4    S    
C31   C32   S    
C71   H22   S    
C35   C73   S    
C41   C43   S    
C1    C37   S    
C14   C15   A    
C48   C63   A    
C9    C10   A    
C16   C17   A    
C79   N2    T    
C58   C87   S    
O5    C3    A    
C18   C19   A    
C90   H57   S    
C60   C62   A    
C23   C30   S    
C40   C43   S    
C87   N4    T    
C89   H61   S    
V2    O10   S    
C32   C69   S    
C16   H7    S    
C5    C8    A    
O18   C67   A    
H14   C44   S    
C26   C34   T    
C74   H32   S    
V3    O20   S    
O19   V4    S    
O19   C68   A    
O8    V2    S    
C88   H63   S    
C93   H65   S    
C39   C41   S    
C82   H45   S    
C84   H56   S    
O1    V2    S    
C11   C15   A    
C18   C20   A    
O7    V1    S    
C22   H2    S    
C85   H53   S    
C54   C58   A    
C80   H49   S    
C88   H62   S    
C10   C12   A    
C47   C65   S    
C77   H40   S    
C36   C40   S    
C35   C36   S    
C81   H46   S    
O1    C2    A    
O9    C4    A    
C59   H17   S    
C92   H68   S    
C7    C91   S    
V4    O20   S    
C23   H10   S    
C30   C32   S    
C91   H69   S    
C55   C56   A    
C2    C48   S    
C86   H51   S    
C65   O16   A    
C70   H25   S    
C28   C31   S    
C56   H20   S    
C30   C34   S    
C41   C42   S    
C74   H33   S    
O11   V4    S    
C58   C59   A    
O4    C2    A    
C31   H11   S    
C52   C53   A    
C23   C27   S    
C27   C29   S    
C13   C14   A    
C89   C90   S    
C27   C72   S    
C51   H19   S    
C21   H3    S    
C29   C30   S    
C75   H30   S    
C36   H13   S    
C29   C31   S    
C64   C83   S    
C7    C11   A    
C49   C50   A    
C92   C93   S    
C17   C18   A    
C24   C32   S    
C35   C42   S    
C86   H52   S    
C8    H4    S    
C40   C45   S    
C9    H5    S    
C36   C44   S    
C42   C46   S    
C41   C79   S    
C19   C22   A    
O14   V3    S    
C29   H12   S    
C85   H54   S    
C12   C13   A    
C63   H16   S    
O14   C66   A    
C6    C22   A    
C90   H59   S    
C59   C60   A    
C55   C61   A    
O3    C4    A    
C78   H37   S    
C69   H28   S    
O12   C65   A    
O16   V4    S    
C37   C45   T    
C73   H35   S    
C39   C40   S    
O6    V2    S    
O9    V2    S    
C23   C24   S    
C83   N3    T    
C47   C50   A    
C82   H44   S    
C91   H70   S    
C74   C75   S    
O2    V1    S    
C75   H31   S    
C39   C80   S    
C88   C89   S    
C25   C33   T    
C86   H50   S    
C24   C28   S    
C38   C66   S    
C50   C84   S    
O13   V3    S    
C47   C51   A    
C60   C61   A    
C24   H9    S    
C12   C16   A    
C84   H55   S    
C54   C55   A    
C78   H38   S    
C5    C67   S    
O5    V1    S    
O15   V3    S    
O8    C3    A    
C71   H24   S    
C43   C76   S    
O12   V3    S    
C77   C78   S    
C76   H42   S    
C28   C33   S    
C82   H43   S    
C93   H66   S    
O15   C67   A    
C15   H1    S    
C20   C21   A    
C48   C64   A    
O7    V2    S    
C62   H21   S    
O4    V1    S    
C76   H41   S    
O3    V1    S    
V1    O10   S    
C81   C82   S    
C84   C85   S    
C53   C57   A    
C14   H6    S    
C70   C71   S    
C85   C86   S    
C89   H60   S    
C25   C68   S    
C57   H15   S    
C3    C26   S    
C71   H23   S    
C52   C54   A    
C80   C81   S    
C38   C46   T    
C17   C88   S    
C81   H47   S    
C43   C44   S    
C6    C21   A    
C90   H58   S    
C78   H36   S    
C69   H27   S    
O18   V4    S    
C62   C63   A    
C73   H34   S    
O13   C68   A    
C42   C44   S    
C27   C28   S    
O17   V3    S    
C61   C64   A    
C20   H8    S    
C10   C11   A    
C76   C77   S    
C93   H64   S    
C80   H48   S    
C56   C57   A    
C92   H67   S    
C49   C53   A    
O11   C66   A    
C35   C39   S    
C91   C92   S    
C49   H18   S    
C72   N1    T    
C5    C9    A    
