data_mof_unit_58769.cif
_audit_creation_date              2012-12-10T19:07:38-0500
_audit_creation_method            fapswitch 2.2
_symmetry_space_group_name_H-M    P1
_symmetry_Int_Tables_number       1
_space_group_crystal_system       triclinic
_cell_length_a                    10.891452
_cell_length_b                    10.877186
_cell_length_c                    9.583149
_cell_angle_alpha                 89.002709
_cell_angle_beta                  90.222647
_cell_angle_gamma                 92.419953
_cell_volume                      1134.10990183

loop_
_atom_site_label
_atom_site_type_symbol
_atom_type_description
_atom_site_fract_x
_atom_site_fract_y
_atom_site_fract_z
_atom_type_partial_charge
C1    C     C_R   0.502652 0.262277 0.500852 0.807621
C2    C     C_R   0.940605 0.507282 0.619832 0.002506
C3    C     C_3   0.937622 0.542090 0.769480 0.162469
C4    C     C_3   0.078585 0.541190 0.767427 0.182613
C5    C     C_R   0.521290 0.060407 0.625300 0.134229
C6    C     C_R   0.515142 0.129240 0.500827 -0.155611
C7    C     C_R   0.524986 0.067362 0.373472 -0.153873
C8    C     C_R   0.523804 0.938919 0.371730 -0.167047
C9    C     C_R   0.512193 0.870861 0.497187 -0.090056
C10   C     C_R   0.516622 0.933385 0.622654 0.036730
C11   C     C_3   0.430691 0.920999 0.743242 -0.463946
C12   C     C_R   0.262918 0.496217 0.499674 0.842405
C13   C     C_3   0.440756 0.059670 0.751147 0.252086
C14   C     C_R   0.537460 0.603073 0.070188 0.157469
C15   C     C_R   0.438724 0.409901 0.076883 -0.040045
C16   C     C_R   0.434040 0.412743 0.928294 0.520780
C17   C     C_R   0.535784 0.603225 0.924220 0.128823
C18   C     C_3   0.650256 0.680228 0.911305 -0.459425
C19   C     C_3   0.653477 0.683041 0.070236 0.223858
C20   C     C_R   0.501618 0.737510 0.498857 0.819604
C21   C     C_R   0.737304 0.496136 0.500402 0.820967
C22   C     C_R   0.064475 0.507187 0.618582 0.028790
C23   C     C_R   0.130442 0.487584 0.498690 -0.079825
C24   C     C_R   0.062937 0.457950 0.376955 -0.167895
C25   C     C_R   0.933594 0.455191 0.378871 -0.091154
C26   C     C_R   0.870005 0.486496 0.500717 -0.083257
Cu1   Cu    Cu3+1 0.499990 0.499980 0.640670 1.061111
Cu2   Cu    Cu3+1 0.500010 0.500020 0.359330 1.012251
H1    H     H_    0.351591 0.102537 0.732085 0.172496
H2    H     H_    0.637736 0.771486 0.861819 0.177906
H3    H     H_    0.639428 0.776105 0.111545 0.115327
H4    H     H_    0.884206 0.428524 0.285434 0.229702
H5    H     H_    0.903226 0.635331 0.784125 0.154412
H6    H     H_    0.118574 0.468019 0.833146 0.203831
N1    N     N_R   0.500790 0.500930 0.147930 -0.198489
N2    N     N_R   0.500790 0.500890 0.852020 -0.190015
O1    O     O_R   0.500000 0.319640 0.618810 -0.518395
O2    O     O_R   0.500010 0.319680 0.381230 -0.598233
O3    O     O_R   0.319650 0.499970 0.618810 -0.526166
O4    O     O_R   0.319660 0.500010 0.381230 -0.600246
O5    O     O_R   0.499990 0.680320 0.618770 -0.574220
O6    O     O_R   0.500000 0.680360 0.381190 -0.591614
O7    O     O_R   0.680340 0.499990 0.618770 -0.565051
O8    O     O_R   0.680350 0.500030 0.381190 -0.531871
H7    H     H_    0.109305 0.436875 0.281039 0.186390
H8    H     H_    0.468632 0.872908 0.835416 0.228135
Cl1   Cl    Cl    0.526081 0.109117 0.901496 -0.554564
H9    H     H_    0.388709 0.337628 0.134470 0.168580
Cl2   Cl    Cl    0.322017 0.317750 0.848903 -0.622624
H10   H     H_    0.721638 0.627171 0.863185 0.251232
Cl3   Cl    Cl    0.787708 0.614919 0.135213 -0.542299
Cl4   Cl    Cl    0.870132 0.420245 0.874934 -0.512153
Cl5   Cl    Cl    0.150531 0.690435 0.786756 -0.610340
H11   H     H_    0.527601 0.117324 0.274693 0.207811
H12   H     H_    0.525622 0.893530 0.272271 0.169768
H13   H     H_    0.337609 0.885917 0.711427 0.228508

loop_
_geom_bond_atom_site_label_1
_geom_bond_atom_site_label_2
_ccdc_geom_bond_type
C2    C22   A    
C20   O6    A    
C23   C24   A    
C12   O4    A    
C6    C7    A    
C18   H2    S    
C17   N2    A    
Cu2   O2    S    
Cu1   N2    S    
C21   O8    A    
C4    C22   S    
C9    C10   A    
Cu1   O5    S    
C9    C20   S    
C5    C13   S    
C14   C17   A    
C1    O1    A    
C3    Cl4   S    
C19   H3    S    
C12   O3    A    
C17   C18   S    
C3    C4    S    
C7    C8    A    
C2    C26   A    
C16   Cl2   S    
C11   C13   S    
C12   C23   S    
C15   H9    S    
Cu1   O1    S    
C24   H7    S    
C1    O2    A    
C8    H12   S    
C15   N1    A    
C21   C26   S    
C20   O5    A    
C2    C3    S    
C5    C6    A    
C4    Cl5   S    
C4    H6    S    
C10   C11   S    
Cu2   O4    S    
C15   C16   A    
C19   Cl3   S    
C5    C10   A    
C24   C25   A    
C18   H10   S    
C18   C19   S    
Cu2   O6    S    
C14   N1    A    
C13   Cl1   S    
Cu1   O7    S    
C3    H5    S    
C22   C23   A    
C11   H8    S    
C7    H11   S    
C25   C26   A    
C21   O7    A    
Cu2   N1    S    
C14   C19   S    
Cu2   O8    S    
C16   N2    A    
C11   H13   S    
C1    C6    S    
C13   H1    S    
Cu1   O3    S    
C8    C9    A    
Cu1   Cu2   S    
C25   H4    S    
