data_mof_unit_43717.cif
_audit_creation_date              2012-12-10T17:51:27-0500
_audit_creation_method            fapswitch 2.2
_symmetry_space_group_name_H-M    P1
_symmetry_Int_Tables_number       1
_space_group_crystal_system       triclinic
_cell_length_a                    9.899261
_cell_length_b                    10.724111
_cell_length_c                    16.992239
_cell_angle_alpha                 92.257035
_cell_angle_beta                  85.982092
_cell_angle_gamma                 89.42463
_cell_volume                      1797.93127826

loop_
_atom_site_label
_atom_site_type_symbol
_atom_type_description
_atom_site_fract_x
_atom_site_fract_y
_atom_site_fract_z
_atom_type_partial_charge
C1    C     C_R   0.498638 0.740130 0.495510 0.866954
C2    C     C_R   0.344995 0.473619 0.777780 -0.209949
C3    C     C_R   0.412383 0.389819 0.150061 -0.148011
C4    C     C_R   0.406923 0.435538 0.227076 -0.175405
C5    C     C_R   0.652031 0.449478 0.219874 -0.194276
C6    C     C_R   0.656963 0.409158 0.140820 -0.167679
C7    C     C_R   0.536621 0.382506 0.105300 0.202434
C8    C     C_2   0.442653 0.422150 0.981428 -0.234404
C9    C     C_2   0.539652 0.367425 0.019602 -0.239263
C10   C     C_R   0.526304 0.464896 0.262944 -0.043927
C11   C     C_R   0.239325 0.892796 0.489653 -0.153193
C12   C     C_R   0.482000 0.499544 0.652530 0.833829
C13   C     C_R   0.120654 0.956493 0.517148 -0.124709
C14   C     C_R   0.128181 0.069886 0.558873 -0.135369
C15   C     C_R   0.253649 0.125424 0.565573 -0.136534
C16   C     C_R   0.373433 0.066709 0.530796 0.108854
C17   C     C_R   0.368388 0.942150 0.504033 0.097024
C18   C     C_R   0.493233 0.874210 0.493010 -0.123316
C19   C     C_R   0.616991 0.935907 0.492096 -0.216033
C20   C     C_R   0.618927 0.063029 0.501844 -0.211910
C21   C     C_R   0.497625 0.129205 0.518623 -0.130774
C22   C     C_R   0.845849 0.664757 0.604001 -0.160208
C23   C     C_R   0.499342 0.261360 0.508110 0.906580
C24   C     C_R   0.909277 0.745165 0.655592 -0.217278
C25   C     C_R   0.049092 0.744532 0.655859 -0.188112
C26   C     C_R   0.126355 0.663987 0.604219 -0.152710
C27   C     C_R   0.065573 0.581461 0.551046 0.104611
C28   C     C_R   0.920861 0.581504 0.551032 0.157644
C29   C     C_R   0.933759 0.420927 0.452250 -0.161486
C30   C     C_R   0.076310 0.419787 0.452330 0.196336
C31   C     C_R   0.517953 0.495434 0.347327 0.885856
C32   C     C_R   0.472079 0.487171 0.737342 -0.026402
C33   C     C_R   0.590432 0.480592 0.777681 -0.215599
C34   C     C_R   0.582111 0.457165 0.857273 -0.153137
C35   C     C_R   0.455229 0.439565 0.897034 0.209121
C36   C     C_R   0.336810 0.450405 0.857551 -0.180410
H1    H     H_    0.689501 0.492404 0.747771 0.162707
H2    H     H_    0.753628 0.403672 0.106687 0.126802
H3    H     H_    0.713037 0.886293 0.482507 0.173117
H4    H     H_    0.226980 0.807886 0.454867 0.171999
H5    H     H_    0.255968 0.214403 0.597735 0.152913
H6    H     H_    0.715545 0.109368 0.494625 0.174106
H7    H     H_    0.883868 0.356352 0.413623 0.169672
H8    H     H_    0.738188 0.670158 0.607751 0.205990
H9    H     H_    0.849390 0.808238 0.695691 0.151960
H10   H     H_    0.308561 0.446664 0.258481 0.184260
H11   H     H_    0.098235 0.807421 0.695944 0.152797
H12   H     H_    0.233128 0.669622 0.607373 0.207720
H13   H     H_    0.629767 0.327210 0.987861 0.147864
H14   H     H_    0.252259 0.479025 0.747738 0.160752
H15   H     H_    0.674630 0.455566 0.887587 0.126766
N1    N     N_R   0.857140 0.501200 0.500750 -0.134999
N2    N     N_R   0.142740 0.501280 0.500770 -0.144126
O1    O     O_R   0.385310 0.683220 0.500000 -0.653882
O2    O     O_R   0.614640 0.683250 0.500010 -0.636263
O3    O     O_R   0.371780 0.500010 0.615800 -0.649930
O4    O     O_R   0.601110 0.500030 0.615800 -0.640023
O5    O     O_R   0.385360 0.316750 0.499990 -0.590482
O6    O     O_R   0.614690 0.316780 0.500000 -0.621712
O7    O     O_R   0.398890 0.499970 0.384200 -0.597138
O8    O     O_R   0.628220 0.499990 0.384200 -0.617361
Zn1   Zn    Zn3+2 0.346870 0.499980 0.499990 0.948814
Zn2   Zn    Zn3+2 0.653130 0.500020 0.500010 0.936978
H16   H     H_    0.022926 0.916502 0.507382 0.144561
H17   H     H_    0.036632 0.117099 0.583334 0.136462
I1    I     I_    0.176110 0.282154 0.376252 -0.389594
H18   H     H_    0.745741 0.469457 0.246890 0.160009
H19   H     H_    0.238234 0.439936 0.888393 0.127108
H20   H     H_    0.318429 0.365215 0.124696 0.133848
H21   H     H_    0.353925 0.464711 0.013315 0.149157

loop_
_geom_bond_atom_site_label_1
_geom_bond_atom_site_label_2
_ccdc_geom_bond_type
C31   O7    A    
O5    Zn1   S    
C23   O5    A    
C20   H6    S    
C1    O1    A    
C27   N2    A    
C24   C25   A    
C16   C21   A    
C31   O8    A    
C11   C13   A    
N2    Zn1   S    
C25   H11   S    
O6    Zn2   S    
C35   C36   A    
C8    H21   S    
C26   H12   S    
C5    H18   S    
O3    Zn1   S    
C32   C33   A    
C19   C20   A    
C36   H19   S    
C17   C18   A    
C34   H15   S    
C5    C10   A    
C22   C28   A    
C4    H10   S    
C13   C14   A    
C12   C32   S    
C23   O6    A    
C28   N1    A    
C11   H4    S    
C26   C27   A    
C29   C30   A    
C13   H16   S    
C19   H3    S    
C12   O4    A    
C29   H7    S    
C2    C32   A    
C30   I1    S    
C14   H17   S    
C33   C34   A    
N1    Zn2   S    
O4    Zn2   S    
C6    C7    A    
C3    C7    A    
C21   C23   S    
C2    H14   S    
C1    O2    A    
C5    C6    A    
C30   N2    A    
C22   C24   A    
C16   C17   A    
C24   H9    S    
C4    C10   A    
C15   C16   A    
C9    H13   S    
C20   C21   A    
C15   H5    S    
O7    Zn1   S    
C34   C35   A    
C2    C36   A    
C27   C28   A    
C7    C9    S    
C1    C18   S    
C12   O3    A    
C18   C19   A    
C22   H8    S    
O1    Zn1   S    
C3    H20   S    
C25   C26   A    
C14   C15   A    
C6    H2    S    
C10   C31   S    
C8    C35   S    
O8    Zn2   S    
C33   H1    S    
C3    C4    A    
O2    Zn2   S    
C8    C9    D    
C29   N1    A    
C11   C17   A    
