data_mof_unit_59409.cif
_audit_creation_date              2012-12-11T15:39:27-0500
_audit_creation_method            fapswitch 2.2
_symmetry_space_group_name_H-M    P1
_symmetry_Int_Tables_number       1
_space_group_crystal_system       triclinic
_cell_length_a                    17.389291
_cell_length_b                    24.403318
_cell_length_c                    14.946104
_cell_angle_alpha                 90.013537
_cell_angle_beta                  125.691751
_cell_angle_gamma                 90.197951
_cell_volume                      5151.10160959

loop_
_atom_site_label
_atom_site_type_symbol
_atom_type_description
_atom_site_fract_x
_atom_site_fract_y
_atom_site_fract_z
_atom_type_partial_charge
C1    C     C_R   0.310669 0.374838 0.906503 -0.131375
C2    C     C_R   0.539150 0.500516 0.712828 0.040415
C3    C     C_R   0.168226 0.842259 0.000608 0.090673
C4    C     C_3   0.337101 0.785317 0.787994 0.156705
C5    C     C_3   0.292069 0.839925 0.730270 -0.296072
C6    C     C_3   0.352672 0.870292 0.702834 -0.997216
C7    C     C_3   0.834742 0.755060 0.253886 0.127616
C8    C     C_3   0.929225 0.762945 0.366816 -0.262954
C9    C     C_3   0.935585 0.819157 0.415675 -1.029403
C10   C     C_3   0.869666 0.282450 0.820477 0.154451
C11   C     C_3   0.859895 0.344484 0.799705 -0.307595
C12   C     C_3   0.945372 0.368104 0.808498 -0.974941
C13   C     C_R   0.062113 0.000336 0.365738 0.042430
C14   C     C_3   0.127216 0.280494 0.184538 0.158709
C15   C     C_3   0.139103 0.340839 0.219472 -0.298047
C16   C     C_3   0.055639 0.360818 0.218616 -0.996647
C17   C     C_R   0.044207 0.000947 0.718630 0.041568
C18   C     C_R   0.198473 0.501134 0.632291 0.079051
C19   C     C_R   0.826740 0.501343 0.288246 0.071625
C20   C     C_R   0.695590 0.001050 0.634589 0.070800
C21   C     C_R   0.325819 0.002067 0.282362 0.072224
C22   C     C_R   0.072971 0.552761 0.469229 0.152946
C23   C     C_R   0.978273 0.552724 0.383400 0.182877
C24   C     C_R   0.570620 0.053186 0.471668 0.148003
C25   C     C_R   0.675332 0.361334 0.092629 -0.136876
C26   C     C_R   0.477116 0.053667 0.382310 0.157291
C27   C     C_R   0.119523 0.503147 0.516285 0.035276
C28   C     C_R   0.928550 0.503199 0.342529 0.039770
C29   C     C_R   0.616395 0.003349 0.518659 0.037600
C30   C     C_R   0.427742 0.004264 0.337945 0.038753
C31   C     C_R   0.077089 0.454639 0.455528 -0.207911
C32   C     C_R   0.980970 0.454701 0.367932 -0.207545
C33   C     C_R   0.575179 0.955201 0.456180 -0.200471
C34   C     C_R   0.480404 0.955738 0.364888 -0.198793
C35   C     C_3   0.959866 0.602692 0.426199 -0.537040
C36   C     C_R   0.854480 0.847701 0.908065 -0.126215
C37   C     C_3   0.063296 0.602889 0.519900 -0.519821
C38   C     C_3   0.456190 0.102937 0.424547 -0.509487
C39   C     C_3   0.558561 0.102507 0.522022 -0.502256
C40   C     C_R   0.291732 0.768036 0.901114 0.570220
C41   C     C_R   0.817222 0.712858 0.104929 0.563866
C42   C     C_R   0.798600 0.269751 0.908172 0.575378
C43   C     C_R   0.195005 0.274485 0.092232 0.573648
C44   C     C_R   0.735053 0.304327 0.906994 -0.313124
C45   C     C_R   0.248546 0.316904 0.091720 -0.323613
C46   C     C_R   0.229334 0.802581 0.901973 -0.313190
C47   C     C_R   0.175400 0.861213 0.092100 -0.140051
C48   C     C_R   0.885641 0.738807 0.100316 -0.312387
C49   C     C_R   0.742253 0.313212 0.004217 0.086041
C50   C     C_R   0.238685 0.330013 0.994306 0.086100
C51   C     C_R   0.241189 0.813602 0.001211 0.087484
C52   C     C_R   0.860573 0.759586 0.000012 0.077036
C53   C     C_R   0.445620 0.652224 0.090963 -0.128902
C54   C     C_R   0.577265 0.644104 0.910014 -0.149223
C55   C     C_R   0.946398 0.151716 0.092413 -0.122704
C56   C     C_R   0.054249 0.152240 0.908580 -0.144677
C57   C     C_R   0.822300 0.295351 0.104967 -0.163415
C58   C     C_R   0.386241 0.684354 0.998977 0.086529
C59   C     C_R   0.164408 0.306765 0.894668 -0.161232
C60   C     C_R   0.325066 0.798462 0.101102 -0.165864
C61   C     C_R   0.783613 0.737299 0.901918 -0.162106
C62   C     C_R   0.385758 0.762721 0.100444 -0.236583
C63   C     C_R   0.719112 0.705810 0.904566 -0.232738
C64   C     C_R   0.882910 0.259258 0.105751 -0.240325
C65   C     C_R   0.114991 0.262809 0.895566 -0.247157
C66   C     C_R   0.360978 0.741141 0.999927 -0.042603
C67   C     C_R   0.730974 0.697132 0.005023 -0.014372
C68   C     C_R   0.862703 0.240427 0.005653 -0.060820
C69   C     C_R   0.657181 0.667392 0.003026 0.080623
C70   C     C_R   0.137638 0.242362 0.995880 -0.052926
C71   C     C_R   0.597694 0.550575 0.619723 -0.165964
C72   C     C_R   0.605305 0.550566 0.532819 -0.172401
C73   C     C_R   0.098397 0.050940 0.621166 -0.169035
C74   C     C_R   0.101888 0.050729 0.531246 -0.170153
C75   C     C_R   0.599128 0.500827 0.482132 0.142928
C76   C     C_R   0.583616 0.500853 0.655174 0.147621
C77   C     C_R   0.095012 0.000854 0.480432 0.143163
C78   C     C_R   0.087576 0.001294 0.659669 0.146575
C79   C     C_R   0.607693 0.451301 0.534686 -0.171969
C80   C     C_R   0.887218 0.184087 0.001622 0.078477
C81   C     C_R   0.600231 0.451342 0.621779 -0.175164
C82   C     C_R   0.105745 0.951470 0.534413 -0.176673
C83   C     C_R   0.102740 0.951735 0.624815 -0.164796
C84   C     C_R   0.549910 0.454694 0.304153 -0.141012
C85   C     C_R   0.509260 0.454643 0.739403 -0.125477
C86   C     C_R   0.046581 0.954437 0.302561 -0.131277
C87   C     C_R   0.011770 0.954945 0.741953 -0.123283
C88   C     C_R   0.247093 0.546142 0.696807 -0.145797
C89   C     C_R   0.768604 0.546343 0.254900 -0.148536
C90   C     C_R   0.745360 0.046160 0.698119 -0.144374
C91   C     C_R   0.114455 0.184847 0.999400 0.091420
C92   C     C_R   0.267200 0.046927 0.248589 -0.147584
C93   C     C_R   0.548377 0.545971 0.303004 -0.122205
C94   C     C_R   0.511742 0.546070 0.742654 -0.119894
C95   C     C_R   0.046540 0.045904 0.302169 -0.122419
C96   C     C_R   0.017236 0.046515 0.749323 -0.126802
C97   C     C_R   0.244784 0.455017 0.694950 -0.135987
C98   C     C_R   0.770736 0.455123 0.262005 -0.118501
C99   C     C_R   0.742805 0.954785 0.696804 -0.121239
C100  C     C_R   0.270763 0.955568 0.259387 -0.119309
C101  C     C_R   0.352773 0.651567 0.907733 -0.120366
C102  C     C_R   0.566122 0.500505 0.367486 0.045361
C103  C     C_R   0.666272 0.644527 0.092950 -0.118961
C104  C     C_R   0.853052 0.151946 0.909115 -0.123179
C105  C     C_R   0.146722 0.152549 0.091041 -0.142699
C106  C     C_R   0.402152 0.374294 0.091096 -0.130850
C107  C     C_R   0.584999 0.361409 0.909051 -0.141191
C108  C     C_R   0.946289 0.847877 0.091372 -0.137884
C109  C     C_R   0.083820 0.861021 0.908545 -0.142555
C110  C     C_R   0.312651 0.360615 0.997662 0.083934
C111  C     C_R   0.669010 0.342536 0.001699 0.089644
C112  C     C_R   0.888361 0.815430 0.999536 0.078690
H1    H     H_    0.253209 0.370414 0.820598 0.093226
H2    H     H_    0.101983 0.638757 0.518089 0.197758
H3    H     H_    0.407550 0.094133 0.448323 0.201669
H4    H     H_    0.598807 0.138611 0.524200 0.196164
H5    H     H_    0.679652 0.322909 0.829829 0.138182
H6    H     H_    0.300444 0.337470 0.168465 0.142584
H7    H     H_    0.170254 0.818662 0.824254 0.133102
H8    H     H_    0.950852 0.750906 0.176891 0.129579
H9    H     H_    0.835310 0.305414 0.183071 0.114878
H10   H     H_    0.150126 0.318024 0.816467 0.118314
H11   H     H_    0.341146 0.810542 0.179907 0.112525
H12   H     H_    0.723211 0.348143 0.176577 0.082109
H13   H     H_    0.766792 0.749149 0.822633 0.115139
H14   H     H_    0.444574 0.747289 0.178898 0.131586
H15   H     H_    0.657660 0.691438 0.826653 0.130293
H16   H     H_    0.937948 0.241811 0.184185 0.132231
H17   H     H_    0.066222 0.242147 0.818079 0.132302
H18   H     H_    0.593451 0.589680 0.650472 0.105020
H19   H     H_    0.605726 0.589662 0.499217 0.105415
H20   H     H_    0.094053 0.090082 0.651724 0.107875
H21   H     H_    0.100159 0.089788 0.496171 0.106252
H22   H     H_    0.610083 0.412175 0.502567 0.109766
H23   H     H_    0.815093 0.834651 0.823057 0.084687
H24   H     H_    0.598273 0.412309 0.654599 0.109312
H25   H     H_    0.107372 0.912303 0.501844 0.116549
H26   H     H_    0.102718 0.912775 0.659215 0.103014
H27   H     H_    0.492429 0.665411 0.175730 0.084313
H28   H     H_    0.540325 0.657949 0.826120 0.082187
H29   H     H_    0.994393 0.164471 0.177312 0.077999
H30   H     H_    0.005396 0.165575 0.824369 0.079898
H31   H     H_    0.568242 0.412817 0.331911 0.088581
H32   H     H_    0.509327 0.413114 0.716074 0.086636
H33   H     H_    0.062742 0.912332 0.329486 0.089992
H34   H     H_    0.224165 0.848007 0.175970 0.082360
H35   H     H_    0.011819 0.913542 0.717978 0.087508
H36   H     H_    0.241853 0.587833 0.669724 0.104127
H37   H     H_    0.789089 0.588372 0.263703 0.127169
H38   H     H_    0.738973 0.087895 0.670713 0.103658
H39   H     H_    0.285241 0.089352 0.250857 0.112923
H40   H     H_    0.564523 0.588275 0.329041 0.083023
H41   H     H_    0.516900 0.588165 0.726065 0.084822
H42   H     H_    0.062990 0.088145 0.328551 0.083937
H43   H     H_    0.028389 0.089156 0.741067 0.093995
H44   H     H_    0.234176 0.413316 0.665478 0.085860
H45   H     H_    0.939355 0.638155 0.370345 0.238861
H46   H     H_    0.795425 0.413796 0.285383 0.084759
H47   H     H_    0.730867 0.912863 0.668131 0.085232
H48   H     H_    0.296200 0.914393 0.283437 0.085543
H49   H     H_    0.312078 0.663029 0.822211 0.153013
H50   H     H_    0.707259 0.658835 0.176664 0.140395
H51   H     H_    0.811504 0.164437 0.823992 0.147312
H52   H     H_    0.186242 0.165673 0.175779 0.147008
H53   H     H_    0.429020 0.368414 0.176239 0.099630
H54   H     H_    0.551563 0.347680 0.825638 0.090906
H55   H     H_    0.992020 0.835339 0.176521 0.090423
H56   H     H_    0.075347 0.595132 0.600509 0.210689
H57   H     H_    0.049122 0.847250 0.824936 0.089197
H58   H     H_    0.113203 0.415718 0.483395 0.129973
H59   H     H_    0.946538 0.415935 0.330598 0.132859
H60   H     H_    0.610994 0.916209 0.484498 0.123248
H61   H     H_    0.446396 0.917154 0.325712 0.124839
H62   H     H_    0.349338 0.760612 0.734960 0.128056
H63   H     H_    0.408276 0.792287 0.867028 0.083884
H64   H     H_    0.220807 0.832121 0.652833 0.204690
H65   H     H_    0.283612 0.866363 0.784491 0.194528
H66   H     H_    0.423959 0.879128 0.779274 0.268884
H67   H     H_    0.437551 0.139361 0.370939 0.200999
H68   H     H_    0.318335 0.909690 0.661872 0.275838
H69   H     H_    0.360194 0.845386 0.646149 0.260277
H70   H     H_    0.777117 0.753375 0.265317 0.114913
H71   H     H_    0.820426 0.791783 0.201561 0.101371
H72   H     H_    0.936907 0.730818 0.424135 0.204532
H73   H     H_    0.988699 0.758806 0.359069 0.193714
H74   H     H_    0.931744 0.852119 0.361936 0.268294
H75   H     H_    0.004086 0.823015 0.498192 0.266017
H76   H     H_    0.877050 0.824325 0.424816 0.268977
H77   H     H_    0.873702 0.262313 0.756667 0.126754
H78   H     H_    0.567668 0.093547 0.600657 0.206058
H79   H     H_    0.937415 0.272769 0.901129 0.089648
H80   H     H_    0.794726 0.352853 0.716149 0.208331
H81   H     H_    0.853617 0.365495 0.861124 0.196209
H82   H     H_    0.010535 0.362274 0.893201 0.272984
H83   H     H_    0.935076 0.412680 0.790560 0.270593
H84   H     H_    0.953989 0.347852 0.748301 0.262751
H85   H     H_    0.122267 0.255389 0.243008 0.123698
H86   H     H_    0.059158 0.274160 0.101873 0.086320
H87   H     H_    0.205412 0.345808 0.303765 0.208719
H88   H     H_    0.144443 0.366758 0.162206 0.195450
H89   H     H_    0.913985 0.594757 0.454190 0.200218
H90   H     H_    0.989264 0.358476 0.133849 0.277378
H91   H     H_    0.067679 0.404152 0.246565 0.276408
H92   H     H_    0.048025 0.335736 0.275056 0.259331
N1    N     N_R   0.394180 0.396910 0.943210 -0.042620
N2    N     N_R   0.474350 0.471570 0.793850 -0.038655
N3    N     N_R   0.025650 0.971570 0.206150 -0.039333
N4    N     N_R   0.974350 0.971570 0.793850 -0.039732
N5    N     N_R   0.319480 0.528420 0.793810 -0.040282
N6    N     N_R   0.680520 0.528420 0.206190 -0.042422
N7    N     N_R   0.819480 0.028420 0.793810 -0.040960
N8    N     N_R   0.180520 0.028420 0.206190 -0.041691
N9    N     N_R   0.525640 0.528390 0.206120 -0.038675
N10   N     N_R   0.474360 0.528390 0.793880 -0.039469
N11   N     N_R   0.025640 0.028390 0.206120 -0.039431
N12   N     N_R   0.605820 0.396910 0.056790 -0.038778
N13   N     N_R   0.974360 0.028390 0.793880 -0.040112
N14   N     N_R   0.319490 0.471590 0.793840 -0.039712
N15   N     N_R   0.680510 0.471590 0.206160 -0.039046
N16   N     N_R   0.819490 0.971590 0.793840 -0.040988
N17   N     N_R   0.180510 0.971590 0.206160 -0.039976
N18   N     N_R   0.394130 0.603080 0.943110 -0.049518
N19   N     N_R   0.605870 0.603080 0.056890 -0.046886
N20   N     N_R   0.894130 0.103080 0.943110 -0.047209
N21   N     N_R   0.105870 0.103080 0.056890 -0.045320
N22   N     N_R   0.450990 0.396900 0.056840 -0.042758
N23   N     N_R   0.894180 0.896910 0.943210 -0.041034
N24   N     N_R   0.549010 0.396900 0.943160 -0.038813
N25   N     N_R   0.950990 0.896900 0.056840 -0.040208
N26   N     N_R   0.049010 0.896900 0.943160 -0.037694
N27   N     N_R   0.105820 0.896910 0.056790 -0.037095
N28   N     N_R   0.450950 0.603070 0.056740 -0.041526
N29   N     N_R   0.549050 0.603070 0.943260 -0.036735
N30   N     N_R   0.950950 0.103070 0.056740 -0.039743
N31   N     N_R   0.049050 0.103070 0.943260 -0.036932
N32   N     N_R   0.525650 0.471570 0.206150 -0.038770
Ni1   Ni    Ni4+2 0.434860 0.434850 0.869700 0.214787
Ni2   Ni    Ni4+2 0.565140 0.434850 0.130300 0.214605
Ni3   Ni    Ni4+2 0.934860 0.934850 0.869700 0.210621
Ni4   Ni    Ni4+2 0.065140 0.934850 0.130300 0.211027
Ni5   Ni    Ni4+2 0.565130 0.565140 0.130240 0.204301
Ni6   Ni    Ni4+2 0.434870 0.565140 0.869760 0.206992
Ni7   Ni    Ni4+2 0.065130 0.065140 0.130240 0.204989
Ni8   Ni    Ni4+2 0.934870 0.065140 0.869760 0.205037
O1    O     O_3   0.274593 0.755180 0.800974 -0.693369
O2    O     O_3   0.835205 0.704457 0.207054 -0.705903
O3    O     O_3   0.789372 0.261011 0.810875 -0.688438
O4    O     O_3   0.207046 0.262211 0.189923 -0.688060

loop_
_geom_bond_atom_site_label_1
_geom_bond_atom_site_label_2
_ccdc_geom_bond_type
C44   C49   A    
C101  N18   A    
C17   C96   A    
C36   H23   S    
C68   C80   S    
N22   Ni2   S    
C99   H47   S    
C41   O2    S    
C95   N11   A    
C73   C74   A    
C91   C105  A    
C70   C91   S    
C90   H38   S    
C9    H76   S    
C104  H51   S    
C40   O1    S    
N18   Ni6   S    
C7    C8    S    
C41   C67   A    
C40   C46   A    
N7    N16   A    
C14   H86   S    
C7    O2    S    
N12   N24   A    
C75   C79   A    
C87   H35   S    
C20   C29   S    
C80   C104  A    
C97   N14   A    
C55   H29   S    
C50   C59   A    
C77   C82   A    
N15   Ni2   S    
C100  N17   A    
C84   N32   A    
C24   C26   A    
N8    Ni7   S    
C52   C61   A    
C90   N7    A    
C15   H88   S    
C96   H43   S    
C47   N27   A    
C52   C112  S    
C43   C70   A    
C96   N13   A    
C74   H21   S    
C29   C33   A    
C50   C110  S    
C24   C39   S    
C49   C57   A    
N4    Ni3   S    
C2    C85   A    
C60   C62   A    
C11   H80   S    
C97   H44   S    
C61   C63   A    
N20   N30   A    
C24   C29   A    
N19   N29   A    
C103  N19   A    
C78   C83   A    
C58   C66   S    
C56   C91   A    
C54   H28   S    
C98   H46   S    
C8    C9    S    
C64   H16   S    
C74   C77   A    
C13   C86   A    
C36   C112  A    
C75   C102  S    
C73   C78   A    
C106  N22   A    
N16   Ni3   S    
C18   C97   A    
C105  N21   A    
C16   H91   S    
C1    N1    A    
N30   Ni7   S    
N8    N17   A    
C56   H30   S    
C8    H72   S    
C59   H10   S    
C89   H37   S    
C73   H20   S    
N18   N28   A    
C40   C66   A    
C98   N15   A    
C6    H66   S    
C42   C68   A    
C12   H84   S    
N26   Ni3   S    
C42   C44   A    
C72   C75   A    
C16   H90   S    
C85   H32   S    
C19   C98   A    
C109  H57   S    
C85   N2    A    
C37   H56   S    
C14   O4    S    
C108  N25   A    
C69   C103  A    
C45   H6    S    
C38   C39   S    
N31   Ni8   S    
C14   H85   S    
C13   C77   S    
C42   O3    S    
C94   N10   A    
C10   H77   S    
C15   C16   S    
C30   C34   A    
C6    H69   S    
C93   N9    A    
N28   Ni5   S    
N21   N31   A    
C106  H53   S    
C2    C94   A    
C88   N5    A    
C48   H8    S    
C9    H74   S    
C6    H68   S    
C79   C81   A    
C21   C100  A    
C62   C66   A    
N20   Ni8   S    
C37   H2    S    
N17   Ni4   S    
C84   H31   S    
C22   C37   S    
C27   C31   A    
C46   C51   A    
C4    H63   S    
C18   C88   A    
N6    N15   A    
C108  C112  A    
C3    C109  A    
N27   Ni4   S    
C67   C69   S    
N5    Ni6   S    
C60   H11   S    
C35   H45   S    
C63   C67   A    
C19   C89   A    
C1    C110  A    
C72   H19   S    
C15   H87   S    
C109  N26   A    
C100  H48   S    
C31   C32   A    
C28   C32   A    
C43   O4    S    
C53   C58   A    
N23   Ni3   S    
C107  N24   A    
C92   H39   S    
N3    N11   A    
C33   C34   A    
C88   H36   S    
C105  H52   S    
N1    N22   A    
C56   N31   A    
C58   C101  A    
C23   C28   A    
N25   Ni4   S    
N1    Ni1   S    
C19   C28   S    
C43   C45   A    
C5    H65   S    
N9    Ni5   S    
N3    Ni4   S    
N23   N25   A    
C32   H59   S    
C13   C95   A    
C26   C30   A    
C36   N23   A    
C23   C35   S    
C22   C27   A    
C47   H34   S    
C5    H64   S    
C92   N8    A    
N21   Ni7   S    
N5    N14   A    
C55   N30   A    
N9    N32   A    
C86   H33   S    
C64   C68   A    
C2    C76   S    
C57   C64   A    
C62   H14   S    
C106  C110  A    
N4    N13   A    
C39   H78   S    
C79   H22   S    
C61   H13   S    
C54   C69   A    
C103  H50   S    
C3    C51   S    
C38   H67   S    
C7    H70   S    
C35   C37   S    
C53   H27   S    
C93   C102  A    
C107  C111  A    
N7    Ni8   S    
C108  H55   S    
C22   C23   A    
C35   H89   S    
C18   C27   S    
C11   H81   S    
N6    Ni5   S    
C4    C5    S    
C9    H75   S    
C84   C102  A    
C76   C81   A    
C65   H17   S    
C11   C12   S    
C89   N6    A    
C51   C60   A    
C31   H58   S    
C38   H3    S    
C8    H73   S    
C82   H25   S    
C21   C30   S    
C86   N3    A    
N11   Ni7   S    
C10   H79   S    
N14   Ni1   S    
C49   C111  S    
N10   Ni6   S    
C95   H42   S    
C26   C38   S    
C101  H49   S    
N13   Ni8   S    
N12   Ni2   S    
N24   Ni1   S    
C34   H61   S    
C16   H92   S    
C59   C65   A    
C71   H18   S    
C45   C50   A    
C55   C80   A    
N2    N10   A    
C71   C76   A    
C20   C99   A    
C20   C90   A    
C44   H5    S    
N19   Ni5   S    
C94   H41   S    
C3    C47   A    
C17   C78   S    
C12   H83   S    
C41   C48   A    
N32   Ni2   S    
C46   H7    S    
N2    Ni1   S    
C7    H71   S    
C1    H1    S    
N26   N27   A    
C25   H12   S    
C87   N4    A    
C107  H54   S    
C17   C87   A    
C10   C11   S    
C25   C111  A    
C53   N28   A    
C57   H9    S    
C25   N12   A    
N29   Ni6   S    
C71   C72   A    
C99   N16   A    
C39   H4    S    
C5    C6    S    
C14   C15   S    
C93   H40   S    
C4    H62   S    
C10   O3    S    
C54   N29   A    
C82   C83   A    
C48   C52   A    
C33   H60   S    
C81   H24   S    
C104  N20   A    
C83   H26   S    
C63   H15   S    
C65   C70   A    
C12   H82   S    
C4    O1    S    
C21   C92   A    
