data_mof_unit_46377.cif
_audit_creation_date              2012-12-10T19:45:39-0500
_audit_creation_method            fapswitch 2.2
_symmetry_space_group_name_H-M    P1
_symmetry_Int_Tables_number       1
_space_group_crystal_system       triclinic
_cell_length_a                    10.836535
_cell_length_b                    14.687628
_cell_length_c                    14.545098
_cell_angle_alpha                 65.756409
_cell_angle_beta                  103.474323
_cell_angle_gamma                 102.645717
_cell_volume                      2032.84546367

loop_
_atom_site_label
_atom_site_type_symbol
_atom_type_description
_atom_site_fract_x
_atom_site_fract_y
_atom_site_fract_z
_atom_type_partial_charge
C1    C     C_R   0.476086 0.119201 0.311284 0.824247
C2    C     C_R   0.523908 0.880799 0.688714 0.824247
C3    C     C_R   0.870574 0.000876 0.495696 -0.084191
C4    C     C_R   0.129430 0.999115 0.504322 -0.084185
C5    C     C_R   0.906889 0.953005 0.441377 -0.004248
C6    C     C_R   0.093115 0.046984 0.558644 -0.004240
C7    C     C_R   0.457850 0.185871 0.201827 -0.121046
C8    C     C_R   0.542148 0.814131 0.798169 -0.121042
C9    C     C_R   0.385232 0.220152 0.021347 -0.210812
C10   C     C_R   0.614856 0.779848 0.978638 -0.210808
C11   C     C_R   0.399430 0.151302 0.122132 0.256535
C12   C     C_R   0.600633 0.848697 0.877855 0.256536
C13   C     C_R   0.497986 0.289362 0.177460 -0.302366
C14   C     C_R   0.501965 0.710643 0.822542 -0.302369
C15   C     C_R   0.477309 0.360294 0.076829 0.092151
C16   C     C_R   0.522710 0.639711 0.923167 0.092154
C17   C     C_R   0.423388 0.323460 0.998163 0.108687
C18   C     C_R   0.576680 0.676543 0.001826 0.108690
C19   C     C_R   0.509158 0.466352 0.052206 0.077375
C20   C     C_R   0.490879 0.533653 0.947789 0.077371
C21   C     C_R   0.443090 0.492539 0.871554 -0.214735
C22   C     C_R   0.556993 0.507467 0.128438 -0.214725
C23   C     C_R   0.262830 0.999221 0.502526 0.794317
C24   C     C_R   0.737171 0.000776 0.497479 0.794344
C25   C     C_R   0.408181 0.389769 0.896691 -0.208943
C26   C     C_R   0.591922 0.610236 0.103296 -0.208958
C27   C     C_R   0.729203 0.293863 0.656031 -0.301932
C28   C     C_R   0.270798 0.706139 0.343966 -0.301920
C29   C     C_R   0.690995 0.209453 0.630234 0.125100
C30   C     C_R   0.309008 0.790550 0.369762 0.125119
C31   C     C_R   0.513419 0.282321 0.513149 0.022187
C32   C     C_R   0.486578 0.717677 0.486854 0.022185
C33   C     C_R   0.548273 0.371547 0.534816 -0.027941
C34   C     C_R   0.451723 0.628451 0.465187 -0.027947
C35   C     C_R   0.658471 0.375069 0.608696 0.148238
C36   C     C_R   0.341526 0.624931 0.391305 0.148245
C37   C     C_R   0.478826 0.456613 0.486400 0.067174
C38   C     C_R   0.521168 0.543385 0.513603 0.067174
C39   C     C_R   0.631245 0.542035 0.588304 -0.244989
C40   C     C_R   0.368748 0.457962 0.411701 -0.244980
C41   C     C_R   0.698117 0.459655 0.634543 -0.193770
C42   C     C_R   0.301878 0.540343 0.365461 -0.193766
C43   C     C_R   0.347017 0.077458 0.776217 -0.061075
C44   C     C_R   0.653053 0.922585 0.223746 -0.061055
C45   C     C_R   0.260128 0.033390 0.713504 -0.101966
C46   C     C_R   0.739924 0.966633 0.286485 -0.102022
C47   C     C_R   0.185993 0.093357 0.625055 0.124021
C48   C     C_R   0.814014 0.906647 0.374951 0.124029
C49   C     C_R   0.198915 0.197583 0.600996 -0.156072
C50   C     C_R   0.801062 0.802419 0.399006 -0.156056
C51   C     C_R   0.286391 0.241348 0.663735 -0.151306
C52   C     C_R   0.713600 0.758673 0.336243 -0.151317
C53   C     C_R   0.360891 0.181414 0.750960 -0.105454
C54   C     C_R   0.639149 0.818628 0.248997 -0.105409
C55   C     C_R   0.963807 0.047814 0.552896 -0.223960
C56   C     C_R   0.036195 0.952174 0.447125 -0.223970
Cu1   Cu    Cu3+1 0.466270 0.918260 0.475690 0.962154
Cu2   Cu    Cu3+1 0.533730 0.081740 0.524310 0.962144
H1    H     H_    0.429122 0.215462 0.799084 0.134703
H2    H     H_    0.570934 0.784596 0.200851 0.134721
H3    H     H_    0.341828 0.192781 0.960721 0.165099
H4    H     H_    0.658303 0.807214 0.039261 0.165098
H5    H     H_    0.431715 0.537136 0.790925 0.141889
H6    H     H_    0.568425 0.462878 0.209067 0.141875
H7    H     H_    0.782366 0.462366 0.691252 0.146129
H8    H     H_    0.217628 0.537632 0.308751 0.146127
H9    H     H_    0.569202 0.727364 0.541336 0.128110
H10   H     H_    0.430793 0.272633 0.458668 0.128108
H11   H     H_    0.253037 0.852330 0.334647 0.161372
H12   H     H_    0.746971 0.147676 0.665344 0.161393
H13   H     H_    0.814282 0.295972 0.712140 0.152251
H14   H     H_    0.185722 0.704031 0.287856 0.152244
H15   H     H_    0.668874 0.603924 0.612979 0.136662
H16   H     H_    0.331117 0.396072 0.387028 0.136662
H17   H     H_    0.403297 0.030941 0.844590 0.172996
H18   H     H_    0.596813 0.969119 0.155357 0.172997
H19   H     H_    0.142228 0.244882 0.533269 0.128443
H20   H     H_    0.857715 0.755104 0.466746 0.128439
H21   H     H_    0.296862 0.321790 0.644496 0.140030
H22   H     H_    0.703106 0.678230 0.355476 0.140025
H23   H     H_    0.935943 0.082984 0.596137 0.161526
H24   H     H_    0.064058 0.917005 0.403881 0.161522
H25   H     H_    0.369662 0.361935 0.835794 0.139003
H26   H     H_    0.630482 0.638068 0.164191 0.139003
H27   H     H_    0.453152 0.687288 0.760963 0.166187
H28   H     H_    0.546696 0.312719 0.239056 0.166195
N1    N     N_R   0.584450 0.204570 0.560790 -0.180140
N2    N     N_R   0.415550 0.795430 0.439210 -0.180138
O1    O     O_R   0.455540 0.022090 0.338120 -0.537212
O2    O     O_R   0.544460 0.977910 0.661880 -0.537227
O3    O     O_R   0.512510 0.160150 0.379180 -0.600496
O4    O     O_R   0.487490 0.839850 0.620820 -0.600492
O5    O     O_R   0.291160 0.930970 0.479480 -0.594594
O6    O     O_R   0.708840 0.069030 0.520520 -0.594584
O7    O     O_R   0.348130 0.069020 0.520540 -0.576895
O8    O     O_R   0.651870 0.930980 0.479460 -0.576885
H29   H     H_    0.250528 0.952784 0.733704 0.110145
H30   H     H_    0.749549 0.047240 0.266290 0.110158
Br1   Br    Br    0.667994 0.986521 0.857965 -0.582661
Br2   Br    Br    0.332119 0.013470 0.142015 -0.582641

loop_
_geom_bond_atom_site_label_1
_geom_bond_atom_site_label_2
_ccdc_geom_bond_type
Cu1   O4    S    
C27   C29   A    
C5    C56   A    
C36   C42   A    
C19   C20   A    
C18   C26   A    
C6    C55   A    
Cu2   N1    S    
C53   H1    S    
C39   C41   A    
C54   H2    S    
C29   N1    A    
C15   C19   A    
Cu1   O1    S    
C23   O7    A    
C9    H3    S    
C37   C40   A    
C24   O8    A    
C38   C39   A    
C32   N2    A    
C2    O2    A    
C44   H18   S    
C12   Br1   S    
C3    C55   A    
C43   C53   A    
C44   C46   A    
C49   C51   A    
Cu1   O8    S    
C13   H28   S    
C50   C52   A    
C31   C33   A    
C55   H23   S    
Cu2   O3    S    
C34   C36   A    
C8    C12   A    
C40   C42   A    
C46   H30   S    
C1    O3    A    
C34   C38   A    
C4    C56   A    
C3    C24   S    
C28   H14   S    
C50   H20   S    
C52   C54   A    
C45   C47   A    
C43   H17   S    
C31   H10   S    
C5    C48   S    
C46   C48   A    
C31   N1    A    
C6    C47   S    
C19   C22   A    
C4    C6    A    
C4    C23   S    
C41   H7    S    
C27   C35   A    
C33   C37   A    
C23   O5    A    
C11   Br2   S    
C51   C53   A    
C32   C34   A    
C7    C11   A    
Cu2   O7    S    
C37   C38   A    
C24   O6    A    
C9    C11   A    
C16   C20   A    
C2    O4    A    
C43   C45   A    
C10   C12   A    
Cu2   O2    S    
C32   H9    S    
C9    C17   A    
C13   C15   A    
C8    C14   A    
C10   H4    S    
C30   N2    A    
C30   H11   S    
C27   H13   S    
C25   H25   S    
C29   H12   S    
C15   C17   A    
C21   C25   A    
C1    O1    A    
C1    C7    S    
C2    C8    S    
C14   H27   S    
C3    C5    A    
C56   H24   S    
C47   C49   A    
Cu1   N2    S    
C17   C25   A    
C28   C30   A    
Cu2   O6    S    
C45   H29   S    
C49   H19   S    
C26   H26   S    
Cu1   Cu2   S    
C10   C18   A    
C48   C50   A    
C33   C35   A    
C40   H16   S    
C14   C16   A    
C39   H15   S    
C35   C41   A    
C51   H21   S    
C21   H5    S    
C22   H6    S    
C44   C54   A    
C7    C13   A    
C20   C21   A    
C28   C36   A    
C16   C18   A    
C22   C26   A    
C42   H8    S    
Cu1   O5    S    
C52   H22   S    
