data_mof_unit_37553.cif
_audit_creation_date              2012-12-10T18:09:46-0500
_audit_creation_method            fapswitch 2.2
_symmetry_space_group_name_H-M    P1
_symmetry_Int_Tables_number       1
_space_group_crystal_system       triclinic
_cell_length_a                    10.626937
_cell_length_b                    12.598975
_cell_length_c                    13.111503
_cell_angle_alpha                 82.299001
_cell_angle_beta                  90.493808
_cell_angle_gamma                 102.430858
_cell_volume                      1698.49217402

loop_
_atom_site_label
_atom_site_type_symbol
_atom_type_description
_atom_site_fract_x
_atom_site_fract_y
_atom_site_fract_z
_atom_type_partial_charge
C1    C     C_R   0.480066 0.438784 0.691198 0.847250
C2    C     C_3   0.121386 0.500341 0.500459 0.166752
C3    C     C_3   0.065892 0.480348 0.393470 -0.402422
C4    C     C_3   0.100386 0.613218 0.524482 -0.368452
C5    C     C_R   0.406180 0.702499 0.064733 -0.138134
C6    C     C_R   0.499976 0.596686 0.199970 -0.047889
C7    C     C_R   0.496153 0.299615 0.838955 -0.184904
C8    C     C_R   0.505411 0.270689 0.944172 -0.141131
C9    C     C_R   0.491398 0.344284 0.011217 -0.176137
C10   C     C_R   0.461569 0.446806 0.973613 0.086575
C11   C     C_R   0.431483 0.467220 0.869306 0.017860
C12   C     C_R   0.741943 0.500574 0.500422 0.829682
C13   C     C_R   0.461133 0.529811 0.035976 0.023987
C14   C     C_R   0.409326 0.622788 0.999504 0.071487
C15   C     C_R   0.360862 0.632598 0.899575 0.346397
C16   C     C_R   0.372170 0.555465 0.835663 -0.256100
C17   C     C_R   0.514488 0.523628 0.133204 -0.225940
C18   C     C_R   0.449017 0.688245 0.165382 -0.234302
C19   C     C_R   0.463404 0.399377 0.800886 -0.093397
C20   C     C_R   0.322246 0.088440 0.345869 -0.306585
C21   C     C_R   0.651513 0.799187 0.630669 0.038579
C22   C     C_R   0.682079 0.903460 0.659838 -0.223305
C23   C     C_R   0.512625 0.561080 0.308680 0.855941
C24   C     C_R   0.624418 0.985086 0.610608 -0.181500
C25   C     C_R   0.535564 0.962434 0.531308 0.023861
C26   C     C_R   0.507893 0.854712 0.504477 0.253061
C27   C     C_R   0.473242 0.041756 0.477841 -0.010340
C28   C     C_R   0.384653 0.011642 0.399371 0.202400
C29   C     C_R   0.359511 0.905354 0.374677 -0.300830
C30   C     C_R   0.420684 0.828329 0.426349 -0.223063
C31   C     C_R   0.495216 0.150575 0.498479 -0.048076
C32   C     C_R   0.348295 0.194518 0.370071 0.005680
C33   C     C_R   0.258039 0.499721 0.500131 0.810983
C34   C     C_3   0.905399 0.409714 0.584060 -0.401354
C35   C     C_3   0.049789 0.409156 0.583903 -0.393587
C36   C     C_3   0.921651 0.481355 0.393514 -0.395137
C37   C     C_3   0.957624 0.613693 0.524934 -0.390719
C38   C     C_3   0.878814 0.501495 0.500774 0.171839
H1    H     H_    0.849528 0.328067 0.568917 0.176755
H2    H     H_    0.150861 0.680526 0.465482 0.179499
H3    H     H_    0.902987 0.546850 0.333129 0.158879
H4    H     H_    0.117585 0.545195 0.332909 0.158805
H5    H     H_    0.436789 0.745630 0.217017 0.150253
H6    H     H_    0.366591 0.773767 0.040072 0.191614
H7    H     H_    0.564427 0.459626 0.160739 0.144604
H8    H     H_    0.518334 0.245541 0.787299 0.153994
H9    H     H_    0.501126 0.317774 0.092077 0.131348
H10   H     H_    0.529022 0.193025 0.973621 0.147404
H11   H     H_    0.874650 0.423223 0.661393 0.161421
H12   H     H_    0.332426 0.564618 0.759506 0.193156
H13   H     H_    0.301493 0.255395 0.329351 0.133937
H14   H     H_    0.292411 0.881562 0.314804 0.151284
H15   H     H_    0.254523 0.066718 0.285873 0.146665
H16   H     H_    0.560912 0.181360 0.555957 0.121004
H17   H     H_    0.695620 0.735211 0.668814 0.137617
H18   H     H_    0.651179 0.064452 0.636318 0.129839
H19   H     H_    0.750025 0.920952 0.720538 0.154228
H20   H     H_    0.397919 0.748514 0.403333 0.207040
H21   H     H_    0.089632 0.422737 0.661071 0.161192
H22   H     H_    0.062964 0.327335 0.568729 0.184761
H23   H     H_    0.865884 0.401502 0.373903 0.182815
H24   H     H_    0.079151 0.399917 0.374357 0.180047
H25   H     H_    0.939857 0.681311 0.466433 0.181597
H26   H     H_    0.928544 0.630123 0.601747 0.184800
H27   H     H_    0.140283 0.630168 0.600960 0.205902
N1    N     N_R   0.433240 0.222190 0.444680 -0.101706
N2    N     N_R   0.566070 0.776970 0.554790 -0.130376
O1    O     O_R   0.468120 0.366740 0.627160 -0.612525
O2    O     O_R   0.510770 0.544830 0.662520 -0.609833
O3    O     O_R   0.663880 0.410950 0.482330 -0.626683
O4    O     O_R   0.706530 0.589040 0.517700 -0.627464
O5    O     O_R   0.489230 0.455170 0.337480 -0.615005
O6    O     O_R   0.531880 0.633260 0.372840 -0.632436
O7    O     O_R   0.293470 0.410960 0.482300 -0.618814
O8    O     O_R   0.336120 0.589050 0.517670 -0.644074
Zn1   Zn    Zn3+2 0.471520 0.381090 0.476390 0.931473
Zn2   Zn    Zn3+2 0.528480 0.618910 0.523610 0.930162
Cl1   Cl    Cl    0.288994 0.741781 0.849239 -0.662206

loop_
_geom_bond_atom_site_label_1
_geom_bond_atom_site_label_2
_ccdc_geom_bond_type
C2    C35   S    
C31   N1    A    
C3    H4    S    
O2    Zn2   S    
N2    Zn2   S    
O5    Zn1   S    
C22   H19   S    
C7    C8    A    
C11   C19   A    
C37   C38   S    
O7    Zn1   S    
C26   N2    A    
C28   C29   A    
C17   H7    S    
C4    H27   S    
C15   Cl1   S    
C15   C16   A    
C1    O1    A    
C35   H21   S    
C34   C35   S    
C33   O8    A    
C4    H2    S    
C8    C9    A    
C9    C10   A    
C13   C14   A    
C21   N2    A    
C36   H3    S    
C23   O6    A    
C37   H25   S    
C6    C18   A    
C1    C19   S    
C27   C31   A    
C34   H1    S    
C7    H8    S    
C24   C25   A    
C21   H17   S    
C5    C18   A    
C20   C28   A    
C25   C26   A    
C1    O2    A    
C35   H22   S    
C2    C4    S    
C8    H10   S    
C32   H13   S    
C29   C30   A    
C11   C16   A    
N1    Zn1   S    
O1    Zn1   S    
O8    Zn2   S    
C5    C14   A    
C2    C33   S    
C12   O4    A    
C9    H9    S    
C7    C19   A    
O3    Zn1   S    
C22   C24   A    
C24   H18   S    
C36   H23   S    
O4    Zn2   S    
C37   H26   S    
C32   N1    A    
C20   C32   A    
C3    H24   S    
C6    C17   A    
C12   O3    A    
C34   H11   S    
C34   C38   S    
C23   O5    A    
C5    H6    S    
C16   H12   S    
C20   H15   S    
C10   C13   A    
C26   C30   A    
C25   C27   A    
C13   C17   A    
C36   C38   S    
C2    C3    S    
C18   H5    S    
C3    C36   S    
C6    C23   S    
C30   H20   S    
C31   H16   S    
C12   C38   S    
C10   C11   A    
C33   O7    A    
C4    C37   S    
C27   C28   A    
O6    Zn2   S    
C14   C15   A    
C21   C22   A    
C29   H14   S    
