data_mof_unit_65666.cif
_audit_creation_date              2012-12-11T15:00:37-0500
_audit_creation_method            fapswitch 2.2
_symmetry_space_group_name_H-M    P1
_symmetry_Int_Tables_number       1
_space_group_crystal_system       triclinic
_cell_length_a                    13.291882
_cell_length_b                    13.293146
_cell_length_c                    26.783314
_cell_angle_alpha                 96.724269
_cell_angle_beta                  97.095635
_cell_angle_gamma                 62.224172
_cell_volume                      4145.46610675

loop_
_atom_site_label
_atom_site_type_symbol
_atom_type_description
_atom_site_fract_x
_atom_site_fract_y
_atom_site_fract_z
_atom_type_partial_charge
C1    C     C_R   0.379744 0.722124 0.434802 0.552203
C2    C     C_1   0.331611 0.339966 0.268006 0.078761
C3    C     C_1   0.344930 0.347471 0.320922 0.057601
C4    C     C_1   0.363052 0.356457 0.365843 0.072083
C5    C     C_3   0.747523 0.294234 0.266062 0.136895
C6    C     C_3   0.956557 0.231123 0.288193 0.367478
C7    C     C_3   0.966346 0.215174 0.229280 0.081973
C8    C     C_1   0.900959 0.290528 0.104148 0.100057
C9    C     C_3   0.835279 0.329176 0.298286 -0.018032
C10   C     C_3   0.747227 0.307792 0.208877 0.405163
C11   C     C_3   0.860888 0.312862 0.200934 -0.022382
C12   C     C_R   0.395197 0.373455 0.417710 0.557597
C13   C     C_3   0.855544 0.429432 0.225264 0.492783
C14   C     C_3   0.820372 0.446412 0.281351 0.434387
C15   C     C_1   0.878400 0.301079 0.147029 0.136745
C16   C     C_1   0.813390 0.342313 0.351561 0.074182
C17   C     C_1   0.781222 0.363142 0.393003 0.077539
C18   C     C_3   0.454710 0.708477 0.266679 0.173348
C19   C     C_3   0.346612 0.922435 0.280779 0.378354
C20   C     C_3   0.318857 0.938899 0.223243 -0.218654
C21   C     C_1   0.309166 0.877733 0.097674 0.055433
C22   C     C_3   0.347969 0.808217 0.290523 -0.029137
C23   C     C_R   0.725931 0.399129 0.438334 0.557766
C24   C     C_3   0.459141 0.731308 0.210793 0.141714
C25   C     C_3   0.339347 0.824066 0.192531 -0.043247
C26   C     C_3   0.252581 0.783248 0.204954 0.130126
C27   C     C_3   0.238227 0.805125 0.262474 -0.194138
C28   C     C_1   0.329247 0.844086 0.139123 0.018537
C29   C     C_1   0.354149 0.793361 0.344649 0.085739
C30   C     C_1   0.363492 0.768853 0.387371 0.082851
C31   C     C_3   0.439096 0.353105 0.730887 0.150382
C32   C     C_3   0.337276 0.230076 0.706339 0.131236
C33   C     C_3   0.313085 0.231135 0.761815 0.129544
C34   C     C_R   0.382202 0.724141 0.575541 0.546215
C35   C     C_1   0.297504 0.309108 0.888402 0.077606
C36   C     C_3   0.336085 0.345207 0.698109 0.013727
C37   C     C_3   0.434133 0.338315 0.787782 0.489333
C38   C     C_3   0.320094 0.334285 0.794261 -0.042169
C39   C     C_3   0.217560 0.443619 0.773885 -0.253712
C40   C     C_3   0.222251 0.447537 0.716221 0.355966
C41   C     C_1   0.308374 0.326568 0.847072 0.077009
C42   C     C_1   0.346431 0.351167 0.644895 0.039035
C43   C     C_1   0.363851 0.359329 0.603168 0.045978
C44   C     C_1   0.888409 0.293467 0.864563 0.037834
C45   C     C_R   0.396187 0.375918 0.557558 0.542938
C46   C     C_1   0.860316 0.305453 0.820269 0.016831
C47   C     C_1   0.837067 0.319987 0.768034 0.055402
C48   C     C_1   0.820028 0.334005 0.723543 0.047425
C49   C     C_1   0.797701 0.353541 0.671743 0.002234
C50   C     C_1   0.770863 0.374104 0.628059 0.031538
C51   C     C_1   0.292356 0.893736 0.862893 0.047723
C52   C     C_1   0.312321 0.865745 0.819332 0.039944
C53   C     C_1   0.330677 0.841821 0.767537 0.090254
C54   C     C_1   0.343526 0.823742 0.723029 0.078499
C55   C     C_1   0.356724 0.799908 0.670801 0.014974
C56   C     C_R   0.723847 0.404264 0.577727 0.548956
C57   C     C_1   0.367830 0.771926 0.626564 0.029324
C58   C     C_R   0.943563 0.276925 0.056388 0.549824
C59   C     C_R   0.288001 0.270635 0.073116 0.549914
C60   C     C_R   0.271178 0.935322 0.052361 0.551689
C61   C     C_R   0.936883 0.278639 0.915650 0.552939
C62   C     C_R   0.281662 0.273727 0.933436 0.549134
C63   C     C_R   0.262082 0.941276 0.912945 0.549610
C64   C     C_1   0.305900 0.302209 0.124927 0.043624
C65   C     C_1   0.315615 0.319911 0.169821 0.014312
C66   C     C_1   0.323855 0.332721 0.222729 0.059275
Cr1   Cr    Cr6+3 0.585490 0.589720 0.509170 1.096397
Cr2   Cr    Cr6+3 0.329280 0.580760 0.494920 1.109611
Cr3   Cr    Cr6+3 0.585250 0.329540 0.495950 1.089825
Cr4   Cr    Cr6+3 0.077160 0.074530 0.981700 1.109004
Cr5   Cr    Cr6+3 0.079310 0.333830 0.996170 1.089684
Cr6   Cr    Cr6+3 0.334250 0.081620 0.994710 1.099749
H1    H     H_    0.523105 0.763422 0.210427 0.182925
H2    H     H_    0.532492 0.703555 0.288904 0.208033
H3    H     H_    0.371399 0.974339 0.210093 0.156277
H4    H     H_    0.228513 0.002568 0.215548 0.209184
H5    H     H_    0.223558 0.737198 0.275811 0.181063
H6    H     H_    0.775017 0.202775 0.270907 0.206663
H7    H     H_    0.161539 0.887053 0.270158 0.259227
H8    H     H_    0.289423 0.689694 0.195988 0.230044
H9    H     H_    0.268121 0.220723 0.681258 0.146495
H10   H     H_    0.223867 0.244070 0.761179 0.124651
H11   H     H_    0.217159 0.520740 0.795141 0.210722
H12   H     H_    0.431218 0.439522 0.727889 0.169218
H13   H     H_    0.136091 0.445580 0.781358 0.158409
H14   H     H_    0.046111 0.216086 0.221501 0.169353
O1    O     O_R   0.700490 0.499650 0.456540 -0.489232
O2    O     O_R   0.339040 0.474950 0.540330 -0.475296
O3    O     O_R   0.494500 0.302900 0.543920 -0.504047
O4    O     O_R   0.682200 0.343540 0.552130 -0.498269
O5    O     O_3   0.500010 0.500010 0.500010 -0.288685
O6    O     O_R   0.170650 0.959160 0.034150 -0.467100
O7    O     O_R   0.983870 0.178140 0.033160 -0.478730
O8    O     O_R   0.966160 0.354510 0.046020 -0.483519
O9    O     O_R   0.187830 0.326650 0.051390 -0.486009
O10   O     O_R   0.362200 0.173970 0.055450 -0.485575
O11   O     O_R   0.326660 0.983110 0.039170 -0.500910
O12   O     O_R   0.479270 0.682700 0.457880 -0.488854
O13   O     O_R   0.165170 0.960730 0.925500 -0.498435
O14   O     O_R   0.978790 0.179600 0.932440 -0.488635
O15   O     O_R   0.960680 0.356080 0.937360 -0.495833
O16   O     O_R   0.182750 0.328100 0.950670 -0.505204
O17   O     O_R   0.356720 0.175530 0.946790 -0.467850
O18   O     O_R   0.321590 0.984560 0.938450 -0.481636
O19   O     O_3   0.163570 0.163330 0.990860 -0.291918
O20   O     O_R   0.304400 0.696100 0.445190 -0.487936
O21   O     O_R   0.337880 0.472540 0.439600 -0.487836
O22   O     O_R   0.493250 0.300300 0.435260 -0.480392
O23   O     O_R   0.681040 0.341130 0.451400 -0.483468
O24   O     O_R   0.701750 0.502250 0.565200 -0.483420
O25   O     O_R   0.480430 0.685110 0.558610 -0.495859
O26   O     O_R   0.305650 0.698700 0.553850 -0.479470
Cl1   Cl    Cl    0.732635 0.191769 0.171620 -0.484648
O27   O     O_3   0.638068 0.355701 0.283382 -0.616046
H15   H     H_    0.594635 0.313057 0.270192 0.349462
O28   O     O_3   0.652543 0.408941 0.193944 -0.524970
H16   H     H_    0.583204 0.397912 0.191801 0.399055
O29   O     O_3   0.960835 0.430113 0.222364 -0.635568
H17   H     H_    0.017500 0.387297 0.249246 0.362366
Cl2   Cl    Cl    0.245277 0.040662 0.315863 -0.455726
Cl3   Cl    Cl    0.480304 0.923777 0.301113 -0.522708
Cl4   Cl    Cl    0.452798 0.575563 0.271411 -0.544344
O30   O     O_3   0.491393 0.630885 0.179131 -0.579637
H18   H     H_    0.517951 0.643123 0.148402 0.358896
Cl5   Cl    Cl    0.121344 0.830750 0.166621 -0.430899
O31   O     O_3   0.529576 0.240694 0.805943 -0.552211
H19   H     H_    0.542621 0.174658 0.781598 0.419796
O32   O     O_3   0.544606 0.272335 0.713033 -0.636715
H20   H     H_    0.561545 0.306790 0.686289 0.322662
O33   O     O_3   0.442249 0.136758 0.694944 -0.592567
H21   H     H_    0.439602 0.121471 0.657749 0.336715
Cl6   Cl    Cl    0.395978 0.094906 0.788500 -0.542154
O34   O     O_3   0.040666 0.260891 0.311486 -0.640185
H22   H     H_    0.039253 0.262480 0.348543 0.391346
Cl7   Cl    Cl    0.211130 0.582985 0.704291 -0.532349
Cl8   Cl    Cl    0.099344 0.441641 0.682314 -0.554008
Cl9   Cl    Cl    0.440253 0.457043 0.825506 -0.546596
Cl10  Cl    Cl    0.979416 0.101998 0.315318 -0.475182
Cl11  Cl    Cl    0.989081 0.078293 0.202628 -0.434211
O35   O     O_3   0.705041 0.526291 0.282707 -0.547506
H23   H     H_    0.687201 0.544634 0.318559 0.357472
Cl12  Cl    Cl    0.899006 0.506121 0.324082 -0.496304
Cl13  Cl    Cl    0.757058 0.548569 0.189375 -0.373729

loop_
_geom_bond_atom_site_label_1
_geom_bond_atom_site_label_2
_ccdc_geom_bond_type
C14   Cl12  S    
O31   H19   S    
C22   C29   S    
C5    O27   S    
C34   O26   A    
C36   C42   S    
C19   C20   S    
O32   H20   S    
C6    C9    S    
C32   O33   S    
O27   H15   S    
O30   H18   S    
Cr5   O8    S    
C53   C54   T    
C52   C53   S    
C25   C28   S    
C7    C11   S    
C32   H9    S    
C40   Cl8   S    
C59   C64   S    
C17   C23   S    
C59   O9    A    
C18   C24   S    
C32   C36   S    
C58   O7    A    
C62   O17   A    
C6    O34   S    
C27   H7    S    
C38   C39   S    
C24   H1    S    
C7    H14   S    
Cr5   O9    S    
C20   C25   S    
Cr2   O5    S    
O28   H16   S    
C20   H4    S    
Cr2   O26   S    
O29   H17   S    
C63   O13   A    
Cr1   O12   S    
C8    C58   S    
C54   C55   S    
Cr3   O23   S    
C44   C46   T    
C16   C17   T    
C34   C57   S    
Cr2   O21   S    
C4    C12   S    
C29   C30   T    
C45   O3    A    
C33   H10   S    
C1    O20   A    
C56   O4    A    
Cr5   O15   S    
C18   H2    S    
C37   Cl9   S    
C13   C14   S    
C34   O25   A    
Cr2   O20   S    
C31   O32   S    
Cr3   O3    S    
C56   O24   A    
Cr3   O22   S    
Cr4   O14   S    
C13   O29   S    
Cr6   O11   S    
C60   O6    A    
C23   O23   A    
C40   Cl7   S    
C51   C52   T    
C36   C40   S    
Cr4   O7    S    
C51   C63   S    
O35   H23   S    
C38   C41   S    
C60   O11   A    
C39   C40   S    
C12   O22   A    
Cr6   O18   S    
C27   H5    S    
C25   C26   S    
C24   O30   S    
C26   H8    S    
C31   H12   S    
C31   C37   S    
C20   H3    S    
C26   Cl5   S    
C6    Cl10  S    
C61   O15   A    
C9    C14   S    
C5    C9    S    
C37   C38   S    
Cr1   O24   S    
C47   C48   T    
C19   C22   S    
Cr1   O5    S    
C26   C27   S    
C24   C25   S    
C43   C45   S    
C10   Cl1   S    
C21   C60   S    
C45   O2    A    
C33   Cl6   S    
Cr1   O25   S    
C48   C49   S    
Cr5   O16   S    
C18   Cl4   S    
C19   Cl2   S    
C49   C50   T    
C8    C15   T    
C11   C15   S    
C22   C27   S    
Cr5   O19   S    
O34   H22   S    
Cr2   O2    S    
C61   O14   A    
C42   C43   T    
C39   H13   S    
C3    C4    T    
C10   O28   S    
Cr4   O13   S    
C37   O31   S    
C46   C47   S    
C19   Cl3   S    
C18   C22   S    
C21   C28   T    
Cr4   O6    S    
C14   O35   S    
C63   O18   A    
C2    C66   T    
Cr4   O19   S    
C1    O12   A    
C12   O21   A    
C6    C7    S    
Cr6   O17   S    
C44   C61   S    
Cr1   O1    S    
C33   C38   S    
C64   C65   T    
C55   C57   T    
O33   H21   S    
C58   O8    A    
C39   H11   S    
C5    C10   S    
C32   C33   S    
C7    Cl11  S    
C11   C13   S    
C1    C30   S    
C2    C3    S    
C35   C62   S    
C13   Cl13  S    
C35   C41   T    
C50   C56   S    
C10   C11   S    
Cr6   O10   S    
Cr6   O19   S    
C65   C66   S    
C59   O10   A    
C31   C36   S    
C23   O1    A    
C5    H6    S    
Cr3   O5    S    
Cr3   O4    S    
C9    C16   S    
C62   O16   A    
