data_mof_unit_56548.cif
_audit_creation_date              2012-12-10T16:53:12-0500
_audit_creation_method            fapswitch 2.2
_symmetry_space_group_name_H-M    P1
_symmetry_Int_Tables_number       1
_space_group_crystal_system       triclinic
_cell_length_a                    10.800554
_cell_length_b                    10.936986
_cell_length_c                    9.739049
_cell_angle_alpha                 89.629423
_cell_angle_beta                  90.248446
_cell_angle_gamma                 91.303777
_cell_volume                      1150.0981235

loop_
_atom_site_label
_atom_site_type_symbol
_atom_type_description
_atom_site_fract_x
_atom_site_fract_y
_atom_site_fract_z
_atom_type_partial_charge
C1    C     C_R   0.502928 0.265654 0.500601 0.761438
C2    C     C_R   0.063637 0.534519 0.629147 -0.113353
C3    C     C_R   0.129363 0.536111 0.503247 -0.170842
C4    C     C_R   0.062748 0.538202 0.379632 0.555629
C5    C     C_R   0.935729 0.519938 0.380412 -0.274020
C6    C     C_R   0.873727 0.491487 0.503172 -0.171783
C7    C     C_2   0.513088 0.935072 0.388474 0.657306
C8    C     C_2   0.485798 0.865783 0.499004 -0.358449
C9    C     C_2   0.499580 0.067744 0.390393 -0.358101
C10   C     C_2   0.516320 0.134475 0.504297 0.359799
C11   C     C_2   0.447839 0.412957 0.923840 0.554077
C12   C     C_R   0.263501 0.515324 0.500354 0.821004
C13   C     C_2   0.434707 0.421361 0.079390 0.488542
C14   C     C_R   0.497923 0.734417 0.499430 0.846865
C15   C     C_R   0.737994 0.493084 0.500832 0.836503
C16   C     C_R   0.112270 0.583929 0.753535 0.539771
C17   C     C_R   0.052692 0.550600 0.878126 -0.383232
C18   C     C_R   0.949844 0.471859 0.877497 -0.299579
C19   C     C_R   0.894894 0.436336 0.753771 0.520327
C20   C     C_R   0.942006 0.485540 0.628319 -0.097048
Cu1   Cu    Cu3+1 0.500020 0.500020 0.638630 1.060187
Cu2   Cu    Cu3+1 0.499980 0.499980 0.361370 1.030570
H1    H     H_    0.571891 0.545022 0.110207 0.197793
H2    H     H_    0.086662 0.581045 0.976830 0.209788
H3    H     H_    0.911346 0.439424 0.973933 0.184688
H4    H     H_    0.886140 0.528311 0.283990 0.186739
H5    H     H_    0.449182 0.904930 0.591914 0.185882
H6    H     H_    0.478842 0.111860 0.292959 0.201815
N1    N     N_2   0.498640 0.498660 0.846910 -0.031293
N2    N     N_2   0.498610 0.498630 0.153040 -0.301961
O1    O     O_R   0.500020 0.321960 0.617040 -0.496550
O2    O     O_R   0.499980 0.321920 0.382900 -0.575392
O3    O     O_R   0.319670 0.500020 0.617100 -0.568519
O4    O     O_R   0.319630 0.499980 0.382950 -0.524035
O5    O     O_R   0.500020 0.678080 0.617100 -0.558713
O6    O     O_R   0.499980 0.678040 0.382960 -0.508475
O7    O     O_R   0.680370 0.500020 0.617050 -0.553412
O8    O     O_R   0.680330 0.499980 0.382900 -0.603351
F1    F     F_    0.119288 0.564225 0.258602 -0.703829
F2    F     F_    0.555058 0.084157 0.624764 -0.669458
O9    O     O_3   0.420455 0.300149 0.865761 -0.532375
C21   C     C_3   0.295164 0.292652 0.822861 -0.189914
H7    H     H_    0.238950 0.373304 0.848473 0.103637
H8    H     H_    0.251150 0.209740 0.869071 0.155375
H9    H     H_    0.290171 0.279218 0.710376 0.170570
O10   O     O_3   0.509310 0.611086 0.902106 -0.552014
C22   C     C_3   0.634490 0.649647 0.888408 -0.119438
H10   H     H_    0.652118 0.727665 0.958593 0.170462
H11   H     H_    0.656526 0.682113 0.783625 0.192535
H12   H     H_    0.699486 0.576314 0.918043 0.119347
O11   O     O_3   0.370557 0.328120 0.147451 -0.552230
C23   C     C_3   0.241446 0.343636 0.137569 -0.201438
H13   H     H_    0.213165 0.428798 0.083959 0.163215
H14   H     H_    0.201944 0.342733 0.242312 0.202281
H15   H     H_    0.198461 0.263724 0.085260 0.138293
O12   O     O_3   0.212319 0.667245 0.744628 -0.572385
C24   C     C_3   0.233228 0.736943 0.864142 -0.196092
H16   H     H_    0.271116 0.679359 0.948107 0.192063
H17   H     H_    0.147955 0.783928 0.896558 0.142429
H18   H     H_    0.304178 0.808932 0.840756 0.206932
O13   O     O_3   0.799060 0.350279 0.759143 -0.556490
C25   C     C_3   0.840189 0.239376 0.704237 -0.243889
H19   H     H_    0.928471 0.210299 0.752850 0.126685
H20   H     H_    0.850594 0.246000 0.590928 0.142993
H21   H     H_    0.769480 0.166876 0.725953 0.251041
F3    F     F_    0.550242 0.884145 0.268776 -0.638921

loop_
_geom_bond_atom_site_label_1
_geom_bond_atom_site_label_2
_ccdc_geom_bond_type
C22   H10   S    
C25   H20   S    
C16   O12   S    
C15   O8    A    
Cu1   N1    S    
C25   H19   S    
Cu1   O5    S    
C2    C16   A    
C6    C20   A    
O9    C21   S    
C19   C20   A    
C4    F1    S    
C1    O1    A    
N1    O10   S    
C2    C3    A    
C6    C15   S    
C21   H8    S    
C7    C8    D    
C22   H11   S    
Cu1   Cu2   S    
C23   H13   S    
C7    F3    S    
Cu1   O1    S    
C24   H16   S    
O13   C25   S    
C18   H3    S    
Cu2   O2    S    
C19   O13   S    
C10   F2    S    
C23   H15   S    
C23   H14   S    
C11   O9    S    
C22   H12   S    
C5    H4    S    
C14   O6    A    
C5    C6    A    
Cu2   O4    S    
C16   C17   A    
C24   H17   S    
C17   H2    S    
Cu1   O3    S    
C21   H7    S    
C2    C20   A    
O11   C23   S    
Cu2   O8    S    
H1    N2    S    
C13   N2    D    
C11   C13   S    
Cu1   O7    S    
O12   C24   S    
C11   N1    D    
C17   C18   A    
C18   C19   A    
C9    C10   D    
C14   O5    A    
C7    C9    S    
C8    H5    S    
O10   C22   S    
C15   O7    A    
C24   H18   S    
C8    C14   S    
C3    C12   S    
Cu2   N2    S    
C25   H21   S    
C12   O3    A    
C13   O11   S    
C12   O4    A    
C1    O2    A    
Cu2   O6    S    
C1    C10   S    
C3    C4    A    
C9    H6    S    
C4    C5    A    
C21   H9    S    
