data_mof_unit_30351.cif
_audit_creation_date              2012-12-10T16:58:26-0500
_audit_creation_method            fapswitch 2.2
_symmetry_space_group_name_H-M    P1
_symmetry_Int_Tables_number       1
_space_group_crystal_system       triclinic
_cell_length_a                    7.914778
_cell_length_b                    8.55714
_cell_length_c                    22.996239
_cell_angle_alpha                 91.33139
_cell_angle_beta                  84.645392
_cell_angle_gamma                 93.96565
_cell_volume                      1546.75595314

loop_
_atom_site_label
_atom_site_type_symbol
_atom_type_description
_atom_site_fract_x
_atom_site_fract_y
_atom_site_fract_z
_atom_type_partial_charge
C1    C     C_R   0.545490 0.794125 0.498102 0.934868
C2    C     C_R   0.454537 0.205898 0.502246 0.932056
C3    C     C_R   0.524319 0.421741 0.768065 0.544799
C4    C     C_R   0.560830 0.559452 0.228285 0.555277
C5    C     C_R   0.548149 0.410433 0.707339 -0.379691
C6    C     C_R   0.585100 0.569606 0.287496 -0.406404
C7    C     C_R   0.503938 0.530491 0.673053 -0.205115
C8    C     C_R   0.491750 0.468569 0.326938 -0.223754
C9    C     C_R   0.445288 0.668763 0.699468 0.428328
C10   C     C_R   0.383243 0.346905 0.306181 0.456702
C11   C     C_R   0.400808 0.672307 0.759335 -0.271575
C12   C     C_R   0.337086 0.353993 0.249490 -0.272414
C13   C     C_R   0.435398 0.548408 0.794204 0.094192
C14   C     C_R   0.420765 0.462967 0.210307 0.083811
C15   C     C_2   0.568835 0.958202 0.496616 -0.417830
C16   C     C_2   0.431318 0.041802 0.503939 -0.400288
C17   C     C_R   0.501325 0.505896 0.610502 0.903829
C18   C     C_R   0.498888 0.494893 0.389398 0.884109
C19   C     C_R   0.333120 0.347057 0.118776 0.481274
C20   C     C_R   0.412446 0.679898 0.889606 0.491832
C21   C     C_R   0.352225 0.625238 0.131894 0.558433
C22   C     C_R   0.298432 0.415679 0.879865 0.555382
C23   C     C_R   0.349464 0.645742 0.072002 -0.032174
C24   C     C_R   0.286170 0.397748 0.940294 -0.045301
C25   C     C_R   0.323413 0.512777 0.036195 -0.031750
C26   C     C_R   0.326196 0.528764 0.975582 -0.021587
C27   C     C_R   0.300513 0.363034 0.060598 -0.017443
C28   C     C_R   0.376555 0.674379 0.950231 -0.011220
C29   C     C_R   0.381789 0.793972 0.046821 -0.180832
C30   C     C_R   0.244696 0.250971 0.965870 -0.200257
C31   C     C_R   0.400884 0.807538 0.986201 -0.187265
C32   C     C_R   0.256923 0.232832 0.025383 -0.171649
H1    H     H_    0.403732 0.897804 0.073622 0.214067
H2    H     H_    0.213300 0.148347 0.939510 0.194726
H3    H     H_    0.436695 0.921637 0.967686 0.182897
H4    H     H_    0.233680 0.116948 0.043555 0.181224
H5    H     H_    0.595075 0.305368 0.686807 0.185744
H6    H     H_    0.676053 0.656789 0.302858 0.193713
H7    H     H_    0.335027 0.770865 0.778164 0.224093
H8    H     H_    0.233723 0.275066 0.236763 0.218922
H9    H     H_    0.698539 0.009591 0.489748 0.199526
H10   H     H_    0.301626 0.990371 0.510841 0.197726
N1    N     N_R   0.362660 0.477941 0.153222 -0.339746
N2    N     N_R   0.377220 0.549682 0.855470 -0.334362
N3    N     N_2   0.950330 0.457950 0.484560 0.169043
N4    N     N_2   0.049670 0.542050 0.515440 0.130803
O1    O     O_R   0.389250 0.738570 0.503790 -0.622165
O2    O     O_R   0.610750 0.261430 0.496210 -0.613978
O3    O     O_R   0.678390 0.711620 0.493890 -0.606575
O4    O     O_R   0.321610 0.288380 0.506110 -0.600771
O5    O     O_R   0.355400 0.513520 0.588790 -0.638643
O6    O     O_R   0.644600 0.486480 0.411210 -0.651909
O7    O     O_R   0.644550 0.486570 0.578900 -0.612117
O8    O     O_R   0.355450 0.513430 0.421100 -0.577760
O9    O     O_2   0.343677 0.202171 0.139455 -0.573282
O10   O     O_2   0.489002 0.811889 0.865561 -0.591920
O11   O     O_2   0.350995 0.751427 0.168226 -0.529266
O12   O     O_2   0.237838 0.298520 0.845630 -0.540780
Zn1   Zn    Zn3+2 0.306930 0.518000 0.506610 1.004239
Zn2   Zn    Zn3+2 0.693070 0.482000 0.493390 1.000661
O13   O     O_3   0.562236 0.294938 0.799660 -0.609232
C33   C     C_3   0.691900 0.338997 0.836212 0.043962
H11   H     H_    0.667859 0.448944 0.861437 0.139789
H12   H     H_    0.815992 0.356418 0.809586 0.152347
C34   C     C_3   0.702490 0.206911 0.879178 -0.252304
H13   H     H_    0.572439 0.166547 0.897675 0.252588
H14   H     H_    0.760923 0.106234 0.855626 0.242290
C35   C     C_3   0.806705 0.260410 0.929399 -0.948952
H15   H     H_    0.933480 0.311634 0.912235 0.291346
H16   H     H_    0.823608 0.158965 0.957037 0.270514
H17   H     H_    0.739653 0.349558 0.956826 0.260815
O14   O     O_3   0.659751 0.660639 0.190846 -0.611795
C36   C     C_3   0.756790 0.574379 0.148235 0.066288
H18   H     H_    0.675680 0.488682 0.124339 0.148988
H19   H     H_    0.851111 0.508700 0.169031 0.124436
C37   C     C_3   0.851523 0.688394 0.104155 -0.303812
H20   H     H_    0.768912 0.783845 0.095714 0.252472
H21   H     H_    0.967363 0.742049 0.122580 0.228802
C38   C     C_3   0.901631 0.606406 0.046089 -0.948599
H22   H     H_    0.968600 0.499836 0.053334 0.273924
H23   H     H_    0.986478 0.687169 0.017589 0.276478
H24   H     H_    0.786104 0.572238 0.023597 0.264788
O15   O     O_3   0.416714 0.797289 0.667240 -0.658470
C39   C     C_3   0.574225 0.878536 0.649012 0.058191
H25   H     H_    0.547702 0.969120 0.618011 0.178425
H26   H     H_    0.663991 0.800574 0.624682 0.151088
C40   C     C_3   0.656983 0.962463 0.700152 -0.350335
H27   H     H_    0.564758 0.039469 0.723525 0.276866
H28   H     H_    0.691186 0.875773 0.731545 0.232166
C41   C     C_3   0.818758 0.060142 0.678916 -0.942124
H29   H     H_    0.919870 0.983360 0.661898 0.264055
H30   H     H_    0.864882 0.130869 0.716002 0.282338
H31   H     H_    0.794426 0.139726 0.643660 0.253248
O16   O     O_3   0.312087 0.224621 0.340872 -0.625505
C42   C     C_3   0.440750 0.127901 0.354772 0.081692
H32   H     H_    0.381262 0.040365 0.386585 0.163454
H33   H     H_    0.541114 0.195442 0.377278 0.150877
C43   C     C_3   0.519851 0.036874 0.301497 -0.336142
H34   H     H_    0.433166 0.933951 0.291460 0.247749
H35   H     H_    0.540148 0.110610 0.262097 0.249059
C44   C     C_3   0.692515 0.982098 0.313452 -0.939977
H36   H     H_    0.781704 0.084410 0.321927 0.273274
H37   H     H_    0.747428 0.917528 0.274566 0.295355
H38   H     H_    0.678911 0.904830 0.352007 0.248882
O17   O     O_3   0.021791 0.425897 0.430545 -0.525281
C45   C     C_3   0.009399 0.558853 0.395496 0.256891
H39   H     H_    0.123780 0.640039 0.397637 0.139886
H40   H     H_    0.903182 0.632290 0.410574 0.139840
C46   C     C_3   0.992772 0.505978 0.332222 -0.422792
H41   H     H_    0.860265 0.464522 0.326470 0.230478
H42   H     H_    0.066963 0.403397 0.321827 0.267336
C47   C     C_3   0.051737 0.636782 0.289400 -0.903636
H43   H     H_    0.977724 0.741097 0.299477 0.263854
H44   H     H_    0.033770 0.595521 0.244176 0.277323
H45   H     H_    0.188845 0.670829 0.292024 0.281473
O18   O     O_3   0.960229 0.636943 0.552508 -0.574441
C48   C     C_3   0.022800 0.640756 0.607696 0.187565
H46   H     H_    0.947829 0.724769 0.634761 0.128208
H47   H     H_    0.154566 0.693232 0.605620 0.196871
C49   C     C_3   0.994520 0.481079 0.638452 -0.356295
H48   H     H_    0.868041 0.425478 0.631894 0.238940
H49   H     H_    0.086208 0.397149 0.619982 0.236550
C50   C     C_3   0.005072 0.499589 0.704092 -0.936513
H50   H     H_    0.118199 0.574920 0.713268 0.285117
H51   H     H_    0.013730 0.383445 0.723562 0.273490
H52   H     H_    0.890743 0.554364 0.724819 0.253384

loop_
_geom_bond_atom_site_label_1
_geom_bond_atom_site_label_2
_ccdc_geom_bond_type
C40   H27   S    
N3    Zn2   S    
C44   H36   S    
C5    H5    S    
N4    Zn1   S    
C36   H18   S    
C42   H32   S    
C39   C40   S    
C20   O10   S    
C17   O5    A    
C47   H44   S    
C42   C43   S    
C18   O6    A    
C50   H50   S    
N3    N4    D    
O3    Zn2   S    
O6    Zn2   S    
O4    Zn1   S    
C23   C29   A    
C24   C26   A    
C48   H47   S    
C50   H51   S    
C45   H39   S    
C10   O16   S    
C15   C16   D    
C29   H1    S    
O18   C48   S    
C33   H12   S    
C2    O4    A    
C21   N1    A    
C22   N2    A    
C19   N1    A    
C35   H15   S    
C34   H14   S    
C6    H6    S    
C1    C15   S    
C2    C16   S    
C3    C13   A    
C49   C50   S    
C32   H4    S    
C17   O7    A    
C44   H37   S    
C36   H19   S    
O16   C42   S    
C47   H43   S    
C20   N2    A    
O7    Zn2   S    
N3    O17   S    
O2    Zn2   S    
O8    Zn1   S    
C3    O13   S    
C21   C23   A    
C30   H2    S    
C47   H45   S    
C39   H25   S    
C15   H9    S    
C4    C6    A    
C46   C47   S    
C5    C7    A    
C1    O1    A    
C50   H52   S    
C6    C8    A    
C20   C28   A    
C7    C17   S    
C25   C26   A    
C8    C18   S    
C12   H8    S    
C21   O11   S    
C33   H11   S    
C41   H30   S    
O15   C39   S    
C34   C35   S    
C37   H20   S    
C11   H7    S    
C9    C11   A    
C10   C12   A    
C9    O15   S    
C8    C10   A    
C12   C14   A    
C34   H13   S    
C44   H38   S    
C43   H35   S    
C40   H28   S    
C36   C37   S    
C22   C24   A    
C48   C49   S    
O5    Zn1   S    
C16   H10   S    
C4    O14   S    
C19   C27   A    
C49   H48   S    
C49   H49   S    
C41   H31   S    
C38   H23   S    
C19   O9    S    
C7    C9    A    
C33   C34   S    
C27   C32   A    
C28   C31   A    
C37   H21   S    
O14   C36   S    
C3    C5    A    
C22   O12   S    
C38   H24   S    
C42   H33   S    
C25   C27   A    
C43   C44   S    
O17   C45   S    
C26   C28   A    
N4    O18   S    
C2    O2    A    
C46   H42   S    
C29   C31   A    
C48   H46   S    
C30   C32   A    
C11   C13   A    
C41   H29   S    
C45   H40   S    
C35   H17   S    
C31   H3    S    
C23   C25   A    
C4    C14   A    
O13   C33   S    
C24   C30   A    
C18   O8    A    
O1    Zn1   S    
C38   H22   S    
C37   C38   S    
C35   H16   S    
C43   H34   S    
C40   C41   S    
C39   H26   S    
C46   H41   S    
C1    O3    A    
C13   N2    S    
C14   N1    S    
C45   C46   S    
