data_mof_unit_53219.cif
_audit_creation_date              2012-12-10T16:51:27-0500
_audit_creation_method            fapswitch 2.2
_symmetry_space_group_name_H-M    P1
_symmetry_Int_Tables_number       1
_space_group_crystal_system       triclinic
_cell_length_a                    7.814335
_cell_length_b                    8.575312
_cell_length_c                    12.610675
_cell_angle_alpha                 92.453474
_cell_angle_beta                  102.607438
_cell_angle_gamma                 93.927314
_cell_volume                      821.284948816

loop_
_atom_site_label
_atom_site_type_symbol
_atom_type_description
_atom_site_fract_x
_atom_site_fract_y
_atom_site_fract_z
_atom_type_partial_charge
C1    C     C_R   0.044376 0.794595 0.497238 0.957284
C2    C     C_R   0.191020 0.590408 0.820356 -0.130206
C3    C     C_2   0.067584 0.958172 0.495761 -0.378282
C4    C     C_R   0.114855 0.532158 0.706971 0.864617
C5    C     C_2   0.932606 0.041858 0.504604 -0.385053
C6    C     C_R   0.955698 0.205428 0.502900 0.978954
C7    C     C_R   0.889644 0.486962 0.292075 0.875628
C8    C     C_R   0.855088 0.403811 0.995800 -0.185343
C9    C     C_R   0.826152 0.477352 0.176254 -0.053914
C10   C     C_R   0.083847 0.653331 0.884067 -0.217463
C11   C     C_R   0.147387 0.683310 0.995445 -0.119911
C12   C     C_R   0.428573 0.586071 0.981227 0.077830
C13   C     C_R   0.314276 0.642163 0.044966 -0.196990
C14   C     C_R   0.371821 0.580337 0.867377 0.096048
C15   C     C_R   0.596356 0.533037 0.024871 0.078180
C16   C     C_R   0.698666 0.472250 0.954498 0.163522
C17   C     C_R   0.650369 0.492221 0.844416 -0.281409
C18   C     C_R   0.498494 0.562313 0.804531 -0.183655
C19   C     C_R   0.665575 0.537438 0.135646 -0.270604
C20   C     C_R   0.919653 0.407010 0.107186 -0.208109
H1    H     H_    0.043064 0.357482 0.139076 0.162505
H2    H     H_    0.484138 0.604928 0.725062 0.171347
H3    H     H_    0.194929 0.009178 0.487355 0.178964
H4    H     H_    0.930739 0.354135 0.942035 0.152200
H5    H     H_    0.805277 0.990847 0.513039 0.178287
H6    H     H_    0.471406 0.366288 0.426452 0.190365
H7    H     H_    0.528646 0.640707 0.566097 0.172662
H8    H     H_    0.733905 0.461131 0.790162 0.186148
H9    H     H_    0.598884 0.591002 0.192127 0.160789
H10   H     H_    0.950610 0.678038 0.848033 0.164085
H11   H     H_    0.348831 0.656563 0.132454 0.135060
H12   H     H_    0.062964 0.730023 0.044562 0.155470
N1    N     N_2   0.434800 0.456690 0.470850 -0.176190
N2    N     N_2   0.565200 0.543310 0.529150 -0.182941
O1    O     O_R   0.893060 0.738880 0.507150 -0.615728
O2    O     O_R   0.172250 0.711130 0.488470 -0.636562
O3    O     O_R   0.944700 0.520730 0.667600 -0.630643
O4    O     O_R   0.223890 0.492980 0.648920 -0.622915
O5    O     O_R   0.827750 0.288870 0.511530 -0.626291
O6    O     O_R   0.106940 0.261120 0.492850 -0.608970
O7    O     O_R   0.776110 0.507020 0.351080 -0.628480
O8    O     O_R   0.055300 0.479270 0.332400 -0.623270
Zn1   Zn    Zn3+2 0.813580 0.518530 0.512470 0.928359
Zn2   Zn    Zn3+2 0.186420 0.481470 0.487530 0.934625

loop_
_geom_bond_atom_site_label_1
_geom_bond_atom_site_label_2
_ccdc_geom_bond_type
O3    Zn1   S    
C2    C4    S    
O4    Zn2   S    
O1    Zn1   S    
C10   H10   S    
C9    C20   A    
C3    H3    S    
C12   C15   A    
O6    Zn2   S    
C17   H8    S    
N1    N2    D    
C8    C16   A    
C20   H1    S    
C15   C19   A    
C12   C13   A    
O7    Zn1   S    
C8    C20   A    
O8    Zn2   S    
C5    H5    S    
C8    H4    S    
C12   C14   A    
C11   H12   S    
C17   C18   A    
C13   H11   S    
C7    O7    A    
H7    N2    S    
C5    C6    S    
C2    C14   A    
C6    O6    A    
O2    Zn2   S    
C10   C11   A    
C15   C16   A    
C19   H9    S    
C11   C13   A    
C4    O3    A    
C1    O1    A    
C7    O8    A    
C7    C9    S    
C14   C18   A    
C6    O5    A    
O5    Zn1   S    
H6    N1    S    
C3    C5    D    
C18   H2    S    
N1    Zn2   S    
C9    C19   A    
N2    Zn1   S    
C1    O2    A    
C4    O4    A    
C16   C17   A    
C1    C3    S    
C2    C10   A    
