data_mof_unit_22759.cif
_audit_creation_date              2012-10-26T20:33:41-0400
_audit_creation_method            fapswitch 2.2
_symmetry_space_group_name_H-M    P1
_symmetry_Int_Tables_number       1
_space_group_crystal_system       triclinic
_cell_length_a                    10.838138
_cell_length_b                    9.073509
_cell_length_c                    7.913296
_cell_angle_alpha                 89.999984
_cell_angle_beta                  89.343621
_cell_angle_gamma                 89.999888
_cell_volume                      778.142010877

loop_
_atom_site_label
_atom_site_type_symbol
_atom_type_description
_atom_site_fract_x
_atom_site_fract_y
_atom_site_fract_z
_atom_type_partial_charge
C1    C     C_R   0.500000 0.220571 0.500000 0.580494
C2    C     C_1   0.500000 0.934490 0.500000 0.034172
C3    C     C_3   0.069980 0.633789 0.477967 -0.288940
C4    C     C_3   0.930022 0.633790 0.522035 -0.288942
C5    C     C_3   0.122571 0.473887 0.498941 -0.087856
C6    C     C_3   0.877430 0.473889 0.501060 -0.087857
C7    C     C_R   0.260513 0.486396 0.500065 0.581392
C8    C     C_R   0.739488 0.486399 0.499935 0.581392
C9    C     C_R   0.500000 0.779433 0.500000 0.538761
C10   C     C_1   0.500000 0.065552 0.500000 0.061521
C11   C     C_3   0.070473 0.411123 0.673030 0.426197
C12   C     C_3   0.071933 0.375856 0.346992 0.396658
C13   C     C_3   0.928067 0.375858 0.653010 0.396657
C14   C     C_3   0.929528 0.411124 0.326971 0.426198
Cl1   Cl    Cl    0.094945 0.553335 0.830523 -0.388904
Cl2   Cl    Cl    0.149512 0.399458 0.150034 -0.294766
Cl3   Cl    Cl    0.850490 0.399463 0.849968 -0.294767
Cl4   Cl    Cl    0.905059 0.553337 0.169478 -0.388906
Cl5   Cl    Cl    0.154376 0.253951 0.751873 -0.312420
Cl6   Cl    Cl    0.107695 0.183622 0.375450 -0.372014
Cl7   Cl    Cl    0.892302 0.183624 0.624552 -0.372013
Cl8   Cl    Cl    0.845624 0.253954 0.248128 -0.312420
Cu1   Cu    Cu3+1 0.500000 0.500010 0.669080 1.213064
Cu2   Cu    Cu3+1 0.500000 0.500010 0.330920 1.213064
H1    H     H_    0.117944 0.715809 0.558404 0.210670
H2    H     H_    0.086688 0.673662 0.347017 0.228519
H3    H     H_    0.913315 0.673662 0.652985 0.228519
H4    H     H_    0.882058 0.715811 0.441599 0.210670
N1    N     N_1   0.500000 0.499970 0.076820 -0.016690
N2    N     N_1   0.500000 0.499970 0.923180 -0.016690
O1    O     O_R   0.500000 0.288400 0.642760 -0.481393
O2    O     O_R   0.500000 0.288400 0.357240 -0.481393
O3    O     O_R   0.317700 0.499990 0.642790 -0.449781
O4    O     O_R   0.317700 0.499990 0.357210 -0.468503
O5    O     O_R   0.682300 0.499990 0.642790 -0.468502
O6    O     O_R   0.682300 0.499990 0.357210 -0.449779
O7    O     O_R   0.500000 0.711620 0.642810 -0.502707
O8    O     O_R   0.500000 0.711620 0.357190 -0.502707

loop_
_geom_bond_atom_site_label_1
_geom_bond_atom_site_label_2
_ccdc_geom_bond_type
Cu2   O8    S    
Cu1   Cu2   S    
Cu2   O2    S    
N1    N2    T    
C6    C14   S    
C11   C13   S    
C14   Cl4   S    
C13   Cl3   S    
C12   Cl6   S    
C9    O7    A    
C13   Cl7   S    
C6    C13   S    
C7    O3    A    
C11   Cl5   S    
Cu2   O6    S    
C9    O8    A    
C4    H4    S    
C12   C14   S    
C5    C11   S    
Cu1   O5    S    
C1    O2    A    
C14   Cl8   S    
C7    O4    A    
C3    C4    S    
C2    C10   T    
Cu1   N2    S    
C1    O1    A    
C3    H1    S    
C5    C12   S    
C4    C6    S    
C8    O6    A    
C5    C7    S    
Cu2   N1    S    
C6    C8    S    
C4    H3    S    
C3    C5    S    
Cu1   O7    S    
C2    C9    S    
C11   Cl1   S    
C3    H2    S    
Cu2   O4    S    
C1    C10   S    
C12   Cl2   S    
Cu1   O3    S    
C8    O5    A    
Cu1   O1    S    
