data_mof_unit_21518.cif
_audit_creation_date              2012-12-11T15:37:05-0500
_audit_creation_method            fapswitch 2.2
_symmetry_space_group_name_H-M    P1
_symmetry_Int_Tables_number       1
_space_group_crystal_system       triclinic
_cell_length_a                    16.752992
_cell_length_b                    7.079739
_cell_length_c                    15.045123
_cell_angle_alpha                 89.999247
_cell_angle_beta                  95.152075
_cell_angle_gamma                 90.000307
_cell_volume                      1777.24461275

loop_
_atom_site_label
_atom_site_type_symbol
_atom_type_description
_atom_site_fract_x
_atom_site_fract_y
_atom_site_fract_z
_atom_type_partial_charge
O1    O     O_R   0.578230 0.505720 0.424270 -0.534714
O2    O     O_R   0.421770 0.005720 0.575730 -0.534714
O3    O     O_R   0.412470 0.173950 0.404530 -0.548294
O4    O     O_R   0.587530 0.673950 0.595470 -0.548290
C1    C     C_R   0.386242 0.346126 0.379166 0.704042
C2    C     C_R   0.613759 0.846125 0.620833 0.704066
O5    O     O_R   0.577030 0.175880 0.413670 -0.531610
O6    O     O_R   0.422970 0.675880 0.586330 -0.531612
O7    O     O_R   0.587510 0.007580 0.584940 -0.549355
O8    O     O_R   0.412490 0.507580 0.415060 -0.549355
C3    C     C_R   0.603356 0.344730 0.393056 0.732978
C4    C     C_R   0.396643 0.844728 0.606943 0.732976
O9    O     O_3   0.503240 0.339850 0.556180 -0.386619
O10   O     O_3   0.496760 0.839850 0.443820 -0.386618
V1    V     V_3+5 0.499400 0.064230 0.489580 1.367192
V2    V     V_3+5 0.500600 0.564230 0.510420 1.367194
C5    C     C_1   0.334218 0.855012 0.669245 -0.190208
C6    C     C_1   0.665780 0.355016 0.330752 -0.190197
C7    C     C_1   0.281656 0.865890 0.720598 0.001149
C8    C     C_1   0.718341 0.365893 0.279398 0.001144
C9    C     C_1   0.219443 0.879510 0.780705 0.000554
C10   C     C_1   0.780554 0.379508 0.219291 0.000536
C11   C     C_1   0.166667 0.890220 0.831789 -0.195446
C12   C     C_1   0.833333 0.390217 0.168208 -0.195423
C13   C     C_3   0.738516 0.836126 0.857099 -0.451539
C14   C     C_3   0.261482 0.336152 0.142902 -0.451532
H1    H     H_    0.752098 0.716976 0.904136 0.128598
H2    H     H_    0.247903 0.217010 0.095860 0.128593
H3    H     H_    0.723585 0.960307 0.897363 0.170953
H4    H     H_    0.276407 0.460346 0.102642 0.170963
C15   C     C_3   0.667142 0.778352 0.786375 0.386131
C16   C     C_3   0.332859 0.278379 0.213622 0.386124
H5    H     H_    0.667829 0.622687 0.779023 0.067008
H6    H     H_    0.332178 0.122712 0.220969 0.067009
H7    H     H_    0.823148 0.591941 0.772596 0.133673
H8    H     H_    0.176860 0.091914 0.227401 0.133681
H9    H     H_    0.736991 0.602082 0.642290 0.145398
H10   H     H_    0.263025 0.102073 0.357708 0.145397
C17   C     C_3   0.825457 0.732185 0.739777 -0.309510
C18   C     C_3   0.174547 0.232155 0.260222 -0.309468
C19   C     C_3   0.799741 0.078203 0.757338 0.259875
C20   C     C_3   0.200247 0.578187 0.242676 0.259872
C21   C     C_3   0.814621 0.888860 0.810076 -0.011052
C22   C     C_3   0.185375 0.388854 0.189928 -0.011054
H11   H     H_    0.804584 0.199114 0.805343 0.076656
H12   H     H_    0.195386 0.699120 0.194683 0.076703
C23   C     C_3   0.684628 0.862318 0.693474 -0.035654
C24   C     C_3   0.315372 0.362320 0.306525 -0.035636
C25   C     C_3   0.756777 0.746483 0.662883 -0.492686
C26   C     C_3   0.243228 0.246464 0.337116 -0.492695
C27   C     C_3   0.712794 0.075358 0.710301 0.276299
C28   C     C_3   0.287198 0.575354 0.289706 0.276265
H13   H     H_    0.714190 0.152239 0.645783 0.059176
H14   H     H_    0.285810 0.652214 0.354228 0.059132
H15   H     H_    0.884716 0.743712 0.712402 0.182088
H16   H     H_    0.115288 0.243657 0.287600 0.182088
H17   H     H_    0.779497 0.814811 0.603526 0.190836
H18   H     H_    0.220506 0.314777 0.396475 0.190806
O11   O     O_R   0.087480 0.241090 0.084980 -0.541751
O12   O     O_R   0.912520 0.741090 0.915020 -0.541757
O13   O     O_R   0.922960 0.569060 0.086330 -0.532824
O14   O     O_R   0.077040 0.069060 0.913670 -0.532826
C29   C     C_R   0.896160 0.400295 0.106379 0.719651
C30   C     C_R   0.103839 0.900297 0.893620 0.719637
O15   O     O_R   0.087520 0.570920 0.095480 -0.545104
O16   O     O_R   0.912480 0.070920 0.904520 -0.545124
O17   O     O_R   0.078240 0.739160 0.924260 -0.532886
O18   O     O_R   0.921760 0.239160 0.075740 -0.532888
C31   C     C_R   0.113924 0.401523 0.120111 0.693701
C32   C     C_R   0.886073 0.901525 0.879892 0.693675
O19   O     O_3   0.996740 0.404980 0.943840 -0.374135
O20   O     O_3   0.003260 0.904980 0.056160 -0.374114
V3    V     V_3+5 0.000600 0.680640 0.010420 1.396920
V4    V     V_3+5 0.999400 0.180640 0.989580 1.396897
O21   O     O_3   0.589176 0.831526 0.808103 -0.571073
C33   C     C_3   0.574998 0.804570 0.899052 0.109226
H19   H     H_    0.511304 0.839095 0.904355 0.139338
H20   H     H_    0.608133 0.910191 0.942472 0.135611
C34   C     C_3   0.587229 0.601343 0.935134 -0.377050
H21   H     H_    0.534368 0.513581 0.912077 0.185871
H22   H     H_    0.640931 0.532139 0.912431 0.199439
C35   C     C_3   0.597549 0.601869 0.036965 -0.829536
H23   H     H_    0.649216 0.692052 0.061379 0.233653
H24   H     H_    0.610180 0.456260 0.061677 0.231032
H25   H     H_    0.542441 0.655917 0.064192 0.230015
O22   O     O_3   0.410821 0.331578 0.191892 -0.571076
C36   C     C_3   0.424999 0.304625 0.100943 0.109204
H26   H     H_    0.488691 0.339177 0.095637 0.139360
H27   H     H_    0.391855 0.410227 0.057521 0.135600
C37   C     C_3   0.412782 0.101391 0.064868 -0.377042
H28   H     H_    0.465640 0.013639 0.087947 0.185879
H29   H     H_    0.359073 0.032188 0.087557 0.199432
C38   C     C_3   0.402488 0.101899 0.963038 -0.829536
H30   H     H_    0.350832 0.192095 0.938603 0.233653
H31   H     H_    0.389852 0.956290 0.938330 0.231026
H32   H     H_    0.457608 0.155917 0.935825 0.230018
O23   O     O_3   0.856931 0.091374 0.693016 -0.586534
C39   C     C_3   0.880925 0.278865 0.679730 0.031752
H33   H     H_    0.911857 0.337066 0.742420 0.135267
H34   H     H_    0.828116 0.365850 0.656796 0.113501
C40   C     C_3   0.939161 0.281309 0.607232 -0.267986
H35   H     H_    0.992145 0.192308 0.628496 0.199179
H36   H     H_    0.909092 0.221110 0.544683 0.195010
C41   C     C_3   0.967195 0.481376 0.588722 -0.847621
H37   H     H_    0.915344 0.571739 0.565156 0.234659
H38   H     H_    0.009508 0.477104 0.536054 0.232037
H39   H     H_    0.998463 0.543878 0.650023 0.230327
O24   O     O_3   0.143058 0.591318 0.307000 -0.586520
C42   C     C_3   0.119173 0.778839 0.320419 0.031831
H40   H     H_    0.088116 0.837153 0.257819 0.135246
H41   H     H_    0.172053 0.865721 0.343215 0.113372
C43   C     C_3   0.061142 0.781310 0.393130 -0.267977
H42   H     H_    0.008071 0.692475 0.372002 0.199206
H43   H     H_    0.091342 0.720939 0.455574 0.194968
C44   C     C_3   0.033261 0.981417 0.411823 -0.847603
H44   H     H_    0.085215 0.071661 0.435175 0.234674
H45   H     H_    0.991163 0.977180 0.464709 0.232021
H46   H     H_    0.001797 0.044029 0.350657 0.230333
O25   O     O_3   0.664358 0.167406 0.770638 -0.578112
C45   C     C_3   0.601076 0.272587 0.727920 -0.154506
H47   H     H_    0.549035 0.179794 0.709412 0.187791
H48   H     H_    0.620061 0.355964 0.671103 0.138356
H49   H     H_    0.579768 0.373724 0.776444 0.120907
O26   O     O_3   0.335625 0.667429 0.229367 -0.578111
C46   C     C_3   0.398912 0.772594 0.272082 -0.154490
H50   H     H_    0.450952 0.679793 0.290582 0.187789
H51   H     H_    0.379934 0.855964 0.328903 0.138354
H52   H     H_    0.420220 0.873736 0.223557 0.120895

loop_
_geom_bond_atom_site_label_1
_geom_bond_atom_site_label_2
_ccdc_geom_bond_type
C13   C15   S    
C36   H26   S    
C3    C6    S    
C14   C16   S    
C38   H30   S    
C19   C21   S    
O1    C3    A    
C33   C34   S    
O2    C4    A    
C13   C21   S    
C2    O7    A    
C41   H38   S    
O23   C39   S    
C14   C22   S    
C23   C25   S    
O5    C3    A    
C40   H35   S    
C7    C9    S    
C33   H20   S    
C42   H41   S    
C18   C26   S    
O18   V4    S    
C44   H44   S    
O16   V4    S    
O12   V3    S    
C25   H17   S    
O24   C42   S    
C20   H12   S    
O13   C29   A    
C43   H42   S    
C19   O23   S    
O14   C30   A    
C36   C37   S    
C37   H29   S    
C17   H15   S    
C28   H14   S    
C21   C32   S    
C18   H16   S    
C4    C5    S    
C46   H52   S    
C27   O25   S    
C15   H5    S    
O17   V3    S    
C18   C22   S    
C45   H49   S    
C24   C26   S    
C38   H31   S    
C15   C23   S    
C16   C24   S    
C20   C22   S    
C43   H43   S    
C41   H37   S    
C45   H48   S    
C13   H3    S    
C1    C24   S    
C2    C23   S    
C26   H18   S    
C30   O17   A    
H8    C18   S    
C33   H19   S    
O20   V4    S    
O15   V3    S    
C34   H22   S    
O22   C36   S    
C17   C21   S    
C44   H45   S    
C35   H23   S    
C27   H13   S    
C16   H6    S    
O4    V2    S    
H7    C17   S    
O21   C33   S    
O19   V4    S    
H9    C25   S    
C15   O21   S    
O12   C32   A    
O6    C4    A    
C44   H46   S    
C16   O22   S    
C22   C31   S    
O1    V2    S    
O2    V1    S    
O11   V4    S    
O11   C31   A    
O4    C2    A    
C11   C30   S    
C17   C25   S    
C8    C10   S    
C14   H4    S    
C38   H32   S    
C35   H24   S    
C9    C11   T    
C46   H50   S    
C10   C12   T    
C42   C43   S    
C13   H1    S    
C39   C40   S    
O3    V1    S    
C45   H47   S    
C37   C38   S    
O19   V3    S    
C40   H36   S    
C29   O18   A    
O20   V3    S    
O3    C1    A    
C34   C35   S    
C23   C27   S    
O25   C45   S    
H10   C26   S    
C12   C29   S    
C35   H25   S    
C14   H2    S    
O13   V3    S    
C36   H27   S    
O7    V1    S    
C1    O8    A    
O8    V2    S    
C42   H40   S    
C28   O26   S    
C37   H28   S    
O16   C32   A    
O15   C31   A    
O5    V1    S    
C5    C7    T    
C6    C8    T    
C41   H39   S    
C39   H34   S    
C34   H21   S    
C24   C28   S    
O6    V2    S    
C39   H33   S    
O9    V2    S    
C46   H51   S    
C19   H11   S    
O10   V1    S    
O14   V4    S    
C40   C41   S    
C20   O24   S    
C19   C27   S    
C43   C44   S    
C20   C28   S    
O26   C46   S    
