data_mof_unit_26200.cif
_audit_creation_date              2012-12-11T21:12:35-0500
_audit_creation_method            fapswitch 2.2
_symmetry_space_group_name_H-M    P1
_symmetry_Int_Tables_number       1
_space_group_crystal_system       triclinic
_cell_length_a                    8.30483
_cell_length_b                    18.853848
_cell_length_c                    26.891439
_cell_angle_alpha                 99.988425
_cell_angle_beta                  91.817358
_cell_angle_gamma                 87.974272
_cell_volume                      4142.79516578

loop_
_atom_site_label
_atom_site_type_symbol
_atom_type_description
_atom_site_fract_x
_atom_site_fract_y
_atom_site_fract_z
_atom_type_partial_charge
Ba1   Ba    Ba6+2 0.160810 0.465630 0.521640 1.637519
Ba2   Ba    Ba6+2 0.649380 0.534380 0.478400 1.657007
C1    C     C_3   0.341663 0.217350 0.688940 -0.177330
C2    C     C_R   0.064715 0.089674 0.449178 -0.066843
C3    C     C_R   0.221409 0.955213 0.468066 -0.108522
C4    C     C_3   0.933703 0.281085 0.619662 0.343608
C5    C     C_R   0.067723 0.978718 0.486452 0.020526
C6    C     C_R   0.276244 0.884269 0.466105 -0.098085
C7    C     C_R   0.181334 0.833815 0.483163 -0.026516
C8    C     C_R   0.034778 0.857761 0.507147 0.006410
C9    C     C_R   0.978310 0.930783 0.509231 0.026577
C10   C     C_R   0.227061 0.759869 0.476214 -0.023513
C11   C     C_R   0.126420 0.710781 0.492188 -0.306360
C12   C     C_3   0.370088 0.273946 0.653925 0.342135
C13   C     C_R   0.988109 0.733592 0.519332 0.045607
C14   C     C_R   0.942468 0.808226 0.527674 -0.040819
C15   C     C_R   0.854554 0.072592 0.505624 0.020191
C16   C     C_3   0.927863 0.205508 0.632591 -0.433550
C17   C     C_R   0.791934 0.143704 0.502786 -0.007038
C18   C     C_R   0.871452 0.188724 0.474271 -0.044901
C19   C     C_R   0.989510 0.154340 0.440495 0.091321
C20   C     C_R   0.806332 0.834949 0.555178 -0.033978
C21   C     C_R   0.751368 0.906056 0.557490 -0.099334
C22   C     C_R   0.830769 0.954626 0.532661 0.010090
C23   C     C_3   0.494907 0.313564 0.394993 0.312676
C24   C     C_R   0.768416 0.025879 0.530773 0.025538
C25   C     C_R   0.617689 0.050862 0.550688 -0.105798
C26   C     C_R   0.645404 0.168239 0.526511 -0.030838
C27   C     C_R   0.558067 0.119955 0.548445 -0.112919
C28   C     C_3   0.819231 0.634660 0.634677 0.305266
C29   C     C_R   0.590446 0.240163 0.527512 0.006818
C30   C     C_R   0.682745 0.287047 0.506000 -0.283620
C31   C     C_R   0.821227 0.263552 0.478936 0.012027
C32   C     C_R   0.385333 0.484006 0.181799 0.575872
C33   C     C_R   0.103474 0.491304 0.160866 0.580504
C34   C     C_3   0.557460 0.239648 0.369917 -0.420797
C35   C     C_2   0.088047 0.565075 0.272177 0.037043
C36   C     C_3   0.067119 0.581537 0.329240 -0.099593
C37   C     C_1   0.273910 0.486788 0.336034 0.005767
C38   C     C_2   0.281517 0.467777 0.286461 -0.097507
C39   C     C_2   0.191830 0.510165 0.251408 0.221612
C40   C     C_3   0.771200 0.668271 0.687995 -0.371610
C41   C     C_R   0.297680 0.477362 0.093978 -0.076579
C42   C     C_R   0.420848 0.469929 0.129918 -0.039898
C43   C     C_R   0.577857 0.451977 0.113279 -0.059699
C44   C     C_R   0.138652 0.491400 0.109870 -0.034273
C45   C     C_3   0.857062 0.731306 0.350018 0.395755
C46   C     C_2   0.173151 0.536774 0.358952 -0.258991
C47   C     C_2   0.655653 0.477870 0.638600 -0.274505
C48   C     C_R   0.520433 0.436606 0.972542 0.002299
C49   C     C_R   0.267004 0.503453 0.959336 0.021060
C50   C     C_R   0.418119 0.473430 0.941486 0.036367
C51   C     C_R   0.650424 0.392703 0.949443 0.041479
C52   C     C_3   0.962731 0.387329 0.370524 0.299876
C53   C     C_R   0.698861 0.401796 0.901443 -0.066132
C54   C     C_R   0.609624 0.445754 0.872798 -0.046895
C55   C     C_R   0.467547 0.480580 0.892449 -0.086841
C56   C     C_3   0.825025 0.783396 0.312686 -0.389367
C57   C     C_R   0.376180 0.523578 0.863515 -0.028031
C58   C     C_R   0.433944 0.534887 0.816674 0.586676
C59   C     C_R   0.654761 0.451462 0.823460 0.576907
C60   C     C_2   0.766898 0.492340 0.727690 -0.115921
C61   C     C_3   0.805167 0.486507 0.672339 -0.054239
C62   C     C_1   0.520424 0.509771 0.655990 0.049228
C63   C     C_2   0.481958 0.507309 0.703191 -0.112753
C64   C     C_3   0.960460 0.373052 0.313080 -0.380777
C65   C     C_2   0.611254 0.500002 0.743112 0.184342
C66   C     C_R   0.489057 0.447195 0.025175 0.014383
C67   C     C_3   0.313254 0.737389 0.357022 0.335644
C68   C     C_R   0.334342 0.472287 0.042165 0.055245
C69   C     C_R   0.217776 0.494660 0.008112 0.018650
C70   C     C_R   0.610678 0.439832 0.061873 -0.130417
C71   C     C_R   0.019712 0.506932 0.074778 -0.083986
C72   C     C_R   0.173711 0.543589 0.928552 -0.099595
C73   C     C_R   0.229244 0.554860 0.882168 -0.053851
C74   C     C_R   0.058962 0.510304 0.025065 -0.110025
C75   C     C_3   0.330625 0.685790 0.593010 0.311136
C76   C     C_3   0.333874 0.767045 0.610051 -0.388160
C77   C     C_3   0.220588 0.240509 0.731533 -0.243431
C78   C     C_3   0.323701 0.780570 0.313846 -0.176915
C79   C     C_3   0.275201 0.301903 0.772633 -0.388297
C80   C     C_3   0.548748 0.293709 0.657216 -0.253873
C81   C     C_3   0.608298 0.322420 0.711041 -0.399701
C82   C     C_3   0.835160 0.772088 0.403466 -0.261695
C83   C     C_3   0.442484 0.747598 0.272799 -0.214223
C84   C     C_3   0.368703 0.691993 0.231400 -0.420805
C85   C     C_3   0.989356 0.165107 0.386092 -0.211844
C86   C     C_3   0.151696 0.187123 0.369960 -0.333830
C87   C     C_3   0.726168 0.329433 0.971086 -0.220994
C88   C     C_3   0.711557 0.257984 0.934403 -0.416542
C89   C     C_R   0.001083 0.048188 0.482212 -0.010972
C90   C     C_3   0.013099 0.620009 0.242949 -0.321325
H1    H     H_    0.296480 0.323645 0.666403 0.112350
H2    H     H_    0.204570 0.669836 0.584656 0.013102
H3    H     H_    0.403380 0.671244 0.558578 0.063943
H4    H     H_    0.259975 0.783172 0.644102 0.129196
H5    H     H_    0.284663 0.795332 0.579857 0.062669
H6    H     H_    0.459824 0.783768 0.619180 0.112430
H7    H     H_    0.455061 0.198051 0.705703 0.084989
H8    H     H_    0.600632 0.344974 0.410980 0.028892
H9    H     H_    0.414982 0.307867 0.426287 0.044544
H10   H     H_    0.654354 0.245989 0.343683 0.126291
H11   H     H_    0.604635 0.208433 0.398872 0.055683
H12   H     H_    0.690686 0.716299 0.686779 0.138136
H13   H     H_    0.460428 0.209183 0.347518 0.126404
H14   H     H_    0.297531 0.167049 0.665535 0.102835
H15   H     H_    0.857800 0.169959 0.603570 0.092773
H16   H     H_    0.984692 0.714021 0.346172 -0.064794
H17   H     H_    0.711476 0.815429 0.321141 0.110330
H18   H     H_    0.924286 0.821956 0.315516 0.075305
H19   H     H_    0.817182 0.753725 0.273334 0.105039
H20   H     H_    0.208431 0.760923 0.379246 -0.077451
H21   H     H_    0.293629 0.679932 0.341495 0.023091
H22   H     H_    0.201988 0.786565 0.296478 0.065541
H23   H     H_    0.705500 0.629683 0.705797 0.073842
H24   H     H_    0.031503 0.281272 0.592570 0.115681
H25   H     H_    0.362190 0.835759 0.330416 0.087914
H26   H     H_    0.161238 0.654170 0.485993 0.067323
H27   H     H_    0.392822 0.869419 0.450034 0.095459
H28   H     H_    0.738018 0.801215 0.574752 0.102086
H29   H     H_    0.441439 0.134227 0.564111 0.121196
H30   H     H_    0.642007 0.342681 0.508596 0.069414
H31   H     H_    0.302703 0.991154 0.455077 0.072011
H32   H     H_    0.155972 0.066284 0.423072 0.061254
H33   H     H_    0.644983 0.921021 0.579184 0.060753
H34   H     H_    0.880306 0.684920 0.711479 0.120634
H35   H     H_    0.818649 0.293814 0.600869 -0.034131
H36   H     H_    0.540118 0.017942 0.567805 0.070358
H37   H     H_    0.347865 0.418801 0.270654 0.100456
H38   H     H_    0.675768 0.446457 0.139972 0.173023
H39   H     H_    0.867318 0.493096 0.754490 0.131221
H40   H     H_    0.804456 0.371930 0.885598 0.122421
H41   H     H_    0.734145 0.427775 0.051346 0.077508
H42   H     H_    0.897650 0.520846 0.086569 0.108908
H43   H     H_    0.060826 0.570063 0.940747 0.068694
H44   H     H_    0.050231 0.181069 0.633656 0.129968
H45   H     H_    0.081510 0.406612 0.385413 0.000588
H46   H     H_    0.155287 0.587779 0.860607 0.117304
H47   H     H_    0.356583 0.506817 0.712393 0.151743
H48   H     H_    0.962295 0.523750 0.000201 0.071148
H49   H     H_    0.171453 0.550090 0.399849 0.074624
H50   H     H_    0.662202 0.450772 0.599605 0.075505
H51   H     H_    0.871230 0.206677 0.669577 0.127513
H52   H     H_    0.710558 0.612940 0.613309 0.024823
H53   H     H_    0.911670 0.591222 0.636084 0.035543
H54   H     H_    0.271909 0.353479 0.758035 0.139557
H55   H     H_    0.190720 0.308345 0.804413 0.139739
H56   H     H_    0.869363 0.429313 0.383028 0.101969
H57   H     H_    0.397476 0.290036 0.787546 0.129775
H58   H     H_    0.103085 0.256199 0.716072 0.180585
H59   H     H_    0.200493 0.193011 0.749697 0.109939
H60   H     H_    0.521017 0.362723 0.730123 0.124055
H61   H     H_    0.631695 0.278929 0.733458 0.135951
H62   H     H_    0.722698 0.349500 0.710376 0.200825
H63   H     H_    0.619867 0.244887 0.641447 0.096679
H64   H     H_    0.567179 0.336613 0.634787 0.068641
H65   H     H_    0.717390 0.801631 0.407481 0.149893
H66   H     H_    0.930400 0.812286 0.412412 0.032623
H67   H     H_    0.063706 0.336725 0.299211 0.107489
H68   H     H_    0.843640 0.733983 0.430361 0.120044
H69   H     H_    0.338869 0.643848 0.247211 0.156432
H70   H     H_    0.260152 0.715065 0.214183 0.126676
H71   H     H_    0.457811 0.674917 0.201394 0.139536
H72   H     H_    0.489164 0.791433 0.254955 0.105249
H73   H     H_    0.544544 0.720775 0.289757 0.200796
H74   H     H_    0.242007 0.142206 0.369392 0.090048
H75   H     H_    0.139536 0.200442 0.331358 0.121236
H76   H     H_    0.195708 0.234658 0.395912 0.174996
H77   H     H_    0.958741 0.113422 0.361357 0.082884
H78   H     H_    0.968070 0.424243 0.298551 0.093635
H79   H     H_    0.891201 0.202122 0.377932 0.128764
H80   H     H_    0.584148 0.249752 0.921434 0.138026
H81   H     H_    0.788338 0.256381 0.901184 0.130455
H82   H     H_    0.752109 0.212822 0.953812 0.126295
H83   H     H_    0.855424 0.339548 0.980699 0.109607
H84   H     H_    0.665021 0.320961 0.005474 0.121591
H85   H     H_    0.039680 0.674551 0.263275 0.061742
H86   H     H_    0.062897 0.617887 0.205111 0.110182
H87   H     H_    0.880581 0.613943 0.239493 0.164184
H88   H     H_    0.846136 0.347441 0.298318 0.138387
N1    N     N_R   0.226726 0.494872 0.197298 -0.428271
N2    N     N_R   0.568538 0.496537 0.795454 -0.419874
O1    O     O_2   0.106080 0.324280 0.466820 -0.445045
O2    O     O_2   0.746848 0.531311 0.324580 -0.439068
O3    O     O_3   0.752567 0.672342 0.339521 -0.560132
O4    O     O_3   0.859130 0.413620 0.470620 -0.493345
O5    O     O_3   0.459240 0.537930 0.559910 -0.490834
O6    O     O_2   0.583120 0.462390 0.379940 -0.451526
O7    O     O_3   0.407464 0.345430 0.358644 -0.645211
O8    O     O_2   0.560941 0.754996 0.480137 -0.492199
O9    O     O_3   0.455602 0.743598 0.386965 -0.583121
O10   O     O_2   0.496170 0.487779 0.213044 -0.572090
O11   O     O_2   0.769171 0.414627 0.805232 -0.621493
O12   O     O_3   0.394082 0.652772 0.632299 -0.629818
O13   O     O_2   0.963403 0.489405 0.172980 -0.598396
O14   O     O_2   0.365204 0.579928 0.795294 -0.603746
O15   O     O_3   0.376230 0.370290 0.556910 -0.472866
O16   O     O_2   0.272844 0.245248 0.509940 -0.473788
O17   O     O_3   0.931475 0.322879 0.386840 -0.650231
O18   O     O_3   0.315375 0.243075 0.604433 -0.633760
O19   O     O_2   0.227190 0.537650 0.620070 -0.460225
O20   O     O_3   0.971110 0.406970 0.583250 -0.486262
O21   O     O_2   0.135084 0.443166 0.667765 -0.493243
O22   O     O_3   0.959103 0.331841 0.663995 -0.619814
O23   O     O_2   0.704230 0.675760 0.533200 -0.468028
O24   O     O_3   0.951180 0.586390 0.529420 -0.488694
O25   O     O_3   0.434080 0.629720 0.443130 -0.457465
O26   O     O_3   0.886878 0.687921 0.612946 -0.642999
O27   O     O_3   0.351080 0.462080 0.440130 -0.474399
O28   O     O_3   0.839200 0.593040 0.416790 -0.475362
P1    P     P_3+3 0.929380 0.335110 0.452880 0.972356
P2    P     P_3+3 0.398530 0.559060 0.613740 1.001119
P3    P     P_3+3 0.966007 0.418182 0.648523 0.956464
P4    P     P_3+3 0.880940 0.664900 0.547160 0.976407
P5    P     P_3+3 0.852668 0.592964 0.351821 0.986111
P6    P     P_3+3 0.392801 0.276163 0.552433 0.928635
P7    P     P_3+3 0.402285 0.439090 0.376907 0.969954
P8    P     P_3+3 0.417689 0.722970 0.446714 0.957386

loop_
_geom_bond_atom_site_label_1
_geom_bond_atom_site_label_2
_ccdc_geom_bond_type
C54   C59   A    
C53   C54   A    
C19   C85   S    
C47   C61   S    
C59   O11   D    
C25   C27   A    
C56   H17   S    
C75   H2    S    
C17   C18   A    
C15   C89   A    
C49   C72   A    
C36   P5    S    
C75   O12   S    
C1    C77   S    
C67   O9    S    
C78   C83   S    
C11   H26   S    
C82   H68   S    
C62   P2    S    
C81   H62   S    
Ba1   O4    S    
C75   C76   S    
C20   H28   S    
C88   H81   S    
C67   H21   S    
C24   C25   A    
C35   C36   S    
C60   C65   D    
C34   H11   S    
O6    P7    D    
C15   C24   A    
C52   H56   S    
C16   H51   S    
C90   H87   S    
C22   C24   A    
C4    H35   S    
C69   C74   A    
C67   H20   S    
C55   C57   A    
C52   H45   S    
Ba1   P1    S    
O1    P1    D    
C13   C14   A    
C85   H77   S    
C9    C22   A    
C28   H52   S    
C54   C55   A    
C2    H32   S    
C32   N1    Am   
C34   H10   S    
Ba1   Ba2   S    
Ba2   O5    S    
C71   H42   S    
O18   P6    S    
C16   H15   S    
C76   H4    S    
C6    C7    A    
C63   C65   S    
C27   H29   S    
C76   H6    S    
C48   C50   A    
C21   C22   A    
C16   H44   S    
C68   C69   A    
C84   H70   S    
C45   O3    S    
C7    C8    A    
O19   P2    D    
C36   C46   S    
C33   O13   D    
C21   H33   S    
C2    C89   A    
C80   H64   S    
O24   P4    S    
C51   C53   A    
C5    C89   A    
C43   H38   S    
C47   C62   D    
C56   H18   S    
O4    P1    S    
C47   H50   S    
C43   C70   A    
C39   N1    S    
C49   C69   A    
C13   P4    S    
Ba1   O20   S    
O8    P8    D    
O9    P8    S    
C10   P8    S    
C64   H67   S    
C41   C44   A    
O7    P7    S    
Ba1   O5    S    
C1    H14   S    
C58   N2    Am   
C4    C16   S    
Ba2   O28   S    
C48   C51   A    
C72   C73   A    
Ba1   O27   S    
C56   H19   S    
C30   H30   S    
C87   H83   S    
C32   C42   A    
C64   H78   S    
C90   H85   S    
C37   C38   D    
C3    C5    A    
C82   H66   S    
O2    P5    D    
C29   P6    S    
C79   H55   S    
O16   P6    D    
C83   C84   S    
C64   H88   S    
O22   P3    S    
C75   H3    S    
C61   P3    S    
C52   O17   S    
O3    P5    S    
C5    C9    A    
C41   C42   A    
Ba2   O4    S    
C4    O22   S    
C60   C61   S    
C17   C26   A    
C65   N2    S    
C86   H76   S    
O25   P8    S    
C25   H36   S    
C23   H8    S    
C29   C30   A    
C66   C70   A    
C86   H75   S    
C28   O26   S    
C72   H43   S    
C76   H5    S    
C59   N2    Am   
C79   H54   S    
Ba2   O23   S    
C45   C82   S    
C18   C19   A    
Ba1   O24   S    
O15   P6    S    
C4    H24   S    
C1    C12   S    
C90   H86   S    
Ba1   O1    S    
C77   H58   S    
Ba2   O24   S    
C80   H63   S    
C38   C39   S    
C78   H22   S    
O23   P4    D    
Ba2   P4    S    
C41   C68   A    
C86   H74   S    
C11   C13   A    
O21   P3    D    
C71   C74   A    
C18   C31   A    
C74   H48   S    
C50   C55   A    
C57   C73   A    
C42   C43   A    
C58   O14   D    
C28   H53   S    
C77   H59   S    
C81   H60   S    
C45   H16   S    
C3    H31   S    
C78   H25   S    
C26   C27   A    
Ba2   O27   S    
C14   C20   A    
C12   H1    S    
C35   C90   S    
C34   H13   S    
C85   H79   S    
C60   H39   S    
C37   P7    S    
C26   C29   A    
Ba1   O15   S    
O26   P4    S    
O5    P2    S    
C84   H71   S    
C73   H46   S    
C40   H12   S    
C3    C6    A    
C82   H65   S    
C81   H61   S    
C33   N1    Am   
C38   H37   S    
Ba1   O19   S    
C88   H82   S    
C77   C79   S    
C83   H73   S    
C62   C63   D    
C32   O10   D    
O27   P7    S    
C49   C50   A    
C8    C14   A    
C30   C31   A    
C45   C56   S    
C51   C87   S    
C2    C19   A    
C31   P1    S    
C23   H9    S    
C70   H41   S    
C12   O18   S    
C79   H57   S    
C84   H69   S    
C15   C17   A    
C46   H49   S    
O17   P1    S    
O20   P3    S    
C35   C39   D    
C7    C10   A    
Ba2   O6    S    
C8    C9    A    
C40   H34   S    
C23   C34   S    
O12   P2    S    
C63   H47   S    
C1    H7    S    
C40   H23   S    
C57   C58   A    
C10   C11   A    
C85   C86   S    
C66   C68   A    
C53   H40   S    
C88   H80   S    
C83   H72   S    
C12   C80   S    
C20   C21   A    
C28   C40   S    
C67   C78   S    
C23   O7    S    
Ba2   O25   S    
C87   H84   S    
C80   C81   S    
C87   C88   S    
C52   C64   S    
C33   C44   A    
C48   C66   A    
C44   C71   A    
O28   P5    S    
C6    H27   S    
C37   C46   D    
Ba1   P2    S    
