data_mof_unit_56166.cif
_audit_creation_date              2012-12-11T16:08:31-0500
_audit_creation_method            fapswitch 2.2
_symmetry_space_group_name_H-M    P1
_symmetry_Int_Tables_number       1
_space_group_crystal_system       monoclinic
_cell_length_a                    7.238358
_cell_length_b                    21.384615
_cell_length_c                    23.466561
_cell_angle_alpha                 90.0
_cell_angle_beta                  89.999989
_cell_angle_gamma                 90.0
_cell_volume                      3632.3772219

loop_
_atom_site_label
_atom_site_type_symbol
_atom_type_description
_atom_site_fract_x
_atom_site_fract_y
_atom_site_fract_z
_atom_type_partial_charge
O1    O     O_R   0.365470 0.806380 0.442440 -0.535399
O2    O     O_R   0.134530 0.193620 0.942440 -0.535399
O3    O     O_R   0.865470 0.693620 0.557560 -0.535399
O4    O     O_R   0.634530 0.306380 0.057560 -0.535399
O5    O     O_R   0.035730 0.813790 0.557160 -0.533334
O6    O     O_R   0.464270 0.186210 0.057160 -0.533334
O7    O     O_R   0.535730 0.686210 0.442840 -0.533334
O8    O     O_R   0.964270 0.313790 0.942840 -0.533334
C1    C     C_R   0.204245 0.828701 0.575863 0.712721
C2    C     C_R   0.295755 0.171299 0.075863 0.712721
C3    C     C_R   0.704245 0.671299 0.424137 0.712721
C4    C     C_R   0.795755 0.328701 0.924137 0.712722
O9    O     O_R   0.035760 0.813790 0.442850 -0.529248
O10   O     O_R   0.464240 0.186210 0.942850 -0.529248
O11   O     O_R   0.535760 0.686210 0.557150 -0.529248
O12   O     O_R   0.964240 0.313790 0.057150 -0.529248
O13   O     O_R   0.865450 0.693620 0.442430 -0.531096
O14   O     O_R   0.634550 0.306380 0.942430 -0.531096
O15   O     O_R   0.365450 0.806380 0.557570 -0.531096
O16   O     O_R   0.134550 0.193620 0.057570 -0.531096
C5    C     C_R   0.204252 0.828707 0.424160 0.710227
C6    C     C_R   0.295748 0.171293 0.924160 0.710227
C7    C     C_R   0.704252 0.671293 0.575840 0.710226
C8    C     C_R   0.795748 0.328707 0.075840 0.710226
O17   O     O_3   0.198970 0.710570 0.500000 -0.375962
O18   O     O_3   0.301030 0.289430 0.000000 -0.375962
O19   O     O_3   0.698970 0.789430 0.500000 -0.375962
O20   O     O_3   0.801030 0.210570 0.000000 -0.375962
V1    V     V_3+5 0.924120 0.757310 0.500000 1.485080
V2    V     V_3+5 0.575880 0.242690 0.000000 1.485080
V3    V     V_3+5 0.424120 0.742690 0.500000 1.485080
V4    V     V_3+5 0.075880 0.257310 0.000000 1.485080
C9    C     C_3   0.905496 0.556921 0.746499 -0.304858
C10   C     C_3   0.594503 0.443079 0.246499 -0.304855
C11   C     C_3   0.405496 0.943079 0.253501 -0.304855
C12   C     C_3   0.094504 0.056921 0.753501 -0.304858
C13   C     C_3   0.554234 0.542365 0.746461 0.344516
C14   C     C_3   0.945766 0.457635 0.246461 0.344517
C15   C     C_3   0.054234 0.957635 0.253539 0.344517
C16   C     C_3   0.445766 0.042365 0.753539 0.344516
C17   C     C_3   0.573308 0.493792 0.796001 -0.447010
C18   C     C_3   0.926692 0.506208 0.296001 -0.447009
C19   C     C_3   0.073308 0.006208 0.203999 -0.447009
C20   C     C_3   0.426692 0.993792 0.703999 -0.447010
H1    H     H_    0.892066 0.537567 0.837495 0.141412
H2    H     H_    0.607935 0.462433 0.337495 0.141414
H3    H     H_    0.392065 0.962433 0.162505 0.141414
H4    H     H_    0.107934 0.037567 0.662505 0.141412
H5    H     H_    0.902282 0.605767 0.762324 0.223637
H6    H     H_    0.597718 0.394233 0.262324 0.223638
H7    H     H_    0.402282 0.894233 0.237676 0.223638
H8    H     H_    0.097718 0.105767 0.737676 0.223637
H9    H     H_    0.437938 0.526836 0.718808 0.069459
H10   H     H_    0.062062 0.473163 0.218808 0.069458
H11   H     H_    0.937938 0.973163 0.281192 0.069458
H12   H     H_    0.562062 0.026836 0.781192 0.069459
H13   H     H_    0.558213 0.516530 0.838355 0.179017
H14   H     H_    0.941788 0.483470 0.338355 0.179017
H15   H     H_    0.058212 0.983470 0.161645 0.179017
H16   H     H_    0.441787 0.016530 0.661645 0.179017
H17   H     H_    0.459777 0.458932 0.792845 0.178017
H18   H     H_    0.040223 0.541068 0.292844 0.178016
H19   H     H_    0.959777 0.041068 0.207155 0.178017
H20   H     H_    0.540223 0.958932 0.707155 0.178017
C21   C     C_1   0.786318 0.374650 0.878627 -0.140036
C22   C     C_1   0.713682 0.625350 0.378627 -0.140036
C23   C     C_1   0.286318 0.125350 0.121373 -0.140036
C24   C     C_1   0.213681 0.874650 0.621372 -0.140036
C25   C     C_3   0.733844 0.542951 0.708859 0.062354
C26   C     C_3   0.766156 0.457049 0.208859 0.062354
C27   C     C_3   0.233844 0.957049 0.291141 0.062353
C28   C     C_3   0.266156 0.042951 0.791141 0.062354
C29   C     C_3   0.916127 0.510355 0.797752 0.263200
C30   C     C_3   0.583873 0.489645 0.297752 0.263200
C31   C     C_3   0.416127 0.989645 0.202248 0.263200
C32   C     C_3   0.083873 0.010355 0.702248 0.263200
C33   C     C_3   0.761934 0.459510 0.793210 0.097026
C34   C     C_3   0.738066 0.540490 0.293210 0.097026
C35   C     C_3   0.261934 0.040490 0.206790 0.097026
C36   C     C_3   0.238066 0.959510 0.706790 0.097026
C37   C     C_3   0.773014 0.426944 0.734111 -0.328352
C38   C     C_3   0.726986 0.573056 0.234111 -0.328352
C39   C     C_3   0.273014 0.073056 0.265889 -0.328352
C40   C     C_3   0.226986 0.926944 0.765889 -0.328351
C41   C     C_3   0.759630 0.475678 0.685007 -0.443628
C42   C     C_3   0.740369 0.524322 0.185007 -0.443628
C43   C     C_3   0.259630 0.024322 0.314993 -0.443627
C44   C     C_3   0.240369 0.975678 0.814993 -0.443628
C45   C     C_1   0.776326 0.412815 0.840310 0.020118
C46   C     C_1   0.723674 0.587184 0.340310 0.020117
C47   C     C_1   0.276326 0.087184 0.159690 0.020117
C48   C     C_1   0.223674 0.912815 0.659690 0.020118
C49   C     C_1   0.721798 0.588344 0.660648 0.038491
C50   C     C_1   0.778202 0.411656 0.160648 0.038490
C51   C     C_1   0.221798 0.911656 0.339352 0.038490
C52   C     C_1   0.278202 0.088344 0.839352 0.038491
C53   C     C_1   0.713289 0.625774 0.621695 -0.110951
C54   C     C_1   0.786711 0.374226 0.121695 -0.110952
C55   C     C_1   0.213289 0.874226 0.378305 -0.110952
C56   C     C_1   0.286711 0.125774 0.878305 -0.110951
H21   H     H_    0.887096 0.473297 0.658554 0.175579
H22   H     H_    0.612904 0.526703 0.158554 0.175579
H23   H     H_    0.387095 0.026703 0.341446 0.175579
H24   H     H_    0.112904 0.973297 0.841446 0.175579
H25   H     H_    0.641714 0.463401 0.656695 0.167136
H26   H     H_    0.858286 0.536599 0.156695 0.167135
H27   H     H_    0.141714 0.036599 0.343305 0.167136
H28   H     H_    0.358286 0.963401 0.843305 0.167136
H29   H     H_    0.903128 0.399724 0.730070 0.171478
H30   H     H_    0.596871 0.600275 0.230070 0.171478
H31   H     H_    0.403129 0.100275 0.269930 0.171478
H32   H     H_    0.096872 0.899724 0.769930 0.171478
H33   H     H_    0.032546 0.553568 0.719933 0.167971
H34   H     H_    0.467454 0.446432 0.219933 0.167970
H35   H     H_    0.532546 0.946432 0.280067 0.167970
H36   H     H_    0.967454 0.053568 0.780067 0.167971
H37   H     H_    0.657960 0.392715 0.729922 0.180289
H38   H     H_    0.842039 0.607285 0.229922 0.180289
H39   H     H_    0.157961 0.107285 0.270078 0.180289
H40   H     H_    0.342039 0.892715 0.770078 0.180289
O21   O     O_3   0.092993 0.483545 0.802675 -0.623120
H41   H     H_    0.124850 0.463962 0.765669 0.288547
O22   O     O_3   0.407008 0.516454 0.302675 -0.623120
H42   H     H_    0.375150 0.536038 0.265669 0.288547
O23   O     O_3   0.592992 0.016454 0.197325 -0.623120
H43   H     H_    0.624850 0.036038 0.234331 0.288547
O24   O     O_3   0.907007 0.983545 0.697325 -0.623120
H44   H     H_    0.875150 0.963962 0.734331 0.288547
S1    S     S_3+6 0.485448 0.617894 0.773837 0.006585
O25   O     O_2   0.457626 0.663299 0.725746 -0.310900
O26   O     O_2   0.305143 0.610908 0.804987 -0.317118
O27   O     O_3   0.644042 0.647104 0.818987 -0.490684
H45   H     H_    0.618826 0.626830 0.856117 0.338835
S2    S     S_3+6 0.014551 0.382106 0.273838 0.006585
O28   O     O_2   0.042369 0.336700 0.225746 -0.310900
O29   O     O_2   0.194857 0.389092 0.304986 -0.317119
O30   O     O_3   0.855958 0.352897 0.318988 -0.490686
H46   H     H_    0.881179 0.373169 0.356118 0.338837
S3    S     S_3+6 0.985449 0.882106 0.226162 0.006584
O31   O     O_2   0.957630 0.836700 0.274254 -0.310900
O32   O     O_2   0.805143 0.889092 0.195014 -0.317119
O33   O     O_3   0.144042 0.852896 0.181012 -0.490686
H47   H     H_    0.118820 0.873169 0.143881 0.338837
S4    S     S_3+6 0.514552 0.117894 0.726163 0.006586
O34   O     O_2   0.542374 0.163299 0.774255 -0.310900
O35   O     O_2   0.694857 0.110908 0.695013 -0.317118
O36   O     O_3   0.355958 0.147104 0.681013 -0.490684
H48   H     H_    0.381174 0.126830 0.643883 0.338835

loop_
_geom_bond_atom_site_label_1
_geom_bond_atom_site_label_2
_ccdc_geom_bond_type
O17   V3    S    
C39   C43   S    
C14   C26   S    
O1    C5    A    
C13   C25   S    
O19   V1    S    
O13   V1    S    
H4    C32   S    
O3    C7    A    
O36   H48   S    
C17   H17   S    
C36   C40   S    
O15   V3    S    
C18   H14   S    
S2    O30   S    
C19   H19   S    
O22   H42   S    
C22   C46   T    
C2    C23   S    
C20   H20   S    
C21   C45   T    
C11   C31   S    
C40   H32   S    
C8    C54   S    
C38   H30   S    
H1    C29   S    
C26   C50   S    
C14   C18   S    
C25   C49   S    
C17   C33   S    
O4    C8    A    
S3    O33   S    
C51   C55   T    
C27   C51   S    
C50   C54   T    
C19   C35   S    
C37   H37   S    
O1    V3    S    
C40   H40   S    
O2    V4    S    
C39   H39   S    
O3    V1    S    
C41   H21   S    
C12   C32   S    
C44   H24   S    
C1    O15   A    
C15   H11   S    
C2    O16   A    
O27   H45   S    
C16   H12   S    
O2    C6    A    
C11   H35   S    
O14   V2    S    
C10   C26   S    
C35   C47   S    
C12   H8    S    
C3    C22   S    
C19   H15   S    
S1    O27   S    
C13   H9    S    
O11   C7    A    
C30   O22   S    
O30   H46   S    
C11   C27   S    
O12   C8    A    
C42   H26   S    
O10   V2    S    
S4    O36   S    
C41   H25   S    
C28   C44   S    
O5    V1    S    
C15   S3    S    
C10   H6    S    
O7    V3    S    
O8    V4    S    
C32   C36   S    
C20   C36   S    
C6    C56   S    
S4    O35   D    
O18   V4    S    
C15   C19   S    
C38   C42   S    
C34   C46   S    
C31   O23   S    
C36   C48   S    
O7    C3    A    
O5    C1    A    
C34   C38   S    
C14   H10   S    
C33   C37   S    
O8    C4    A    
C33   C45   S    
C23   C47   T    
O9    C5    A    
O21   H41   S    
C10   C30   S    
C26   C42   S    
C43   H23   S    
C9    C29   S    
O6    V2    S    
C37   H29   S    
C18   C34   S    
C29   O21   S    
C16   S4    S    
C11   H7    S    
O23   H43   S    
C27   C43   S    
C10   H34   S    
C38   H38   S    
O24   H44   S    
C12   H36   S    
C49   C53   T    
H2    C30   S    
C25   C41   S    
S1    O25   D    
O16   V4    S    
O9    V1    S    
C18   H18   S    
C3    O13   A    
C15   C27   S    
C16   C28   S    
C7    C53   S    
C40   C44   S    
S4    O34   D    
O6    C2    A    
S2    O29   D    
S3    O31   D    
O11   V3    S    
S2    O28   D    
C9    C25   S    
O12   V4    S    
C4    C21   S    
C9    H33   S    
O10   C6    A    
O20   V2    S    
C1    C24   S    
C17   H13   S    
C35   C39   S    
S3    O32   D    
C31   C35   S    
C20   H16   S    
C5    C55   S    
C52   C56   T    
C24   C48   T    
C13   S1    S    
C39   H31   S    
C14   S2    S    
C13   C17   S    
O4    V2    S    
H3    C31   S    
C28   C52   S    
C44   H28   S    
C16   C20   S    
C43   H27   S    
C30   C34   S    
C4    O14   A    
C32   O24   S    
C29   C33   S    
O33   H47   S    
C9    H5    S    
C37   C41   S    
C12   C28   S    
S1    O26   D    
C42   H22   S    
