data_mof_unit_16220.cif
_audit_creation_date              2012-12-10T17:22:43-0500
_audit_creation_method            fapswitch 2.2
_symmetry_space_group_name_H-M    P1
_symmetry_Int_Tables_number       1
_space_group_crystal_system       triclinic
_cell_length_a                    10.641884
_cell_length_b                    10.77824
_cell_length_c                    9.616139
_cell_angle_alpha                 88.743499
_cell_angle_beta                  90.084389
_cell_angle_gamma                 91.863319
_cell_volume                      1102.13003327

loop_
_atom_site_label
_atom_site_type_symbol
_atom_type_description
_atom_site_fract_x
_atom_site_fract_y
_atom_site_fract_z
_atom_type_partial_charge
C1    C     C_R   0.510090 0.263042 0.502714 0.819182
C2    C     C_3   0.960956 0.525329 0.371688 0.716749
C3    C     C_3   0.039866 0.413650 0.413579 -0.234300
C4    C     C_3   0.122962 0.501719 0.499967 -0.096857
C5    C     C_R   0.723198 0.114381 0.637543 0.200686
C6    C     C_R   0.834571 0.049402 0.649986 -0.145875
C7    C     C_R   0.841759 0.929906 0.600871 -0.164739
C8    C     C_R   0.734483 0.869864 0.550023 -0.165576
C9    C     C_R   0.621195 0.933381 0.535430 0.083905
C10   C     C_R   0.618845 0.061944 0.562776 0.049530
C11   C     C_R   0.513581 0.128386 0.510899 -0.070010
C12   C     C_R   0.259645 0.500579 0.499958 0.824218
C13   C     C_R   0.409482 0.064647 0.454446 -0.164018
C14   C     C_R   0.405593 0.936487 0.450893 -0.177690
C15   C     C_R   0.510066 0.871028 0.492871 -0.058623
C16   C     C_R   0.664061 0.665660 0.140664 -0.073932
C17   C     C_R   0.745157 0.746481 0.067405 0.324394
C18   C     C_R   0.747028 0.744992 0.924158 -0.224987
C19   C     C_R   0.667081 0.663780 0.853554 -0.143361
C20   C     C_R   0.581671 0.580723 0.923763 0.123050
C21   C     C_R   0.580981 0.581162 0.073119 0.130392
C22   C     C_R   0.422744 0.422965 0.075669 -0.105801
C23   C     C_R   0.499827 0.737197 0.498034 0.748761
C24   C     C_R   0.422558 0.422994 0.927916 0.716457
C25   C     C_R   0.740584 0.500496 0.499860 0.786881
C26   C     C_3   0.040899 0.477206 0.629449 -0.043130
C27   C     C_3   0.955513 0.389421 0.542852 -0.208641
C28   C     C_3   0.877676 0.501129 0.499214 -0.076265
C29   C     C_3   0.961368 0.589189 0.585327 -0.256796
C30   C     C_3   0.046003 0.614055 0.455859 -0.236676
Cu1   Cu    Cu3+1 0.499990 0.499990 0.640660 1.030491
Cu2   Cu    Cu3+1 0.500010 0.500010 0.359340 0.976978
H1    H     H_    0.918832 0.296510 0.576200 0.181094
H2    H     H_    0.928594 0.881001 0.610912 0.150444
H3    H     H_    0.741227 0.774193 0.519847 0.116017
H4    H     H_    0.321269 0.888166 0.414557 0.146274
H5    H     H_    0.359337 0.359774 0.132275 0.165383
H6    H     H_    0.671078 0.673025 0.250003 0.205781
H7    H     H_    0.810947 0.807160 0.866826 0.179992
H8    H     H_    0.676577 0.670513 0.744148 0.199883
H9    H     H_    0.076151 0.457157 0.736051 0.195482
H10   H     H_    0.926523 0.659280 0.657351 0.155152
H11   H     H_    0.085282 0.705672 0.419158 0.165875
H12   H     H_    0.074219 0.342466 0.342409 0.167333
H13   H     H_    0.329104 0.114581 0.416303 0.146445
H14   H     H_    0.914635 0.089296 0.704750 0.174816
N1    N     N_R   0.501210 0.501210 0.147910 -0.224826
N2    N     N_R   0.501250 0.501290 0.852040 -0.231526
O1    O     O_R   0.499990 0.319640 0.618810 -0.488854
O2    O     O_R   0.500000 0.319660 0.381240 -0.579391
O3    O     O_R   0.316850 0.499960 0.618770 -0.539599
O4    O     O_R   0.316860 0.499980 0.381190 -0.584147
O5    O     O_R   0.500000 0.680340 0.618760 -0.601270
O6    O     O_R   0.500010 0.680360 0.381190 -0.602171
O7    O     O_R   0.683140 0.500020 0.618810 -0.573686
O8    O     O_R   0.683150 0.500040 0.381230 -0.567085
Br1   Br    Br    0.854665 0.859049 0.164662 -0.482102
F1    F     F_    0.342916 0.343587 0.861331 -0.646318
F2    F     F_    0.918439 0.549288 0.238247 -0.643293
Br2   Br    Br    0.713750 0.246377 0.767204 -0.470100

loop_
_geom_bond_atom_site_label_1
_geom_bond_atom_site_label_2
_ccdc_geom_bond_type
C17   C18   A    
C4    C26   S    
C18   H7    S    
C16   C21   A    
C1    O2    A    
C29   H10   S    
C4    C12   S    
C9    C10   A    
Cu1   Cu2   S    
C1    C11   S    
C25   O8    A    
C2    C30   S    
Cu2   N1    S    
C19   C20   A    
C15   C23   S    
C22   N1    A    
C9    C15   A    
C4    C30   S    
C5    C10   A    
C20   N2    A    
C13   C14   A    
C27   H1    S    
C25   C28   S    
C13   H13   S    
C11   C13   A    
Cu2   O2    S    
C26   C27   S    
C29   C30   S    
C2    F2    S    
Cu1   O1    S    
C5    C6    A    
Cu2   O6    S    
C28   C29   S    
C12   O4    A    
C23   O5    A    
C6    C7    A    
C2    C3    S    
C3    C27   S    
C14   H4    S    
Cu1   N2    S    
C3    H12   S    
C7    H2    S    
C22   C24   A    
C30   H11   S    
C16   C17   A    
C19   H8    S    
C3    C4    S    
C24   N2    A    
C7    C8    A    
C12   O3    A    
C16   H6    S    
C20   C21   A    
C23   O6    A    
C24   F1    S    
C18   C19   A    
C10   C11   A    
C17   Br1   S    
C27   C28   S    
C26   C29   S    
Cu2   O4    S    
C2    C28   S    
C6    H14   S    
C5    Br2   S    
Cu1   O7    S    
C14   C15   A    
C22   H5    S    
C1    O1    A    
Cu2   O8    S    
Cu1   O5    S    
C25   O7    A    
C26   H9    S    
Cu1   O3    S    
C8    C9    A    
C21   N1    A    
C8    H3    S    
