data_mof_unit_16615.cif
_audit_creation_date              2012-10-26T19:30:39-0400
_audit_creation_method            fapswitch 2.2
_symmetry_space_group_name_H-M    P1
_symmetry_Int_Tables_number       1
_space_group_crystal_system       triclinic
_cell_length_a                    19.327663
_cell_length_b                    10.643052
_cell_length_c                    9.408508
_cell_angle_alpha                 90.593956
_cell_angle_beta                  91.149106
_cell_angle_gamma                 89.755146
_cell_volume                      1934.87098029

loop_
_atom_site_label
_atom_site_type_symbol
_atom_type_description
_atom_site_fract_x
_atom_site_fract_y
_atom_site_fract_z
_atom_type_partial_charge
C1    C     C_R   0.501192 0.259629 0.499174 0.544838
C2    C     C_3   0.519851 0.036233 0.373740 0.141093
C3    C     C_3   0.471140 0.600919 0.050390 0.014165
C4    C     C_3   0.528847 0.399014 0.949520 -0.013156
C5    C     C_3   0.437616 0.505459 0.946776 0.035111
C6    C     C_3   0.562404 0.494531 0.053068 0.022834
C7    C     C_3   0.533547 0.595457 0.952042 0.004340
C8    C     C_3   0.466363 0.404525 0.047983 -0.001329
C9    C     C_R   0.367199 0.501402 0.498671 0.560322
C10   C     C_R   0.632597 0.502269 0.501388 0.586977
C11   C     C_R   0.258194 0.445079 0.615924 -0.160945
C12   C     C_R   0.499354 0.740458 0.500820 0.591266
C13   C     C_R   0.741920 0.431917 0.394361 -0.168041
C14   C     C_R   0.186527 0.432406 0.618985 -0.113786
C15   C     C_R   0.813643 0.418801 0.394812 -0.115647
C16   C     C_R   0.145601 0.468185 0.501912 -0.011694
C17   C     C_R   0.853844 0.470093 0.506174 -0.014140
C18   C     C_R   0.177012 0.520000 0.383522 -0.084083
C19   C     C_R   0.821560 0.537768 0.614853 -0.083313
C20   C     C_R   0.248643 0.537718 0.380640 0.215046
C21   C     C_R   0.749766 0.555564 0.613416 0.261058
C22   C     C_R   0.290580 0.496273 0.497023 -0.011581
C23   C     C_3   0.546355 0.043201 0.600225 -0.134856
C24   C     C_R   0.708906 0.498389 0.503852 0.002558
C25   C     C_R   0.929683 0.459091 0.506193 0.348901
C26   C     C_R   0.069845 0.457767 0.504399 0.346582
C27   C     C_3   0.436286 0.019723 0.858727 -0.301127
C28   C     C_3   0.565047 0.980124 0.141264 -0.304794
C29   C     C_3   0.455180 0.957210 0.399727 -0.144460
C30   C     C_3   0.564968 0.955106 0.473370 -0.109705
C31   C     C_3   0.436512 0.045100 0.526582 -0.125445
C32   C     C_3   0.499803 0.877015 0.502302 0.031392
C33   C     C_3   0.501609 0.123195 0.497639 0.029090
C34   C     C_3   0.481662 0.964067 0.626293 0.147140
Cu1   Cu    Cu3+1 0.500020 0.499990 0.643150 0.988598
Cu2   Cu    Cu3+1 0.499980 0.500010 0.356850 1.002294
H1    H     H_    0.288451 0.413032 0.706797 0.144065
H2    H     H_    0.384418 0.084000 0.548891 0.116480
H3    H     H_    0.582586 0.080136 0.683505 0.118197
H4    H     H_    0.419399 0.922274 0.314829 0.151453
H5    H     H_    0.385123 0.510248 0.897215 0.159359
H6    H     H_    0.615086 0.489668 0.101821 0.150509
H7    H     H_    0.447193 0.686373 0.097136 0.167643
H8    H     H_    0.553243 0.314090 0.902340 0.111499
H9    H     H_    0.320842 0.771043 0.360818 0.326401
H10   H     H_    0.639213 0.805090 0.753179 0.344840
H11   H     H_    0.498235 0.865563 0.813249 0.246876
H12   H     H_    0.712018 0.387991 0.308951 0.144396
H13   H     H_    0.421175 0.978076 0.961220 0.151268
H14   H     H_    0.389968 0.066190 0.811013 0.167276
H15   H     H_    0.477279 0.090814 0.879713 0.124685
H16   H     H_    0.503501 0.134856 0.186719 0.251465
H17   H     H_    0.580161 0.021545 0.038657 0.138087
H18   H     H_    0.523911 0.909259 0.120482 0.130760
H19   H     H_    0.611312 0.933404 0.188870 0.176007
H20   H     H_    0.561208 0.676571 0.907326 0.140222
H21   H     H_    0.437634 0.324693 0.093174 0.111350
H22   H     H_    0.163209 0.392722 0.712047 0.162091
H23   H     H_    0.837574 0.366775 0.309179 0.161839
H24   H     H_    0.145064 0.550401 0.294384 0.185853
H25   H     H_    0.852819 0.580200 0.699079 0.185651
H26   H     H_    0.617040 0.916292 0.450757 0.152757
N1    N     N_R   0.032480 0.447345 0.381133 -0.208731
N2    N     N_R   0.967044 0.467875 0.629665 -0.207272
N3    N     N_R   0.963680 0.447435 0.382017 -0.200947
N4    N     N_R   0.035876 0.466714 0.628881 -0.198908
N5    N     N_3   0.500050 0.499970 0.858290 -0.246050
N6    N     N_3   0.499950 0.500030 0.141710 -0.241543
N7    N     N_2   0.461320 0.921786 0.765074 -0.492702
N8    N     N_2   0.540268 0.078322 0.234910 -0.499685
O1    O     O_R   0.500030 0.316850 0.620870 -0.523558
O2    O     O_2   0.224999 0.685944 0.153432 -0.266511
O3    O     O_3   0.342599 0.720625 0.284602 -0.529469
O4    O     O_2   0.687643 0.574481 0.862744 -0.308268
O5    O     O_2   0.770131 0.739705 0.807432 -0.277515
O6    O     O_3   0.650510 0.743484 0.677408 -0.544928
O7    O     O_R   0.499970 0.683150 0.379130 -0.495282
O8    O     O_R   0.500000 0.316860 0.379090 -0.506898
O9    O     O_R   0.500000 0.683140 0.620910 -0.479981
O10   O     O_R   0.400160 0.499980 0.620930 -0.529155
O11   O     O_R   0.599840 0.500020 0.379070 -0.526675
O12   O     O_R   0.400130 0.499990 0.379150 -0.413975
O13   O     O_R   0.599870 0.500010 0.620850 -0.424058
O14   O     O_2   0.312679 0.521230 0.134001 -0.286328
S1    S     S_3+6 0.281671 0.616996 0.232281 0.009788
S2    S     S_3+6 0.714847 0.654811 0.746332 0.002113

loop_
_geom_bond_atom_site_label_1
_geom_bond_atom_site_label_2
_ccdc_geom_bond_type
N1    N3    A    
C10   O13   A    
Cu1   Cu2   S    
C5    N5    S    
H10   O6    S    
O2    S1    D    
C1    C33   S    
C3    H7    S    
C1    O1    A    
C2    C29   S    
C19   C21   A    
C29   C32   S    
C3    C7    S    
Cu2   O7    S    
C11   C14   A    
C9    C22   S    
C12   O9    A    
Cu1   O10   S    
H9    O3    S    
C11   H1    S    
H11   N7    S    
C3    N6    S    
Cu2   O12   S    
C23   C33   S    
C31   C33   S    
C27   N7    S    
C27   H14   S    
C4    C8    S    
C9    O12   A    
C6    N6    S    
C25   N2    A    
Cu1   O1    S    
C12   O7    A    
C1    O8    A    
C7    H20   S    
C28   H19   S    
C27   H15   S    
C16   C26   S    
C14   H22   S    
C26   N4    A    
C23   C30   S    
C25   N3    A    
O14   S1    D    
C4    C6    S    
C28   H18   S    
C4    H8    S    
C10   C24   S    
C13   C24   A    
C13   H12   S    
N2    N4    A    
C26   N1    A    
C8    H21   S    
C5    C8    S    
O5    S2    D    
Cu1   N5    S    
Cu2   O11   S    
C23   C34   S    
C20   S1    S    
C31   C34   S    
O4    S2    D    
C34   N7    S    
O3    S1    S    
C2    C33   S    
C18   H24   S    
C20   C22   A    
C8    N6    S    
C30   H26   S    
C14   C16   A    
O6    S2    S    
C15   C17   A    
C5    H5    S    
C21   S2    S    
Cu1   O13   S    
C11   C22   A    
C15   H23   S    
C28   N8    S    
C3    C5    S    
C4    N5    S    
C28   H17   S    
Cu2   N6    S    
C6    C7    S    
C10   O11   A    
C31   H2    S    
C2    C30   S    
C17   C25   S    
C13   C15   A    
C29   C31   S    
Cu2   O8    S    
C30   C32   S    
C19   H25   S    
C23   H3    S    
C29   H4    S    
Cu1   O9    S    
C17   C19   A    
C18   C20   A    
H16   N8    S    
C7    N5    S    
C16   C18   A    
C6    H6    S    
C21   C24   A    
C2    N8    S    
C9    O10   A    
C12   C32   S    
C27   H13   S    
C32   C34   S    
