data_mof_unit_35799.cif
_audit_creation_date              2012-12-10T19:45:49-0500
_audit_creation_method            fapswitch 2.2
_symmetry_space_group_name_H-M    P1
_symmetry_Int_Tables_number       1
_space_group_crystal_system       triclinic
_cell_length_a                    18.422927
_cell_length_b                    18.422934
_cell_length_c                    27.58354
_cell_angle_alpha                 90.000083
_cell_angle_beta                  89.999988
_cell_angle_gamma                 89.99999
_cell_volume                      9361.97396662

loop_
_atom_site_label
_atom_site_type_symbol
_atom_type_description
_atom_site_fract_x
_atom_site_fract_y
_atom_site_fract_z
_atom_type_partial_charge
C1    C     C_1   1.000000 0.500000 0.775521 0.056127
C2    C     C_3   0.218626 0.157807 0.928451 0.206243
C3    C     C_R   0.249236 0.803142 0.537560 0.220712
C4    C     C_1   0.500000 0.000000 0.224516 0.065797
C5    C     C_1   1.000000 0.500000 0.224516 0.065808
C6    C     C_1   1.000000 0.500000 0.724516 0.065812
C7    C     C_1   0.500000 0.000000 0.724516 0.065807
C8    C     C_3   0.842160 0.218658 0.928427 0.206272
C9    C     C_3   0.781362 0.842180 0.928442 0.206236
C10   C     C_3   0.155647 0.213024 0.932774 0.196201
C11   C     C_3   0.213051 0.844328 0.932749 0.196209
C12   C     C_3   0.844340 0.786960 0.932762 0.196202
C13   C     C_3   0.786941 0.155679 0.932745 0.196206
C14   C     C_3   0.657816 0.281366 0.428445 0.206239
C15   C     C_3   0.718660 0.657841 0.428425 0.206261
C16   C     C_3   0.342188 0.718630 0.428448 0.206229
C17   C     C_1   0.500000 1.000000 0.775521 0.056126
C18   C     C_3   0.281348 0.342167 0.428430 0.206276
C19   C     C_3   0.655682 0.713062 0.432741 0.196197
C20   C     C_3   0.713034 0.344344 0.432767 0.196196
C21   C     C_3   0.344327 0.286948 0.432748 0.196223
C22   C     C_3   0.286969 0.655652 0.432769 0.196193
C23   C     C_R   0.500000 0.000000 0.870931 0.833872
C24   C     C_R   1.000000 0.500000 0.870931 0.833892
C25   C     C_R   0.000000 0.500000 0.370931 0.833889
C26   C     C_R   0.500000 1.000000 0.370931 0.833894
C27   C     C_R   0.500000 0.000000 0.129086 0.821270
C28   C     C_1   0.500000 1.000000 0.275521 0.056117
C29   C     C_R   0.000000 0.500000 0.129086 0.821318
C30   C     C_R   1.000000 0.500000 0.629086 0.821337
C31   C     C_R   0.500000 0.000000 0.629086 0.821289
C32   C     C_R   0.640833 0.860407 0.000749 0.903718
C33   C     C_R   0.139593 0.640833 0.000749 0.903724
C34   C     C_R   0.359167 0.139594 0.000749 0.903649
C35   C     C_R   0.860408 0.359167 0.000749 0.903749
C36   C     C_R   0.638633 0.141789 0.999001 0.872101
C37   C     C_R   0.141789 0.361368 0.998999 0.872129
C38   C     C_R   0.361367 0.858211 0.999000 0.872108
C39   C     C_1   1.000000 0.500000 0.275521 0.056124
C40   C     C_R   0.858211 0.638633 0.999000 0.872120
C41   C     C_R   0.140833 0.360407 0.500749 0.903734
C42   C     C_R   0.639593 0.140833 0.500749 0.903699
C43   C     C_R   0.859167 0.639592 0.500749 0.903775
C44   C     C_R   0.360407 0.859167 0.500749 0.903700
C45   C     C_R   0.138632 0.641789 0.499000 0.872131
C46   C     C_R   0.641788 0.861366 0.499001 0.872104
C47   C     C_R   0.861367 0.358211 0.499000 0.872129
C48   C     C_R   0.358211 0.138633 0.499000 0.872125
C49   C     C_1   1.000000 0.500000 0.819111 -0.069153
C50   C     C_1   0.500000 0.000000 0.180921 -0.040510
C51   C     C_1   0.500000 1.000000 0.819111 -0.069138
C52   C     C_1   0.500000 1.000000 0.319111 -0.069117
C53   C     C_1   1.000000 0.500000 0.319111 -0.069160
C54   C     C_R   0.260070 0.791461 0.959343 0.003244
C55   C     C_R   0.208525 0.260057 0.959347 0.003259
C56   C     C_R   0.739925 0.208543 0.959343 0.003240
C57   C     C_R   0.791467 0.739935 0.959345 0.003264
C58   C     C_R   0.263096 0.209155 0.958468 -0.010278
C59   C     C_R   0.209167 0.736891 0.958465 -0.010278
C60   C     C_R   0.736897 0.790838 0.958467 -0.010268
C61   C     C_1   1.000000 0.500000 0.180921 -0.040515
C62   C     C_R   0.790829 0.263113 0.958465 -0.010297
C63   C     C_R   0.760062 0.291470 0.459346 0.003271
C64   C     C_R   0.708544 0.760076 0.459342 0.003247
C65   C     C_R   0.239940 0.708528 0.459346 0.003270
C66   C     C_R   0.291461 0.239930 0.459343 0.003258
C67   C     C_R   0.763114 0.709172 0.458464 -0.010272
C68   C     C_R   0.709160 0.236899 0.458467 -0.010270
C69   C     C_R   0.236891 0.290832 0.458465 -0.010307
C70   C     C_R   0.290843 0.763098 0.458467 -0.010253
C71   C     C_R   0.311550 0.796554 0.996296 -0.264346
C72   C     C_1   1.000000 0.500000 0.680921 -0.040511
C73   C     C_R   0.203448 0.311553 0.996291 -0.264367
C74   C     C_R   0.688453 0.203445 0.996300 -0.264369
C75   C     C_R   0.796555 0.688451 0.996296 -0.264372
C76   C     C_R   0.305991 0.198180 0.999801 -0.314065
C77   C     C_R   0.198175 0.694012 0.999803 -0.314072
C78   C     C_R   0.694013 0.801826 0.999804 -0.314077
C79   C     C_R   0.801828 0.305986 0.999805 -0.314073
C80   C     C_R   0.811548 0.296555 0.496296 -0.264381
C81   C     C_R   0.703443 0.811545 0.496301 -0.264360
C82   C     C_R   0.188450 0.703446 0.496294 -0.264365
C83   C     C_1   0.500000 0.000000 0.680921 -0.040505
C84   C     C_R   0.296554 0.188451 0.496297 -0.264351
C85   C     C_R   0.805983 0.698169 0.499806 -0.314081
C86   C     C_R   0.698174 0.194013 0.499803 -0.314072
C87   C     C_R   0.194013 0.301826 0.499804 -0.314061
C88   C     C_R   0.301824 0.805988 0.499802 -0.314075
C89   C     C_R   0.314059 0.738584 0.030504 0.315076
C90   C     C_R   0.261432 0.314079 0.030486 0.315084
C91   C     C_R   0.685952 0.261407 0.030514 0.314987
C92   C     C_R   0.738583 0.685940 0.030503 0.315096
C93   C     C_R   0.303153 0.250777 0.037554 0.220769
C94   C     C_3   0.157831 0.781350 0.928432 0.206261
C95   C     C_R   0.250753 0.696867 0.037567 0.220693
C96   C     C_R   0.696865 0.749245 0.037566 0.220720
C97   C     C_R   0.749259 0.303123 0.037574 0.220745
C98   C     C_R   0.814061 0.238581 0.530500 0.315091
C99   C     C_R   0.761402 0.814041 0.530519 0.315069
C100  C     C_R   0.185933 0.761423 0.530495 0.315160
C101  C     C_R   0.238586 0.185944 0.530506 0.315061
C102  C     C_R   0.803117 0.750733 0.537577 0.220687
C103  C     C_R   0.750757 0.196863 0.537564 0.220753
C104  C     C_R   0.196869 0.249250 0.537568 0.220728
H1    H     H_    0.105889 0.792440 0.947590 0.069873
H2    H     H_    0.707565 0.605897 0.447578 0.069894
H3    H     H_    0.394126 0.707549 0.447613 0.069835
H4    H     H_    0.292438 0.394110 0.447586 0.069884
H5    H     H_    0.612233 0.693082 0.457359 0.041013
H6    H     H_    0.693062 0.387777 0.457399 0.040976
H7    H     H_    0.387771 0.306925 0.457370 0.040987
H8    H     H_    0.306939 0.612219 0.457402 0.040972
H9    H     H_    0.210110 0.709206 0.808378 0.393085
H10   H     H_    0.290705 0.210057 0.808375 0.393101
H11   H     H_    0.789862 0.290816 0.808381 0.393084
H12   H     H_    0.207548 0.105870 0.947618 0.069835
H13   H     H_    0.709251 0.789918 0.808376 0.393102
H14   H     H_    0.139621 0.352985 0.838179 0.379298
H15   H     H_    0.353034 0.860272 0.838161 0.379292
H16   H     H_    0.860325 0.646988 0.838171 0.379299
H17   H     H_    0.646929 0.139725 0.838179 0.379277
H18   H     H_    0.710077 0.209265 0.308377 0.393100
H19   H     H_    0.790825 0.710137 0.308380 0.393085
H20   H     H_    0.289937 0.790722 0.308375 0.393099
H21   H     H_    0.209149 0.289878 0.308392 0.393056
H22   H     H_    0.639741 0.853078 0.338178 0.379274
H23   H     H_    0.894105 0.207566 0.947580 0.069899
H24   H     H_    0.853007 0.360353 0.338179 0.379295
H25   H     H_    0.360238 0.147003 0.338126 0.379317
H26   H     H_    0.147000 0.639642 0.338179 0.379295
H27   H     H_    0.504405 0.686020 0.030297 0.411481
H28   H     H_    0.313928 0.504453 0.030252 0.411460
H29   H     H_    0.495689 0.314156 0.030261 0.411457
H30   H     H_    0.686059 0.495576 0.030312 0.411469
H31   H     H_    0.273304 0.131775 0.104599 0.328983
H32   H     H_    0.131711 0.726747 0.104576 0.328999
H33   H     H_    0.726744 0.868284 0.104579 0.328998
H34   H     H_    0.792447 0.894119 0.947605 0.069847
H35   H     H_    0.868322 0.273234 0.104567 0.329003
H36   H     H_    0.004423 0.186051 0.530296 0.411483
H37   H     H_    0.814033 0.004359 0.530330 0.411499
H38   H     H_    0.995508 0.813819 0.530332 0.411503
H39   H     H_    0.185999 0.995608 0.530292 0.411496
H40   H     H_    0.773210 0.631658 0.604555 0.329006
H41   H     H_    0.631724 0.226740 0.604581 0.328995
H42   H     H_    0.226755 0.368293 0.604580 0.329008
H43   H     H_    0.368259 0.773268 0.604586 0.328996
H44   H     H_    0.112218 0.193055 0.957410 0.040962
H45   H     H_    0.193075 0.887772 0.957372 0.040994
H46   H     H_    0.887776 0.806932 0.957391 0.040981
H47   H     H_    0.806921 0.112233 0.957364 0.041007
H48   H     H_    0.605877 0.292447 0.447609 0.069845
O1    O     O_3   0.500000 0.000000 0.000010 -0.564872
O2    O     O_R   0.500000 0.939270 0.393740 -0.574920
O3    O     O_3   0.172827 0.669031 0.362814 -0.487692
O4    O     O_2   0.412984 0.754366 0.101956 -0.174705
O5    O     O_2   0.391333 0.630707 0.072692 -0.204917
O6    O     O_3   0.465021 0.717389 0.017730 -0.523986
O7    O     O_2   0.245686 0.413031 0.101925 -0.174679
O8    O     O_2   0.369329 0.391382 0.072628 -0.204973
O9    O     O_3   0.282602 0.465039 0.017679 -0.524041
O10   O     O_2   0.587051 0.245602 0.101981 -0.174588
O11   O     O_2   0.608694 0.369270 0.072731 -0.205049
O12   O     O_3   0.534981 0.282604 0.017769 -0.523934
O13   O     O_R   0.060730 0.500000 0.393740 -0.574929
O14   O     O_2   0.754365 0.587015 0.101955 -0.174731
O15   O     O_2   0.630705 0.608663 0.072689 -0.204922
O16   O     O_3   0.717390 0.534977 0.017728 -0.524006
O17   O     O_2   0.414254 0.250304 0.101281 -0.135573
O18   O     O_2   0.293423 0.272653 0.134654 -0.206547
O19   O     O_3   0.325727 0.141657 0.109085 -0.548758
O20   O     O_2   0.250247 0.585799 0.101321 -0.135744
O21   O     O_2   0.272572 0.706650 0.134669 -0.206567
O22   O     O_3   0.141591 0.674325 0.109073 -0.548779
O23   O     O_2   0.585795 0.749750 0.101318 -0.135739
O24   O     O_R   0.500000 0.060730 0.393740 -0.574877
O25   O     O_2   0.706645 0.727422 0.134668 -0.206551
O26   O     O_3   0.674322 0.858405 0.109074 -0.548775
O27   O     O_2   0.749782 0.414179 0.101337 -0.135767
O28   O     O_2   0.727470 0.293322 0.134679 -0.206574
O29   O     O_3   0.858442 0.325655 0.109067 -0.548809
O30   O     O_2   0.912994 0.254357 0.601949 -0.174714
O31   O     O_2   0.891342 0.130700 0.572679 -0.204943
O32   O     O_3   0.965023 0.217389 0.517718 -0.523998
O33   O     O_2   0.745590 0.912944 0.601982 -0.174713
O34   O     O_2   0.869263 0.891292 0.572745 -0.204917
O35   O     O_R   0.500000 0.939230 0.106280 -0.592071
O36   O     O_3   0.782617 0.965006 0.517772 -0.523938
O37   O     O_2   0.086985 0.745661 0.601934 -0.174811
O38   O     O_2   0.108644 0.869314 0.572657 -0.204836
O39   O     O_3   0.034976 0.782618 0.517695 -0.524029
O40   O     O_2   0.254370 0.087019 0.601958 -0.174695
O41   O     O_2   0.130709 0.108673 0.572697 -0.204935
O42   O     O_3   0.217387 0.034982 0.517732 -0.523964
O43   O     O_2   0.914157 0.750197 0.601354 -0.135895
O44   O     O_2   0.793291 0.772506 0.634682 -0.206573
O45   O     O_3   0.825630 0.641537 0.609064 -0.548801
O46   O     O_R   0.060770 0.500000 0.106280 -0.592084
O47   O     O_2   0.750256 0.085789 0.601314 -0.135724
O48   O     O_2   0.772588 0.206636 0.634666 -0.206555
O49   O     O_3   0.641604 0.174317 0.609076 -0.548775
O50   O     O_2   0.085804 0.249761 0.601324 -0.135764
O51   O     O_2   0.206656 0.227435 0.634671 -0.206581
O52   O     O_3   0.174331 0.358415 0.609072 -0.548794
O53   O     O_2   0.249730 0.914221 0.601306 -0.135734
O54   O     O_2   0.227390 0.793377 0.634661 -0.206557
O55   O     O_3   0.358379 0.825691 0.609078 -0.548759
O56   O     O_R   0.500000 0.060770 0.106280 -0.592070
O57   O     O_R   0.939230 0.500000 0.106280 -0.592065
O58   O     O_R   0.000000 0.439230 0.606280 -0.592071
O59   O     O_R   0.560770 0.000000 0.606280 -0.592061
O60   O     O_R   0.000000 0.560770 0.606280 -0.592073
O61   O     O_3   1.000000 0.500000 0.000010 -0.564856
O62   O     O_R   0.439230 0.000000 0.606280 -0.592077
O63   O     O_R   0.646160 0.914520 0.972140 -0.621404
O64   O     O_R   0.085480 0.646160 0.972140 -0.621393
O65   O     O_R   0.353840 0.085480 0.972140 -0.621414
O66   O     O_R   0.914520 0.353840 0.972140 -0.621390
O67   O     O_R   0.646160 0.085480 0.972140 -0.618053
O68   O     O_R   0.085480 0.353840 0.972140 -0.618018
O69   O     O_R   0.353840 0.914520 0.972140 -0.618040
O70   O     O_R   0.914520 0.646160 0.972140 -0.618029
O71   O     O_R   0.146160 0.414520 0.472140 -0.621390
O72   O     O_3   1.000000 0.500000 0.500010 -0.564849
O73   O     O_R   0.585480 0.146160 0.472140 -0.621414
O74   O     O_R   0.853840 0.585480 0.472140 -0.621385
O75   O     O_R   0.414520 0.853840 0.472140 -0.621406
O76   O     O_R   0.146160 0.585480 0.472140 -0.618019
O77   O     O_R   0.585480 0.853840 0.472140 -0.618054
O78   O     O_R   0.853840 0.414520 0.472140 -0.618024
O79   O     O_R   0.414520 0.146160 0.472140 -0.618027
O80   O     O_R   0.414550 0.146120 0.027860 -0.554693
O81   O     O_R   0.853880 0.414550 0.027860 -0.554818
O82   O     O_R   0.585450 0.853880 0.027860 -0.554790
O83   O     O_3   0.500000 0.000000 0.500010 -0.564870
O84   O     O_R   0.146120 0.585450 0.027860 -0.554813
O85   O     O_R   0.414550 0.853880 0.027860 -0.571623
O86   O     O_R   0.853880 0.585450 0.027860 -0.571633
O87   O     O_R   0.585450 0.146120 0.027860 -0.571554
O88   O     O_R   0.146120 0.414550 0.027860 -0.571649
O89   O     O_R   0.914550 0.646120 0.527860 -0.554888
O90   O     O_R   0.353880 0.914550 0.527860 -0.554780
O91   O     O_R   0.085450 0.353880 0.527860 -0.554813
O92   O     O_R   0.646120 0.085450 0.527860 -0.554772
O93   O     O_R   0.914550 0.353880 0.527860 -0.571634
O94   O     O_R   0.439270 0.000000 0.893740 -0.574905
O95   O     O_R   0.353880 0.085450 0.527860 -0.571619
O96   O     O_R   0.085450 0.646120 0.527860 -0.571685
O97   O     O_R   0.646120 0.914550 0.527860 -0.571596
O98   O     O_2   0.108835 0.666914 0.876341 -0.251550
O99   O     O_2   0.095345 0.786710 0.839807 -0.170365
O100  O     O_3   0.223623 0.726727 0.841104 -0.456240
O101  O     O_2   0.333045 0.108811 0.876344 -0.251519
O102  O     O_2   0.213234 0.095290 0.839837 -0.170372
O103  O     O_3   0.273198 0.223577 0.841102 -0.456224
O104  O     O_2   0.891147 0.333100 0.876339 -0.251573
O105  O     O_R   0.000000 0.439270 0.893740 -0.574937
O106  O     O_2   0.904634 0.213309 0.839797 -0.170352
O107  O     O_3   0.776355 0.273290 0.841106 -0.456235
O108  O     O_2   0.666935 0.891178 0.876343 -0.251530
O109  O     O_2   0.786739 0.904683 0.839823 -0.170373
O110  O     O_3   0.726764 0.776401 0.841103 -0.456223
O111  O     O_2   0.112541 0.202762 0.838057 -0.154819
O112  O     O_2   0.042989 0.281391 0.891307 -0.227587
O113  O     O_3   0.169013 0.327163 0.862815 -0.487697
O114  O     O_2   0.202830 0.887387 0.838021 -0.154827
O115  O     O_2   0.281452 0.956952 0.891268 -0.227510
O116  O     O_R   0.560730 0.000000 0.893740 -0.574912
O117  O     O_3   0.327214 0.830907 0.862812 -0.487730
O118  O     O_2   0.887422 0.797202 0.838039 -0.154820
O119  O     O_2   0.956981 0.718578 0.891287 -0.227556
O120  O     O_3   0.830947 0.672809 0.862814 -0.487712
O121  O     O_2   0.797150 0.112630 0.838013 -0.154805
O122  O     O_2   0.718542 0.043055 0.891262 -0.227533
O123  O     O_3   0.672768 0.169101 0.862815 -0.487741
O124  O     O_2   0.608822 0.166941 0.376343 -0.251537
O125  O     O_2   0.595309 0.286747 0.339827 -0.170373
O126  O     O_3   0.723594 0.226779 0.341103 -0.456219
O127  O     O_R   0.000000 0.560730 0.893740 -0.574913
O128  O     O_2   0.833102 0.608850 0.376339 -0.251570
O129  O     O_2   0.713313 0.595368 0.339795 -0.170359
O130  O     O_3   0.773299 0.723645 0.341105 -0.456224
O131  O     O_2   0.391188 0.833051 0.376344 -0.251516
O132  O     O_2   0.404701 0.713243 0.339832 -0.170379
O133  O     O_3   0.276417 0.773213 0.341102 -0.456214
O134  O     O_2   0.166909 0.391158 0.376341 -0.251596
O135  O     O_2   0.286702 0.404648 0.339803 -0.170322
O136  O     O_3   0.226723 0.276369 0.341106 -0.456266
O137  O     O_2   0.612639 0.702857 0.338009 -0.154801
O138  O     O_R   0.939270 0.500000 0.393740 -0.574923
O139  O     O_2   0.543064 0.781468 0.391256 -0.227524
O140  O     O_3   0.669114 0.827235 0.362813 -0.487732
O141  O     O_2   0.702785 0.387436 0.338046 -0.154815
O142  O     O_2   0.781407 0.456995 0.391296 -0.227580
O143  O     O_3   0.827182 0.330966 0.362816 -0.487707
O144  O     O_2   0.387383 0.297166 0.338020 -0.154854
O145  O     O_2   0.456952 0.218547 0.391266 -0.227483
O146  O     O_3   0.330906 0.172783 0.362814 -0.487749
O147  O     O_2   0.297223 0.612556 0.338049 -0.154817
O148  O     O_2   0.218595 0.543003 0.391298 -0.227576
S1    S     S_3+6 0.144295 0.739584 0.869959 0.150356
S2    S     S_3+6 0.760434 0.644313 0.369954 0.150360
S3    S     S_3+6 0.355737 0.760375 0.369969 0.150362
S4    S     S_3+6 0.239580 0.355699 0.369958 0.150350
S5    S     S_3+6 0.618250 0.755547 0.379362 0.147299
S6    S     S_3+6 0.755493 0.381811 0.379388 0.147300
S7    S     S_3+6 0.381768 0.244469 0.379369 0.147297
S8    S     S_3+6 0.244513 0.618184 0.379390 0.147303
S9    S     S_3+6 0.396761 0.709068 0.057941 0.155636
S10   S     S_3+6 0.290957 0.396796 0.057899 0.155628
S11   S     S_3+6 0.603259 0.290913 0.057969 0.155655
S12   S     S_3+6 0.260366 0.144258 0.869972 0.150363
S13   S     S_3+6 0.709068 0.603237 0.057939 0.155625
S14   S     S_3+6 0.335331 0.230726 0.097224 0.125788
S15   S     S_3+6 0.230668 0.664719 0.097238 0.125710
S16   S     S_3+6 0.664716 0.769328 0.097237 0.125728
S17   S     S_3+6 0.769362 0.335260 0.097246 0.125702
S18   S     S_3+6 0.896767 0.209063 0.557932 0.155640
S19   S     S_3+6 0.790910 0.896731 0.557975 0.155653
S20   S     S_3+6 0.103222 0.790948 0.557916 0.155628
S21   S     S_3+6 0.209070 0.103243 0.557944 0.155653
S22   S     S_3+6 0.835239 0.730620 0.597251 0.125658
S23   S     S_3+6 0.855687 0.260430 0.869955 0.150360
S24   S     S_3+6 0.730679 0.164710 0.597235 0.125738
S25   S     S_3+6 0.164724 0.269338 0.597240 0.125703
S26   S     S_3+6 0.269306 0.835299 0.597232 0.125730
S27   S     S_3+6 0.739610 0.855724 0.869966 0.150359
S28   S     S_3+6 0.118171 0.255476 0.879396 0.147302
S29   S     S_3+6 0.255528 0.881769 0.879369 0.147297
S30   S     S_3+6 0.881798 0.744496 0.879382 0.147299
S31   S     S_3+6 0.744459 0.118241 0.879365 0.147296
S32   S     S_3+6 0.644271 0.239618 0.369968 0.150359
Zn1   Zn    Zn3+2 0.500000 0.913210 0.039810 1.114527
Zn2   Zn    Zn3+2 1.000000 0.586760 0.960200 1.078577
Zn3   Zn    Zn3+2 0.413240 0.000000 0.960200 1.078551
Zn4   Zn    Zn3+2 1.000000 0.413240 0.960200 1.078579
Zn5   Zn    Zn3+2 0.086760 0.500000 0.460200 1.078575
Zn6   Zn    Zn3+2 0.500000 0.086760 0.460200 1.078585
Zn7   Zn    Zn3+2 0.913240 0.500000 0.460200 1.078585
Zn8   Zn    Zn3+2 0.500000 0.913240 0.460200 1.078552
Zn9   Zn    Zn3+2 0.086790 0.500000 0.039810 1.114519
Zn10  Zn    Zn3+2 0.500000 0.086790 0.039810 1.114607
Zn11  Zn    Zn3+2 0.913210 0.500000 0.039810 1.114531
Zn12  Zn    Zn3+2 0.000000 0.413210 0.539810 1.114538
Zn13  Zn    Zn3+2 0.586790 0.000000 0.539810 1.114555
Zn14  Zn    Zn3+2 1.000000 0.586790 0.539810 1.114475
Zn15  Zn    Zn3+2 0.413210 0.000000 0.539810 1.114543
Zn16  Zn    Zn3+2 0.586760 0.000000 0.960200 1.078555

loop_
_geom_bond_atom_site_label_1
_geom_bond_atom_site_label_2
_ccdc_geom_bond_type
O81   Zn11  S    
C18   C21   S    
O102  S12   D    
C63   C80   A    
O132  S3    D    
O12   S11   S    
C32   O82   A    
H9    O100  S    
O83   Zn15  S    
O1    Zn10  S    
C25   C53   S    
O114  S29   D    
O137  S5    D    
C21   S7    S    
O124  S32   D    
C22   S8    S    
H28   O9    S    
C32   O63   A    
C2    H12   S    
C3    C100  A    
C9    S27   S    
C78   C96   A    
C42   C86   S    
O74   Zn7   S    
H35   O29   S    
C27   C50   S    
O62   Zn15  S    
H20   O133  S    
O18   S14   D    
O72   Zn7   S    
O25   S16   D    
C41   C87   S    
H32   O22   S    
C67   C85   A    
O20   S15   D    
C1    C6    S    
C43   C85   S    
C12   H46   S    
C13   H47   S    
O96   Zn14  S    
O115  S29   D    
O49   S24   S    
C31   O62   A    
C81   C99   A    
C15   S2    S    
O29   S17   S    
O93   Zn12  S    
C15   C19   S    
C64   C67   A    
O68   Zn4   S    
C12   S30   S    
C9    H34   S    
O104  S23   D    
C97   S17   S    
O83   Zn6   S    
C27   O35   A    
C99   S19   S    
C33   O84   A    
H13   O110  S    
C101  S21   S    
C5    C39   S    
C46   O77   A    
C56   C62   A    
O69   Zn3   S    
C47   O93   A    
C90   C93   A    
O83   Zn13  S    
C79   C97   A    
O72   Zn12  S    
O48   S24   D    
O38   S20   D    
O142  S6    D    
H16   O120  S    
C23   O94   A    
H11   O107  S    
H30   O16   S    
C65   C82   A    
O65   Zn3   S    
C44   O75   A    
C18   H4    S    
O130  S2    S    
O71   Zn5   S    
O143  S6    S    
O105  Zn4   S    
C37   O68   A    
O140  S5    S    
C90   S10   S    
C10   H44   S    
C7    C83   T    
C21   C66   S    
C34   O65   A    
C44   O90   A    
O125  S32   D    
C60   C78   A    
O66   Zn4   S    
C102  S22   S    
C15   H2    S    
C73   C90   A    
O39   S20   S    
C92   C96   A    
C16   S3    S    
C40   O86   A    
C8    H23   S    
O46   Zn9   S    
C7    C17   S    
C71   C89   A    
O146  S7    S    
C13   C56   S    
C18   C69   S    
O55   S26   S    
C47   C80   S    
H18   O126  S    
C45   O96   A    
O45   S22   S    
O17   S14   D    
O32   S18   S    
C54   C59   A    
C19   H5    S    
O77   Zn8   S    
O110  S27   S    
H15   O117  S    
C29   C61   S    
C103  S24   S    
C54   C71   A    
C16   C70   S    
O106  S23   D    
H39   O42   S    
C22   C65   S    
H14   O113  S    
O87   Zn10  S    
C26   O24   A    
C15   C67   S    
C99   C102  A    
C5    C61   T    
C100  S20   S    
O63   Zn16  S    
C10   C55   S    
C11   C54   S    
O60   Zn14  S    
H22   O140  S    
C12   C57   S    
O117  S29   S    
O33   S19   D    
C22   H8    S    
O135  S4    D    
O59   Zn13  S    
C20   H6    S    
O138  Zn7   S    
O89   Zn14  S    
C41   O91   A    
O67   Zn16  S    
C63   C68   A    
C20   S6    S    
O30   S18   D    
C3    C88   A    
O97   Zn13  S    
O107  S23   S    
O37   S20   D    
C30   C72   S    
C29   O57   A    
O16   S13   S    
C25   O138  A    
C98   S18   S    
C57   C75   A    
C20   C63   S    
O123  S31   S    
O95   Zn15  S    
O141  S6    D    
C33   C77   S    
O57   Zn11  S    
C35   C79   S    
O99   S1    D    
O61   Zn2   S    
O41   S21   D    
C9    C12   S    
C64   C81   A    
C55   C73   A    
C29   O46   A    
C14   H48   S    
O9    S10   S    
O1    Zn16  S    
O2    Zn8   S    
O129  S2    D    
O145  S7    D    
O108  S27   D    
C85   C102  A    
C34   C76   S    
O4    S9    D    
C94   H1    S    
C8    C13   S    
O61   Zn9   S    
C19   S5    S    
O126  S32   S    
O26   S16   S    
C17   C51   T    
C47   O78   A    
C6    C72   T    
H10   O103  S    
H36   O32   S    
O133  S3    S    
O58   Zn12  S    
O118  S30   D    
O134  S4    D    
O52   S25   S    
O7    S10   D    
C98   C103  A    
O76   Zn5   S    
O42   S21   S    
C27   O56   A    
C16   H3    S    
C92   S13   S    
C48   O79   A    
C11   H45   S    
H40   O45   S    
C8    C62   S    
O113  S28   S    
C35   O81   A    
C59   C94   S    
H31   O19   S    
O22   S15   S    
C104  S25   S    
C96   S16   S    
C69   C87   A    
C43   O74   A    
O101  S12   D    
O36   S19   S    
C21   H7    S    
O91   Zn12  S    
C56   C74   A    
C58   C76   A    
C14   C20   S    
O111  S28   D    
C36   O67   A    
C37   O88   A    
C25   O13   A    
O92   Zn13  S    
C24   O105  A    
H33   O26   S    
O61   Zn4   S    
C4    C50   T    
C74   C91   A    
C89   C95   A    
C46   O97   A    
C76   C93   A    
C19   C64   S    
O10   S11   D    
H37   O36   S    
C91   C97   A    
O85   Zn1   S    
C36   C74   S    
C11   C94   S    
O8    S10   D    
C101  C104  A    
O61   Zn11  S    
O6    S9    S    
C94   S1    S    
O11   S11   D    
O98   S1    D    
H29   O12   S    
C38   O69   A    
C16   C22   S    
C80   C98   A    
O116  Zn16  S    
C34   O80   A    
C57   C60   A    
H19   O130  S    
C2    C58   S    
C24   O127  A    
O144  S7    D    
O19   S14   S    
C40   C75   S    
C9    C60   S    
O128  S2    D    
O94   Zn3   S    
C95   S15   S    
C39   C53   T    
O79   Zn6   S    
O75   Zn8   S    
C87   C104  A    
C3    S26   S    
O3    S8    S    
C55   C58   A    
C40   O70   A    
C14   C68   S    
O44   S22   D    
O100  S1    S    
C65   C70   A    
C14   S32   S    
H24   O143  S    
O122  S31   D    
H27   O6    S    
C68   C86   A    
C23   O116  A    
C45   C82   S    
O50   S25   D    
O90   Zn15  S    
C70   C88   A    
O40   S21   D    
C59   C77   A    
O82   Zn1   S    
C43   O89   A    
O5    S9    D    
O120  S30   S    
O24   Zn6   S    
C48   O95   A    
C30   O60   A    
O147  S8    D    
C66   C69   A    
H25   O146  S    
C31   C83   S    
C18   S4    S    
O139  S5    D    
H42   O52   S    
H26   O3    S    
O43   S22   D    
O27   S17   D    
O35   Zn1   S    
H21   O136  S    
C2    S12   S    
C84   C101  A    
O136  S4    S    
O1    Zn1   S    
C86   C103  A    
C4    C28   S    
C33   O64   A    
O28   S17   D    
O51   S25   D    
O73   Zn6   S    
O15   S13   D    
O31   S18   D    
C62   C79   A    
C8    S23   S    
O56   Zn10  S    
O54   S26   D    
O23   S16   D    
C66   C84   A    
C77   C95   A    
C48   C84   S    
C45   O76   A    
C10   S28   S    
H17   O123  S    
C26   C52   S    
C46   C81   S    
O112  S28   D    
C23   C51   S    
O70   Zn2   S    
C93   S14   S    
O88   Zn9   S    
H43   O55   S    
O13   Zn5   S    
C41   O71   A    
C75   C92   A    
O78   Zn7   S    
C26   O2    A    
C2    C10   S    
C35   O66   A    
C42   O73   A    
O131  S3    D    
C24   C49   S    
C37   C73   S    
C38   C71   S    
O72   Zn5   S    
C82   C100  A    
C13   S31   S    
O64   Zn2   S    
C89   S9    S    
C30   O58   A    
C91   S11   S    
O14   S13   D    
O53   S26   D    
O84   Zn9   S    
O86   Zn11  S    
O80   Zn10  S    
O109  S27   D    
C44   C88   S    
C38   O85   A    
H41   O49   S    
O103  S12   S    
C28   C52   T    
O148  S8    D    
O47   S24   D    
C36   O87   A    
O72   Zn14  S    
H38   O39   S    
C42   O92   A    
O127  Zn2   S    
C32   C78   S    
O119  S30   D    
C31   O59   A    
C11   S29   S    
O34   S19   D    
O121  S31   D    
O21   S15   D    
O83   Zn8   S    
O1    Zn3   S    
C1    C49   T    
