data_mof_unit_59871.cif
_audit_creation_date              2012-12-10T17:47:39-0500
_audit_creation_method            fapswitch 2.2
_symmetry_space_group_name_H-M    P1
_symmetry_Int_Tables_number       1
_space_group_crystal_system       triclinic
_cell_length_a                    10.631793
_cell_length_b                    10.654368
_cell_length_c                    9.884097
_cell_angle_alpha                 89.730315
_cell_angle_beta                  90.03713
_cell_angle_gamma                 91.435297
_cell_volume                      1119.25759612

loop_
_atom_site_label
_atom_site_type_symbol
_atom_type_description
_atom_site_fract_x
_atom_site_fract_y
_atom_site_fract_z
_atom_type_partial_charge
C1    C     C_R   0.515659 0.261280 0.501159 0.902684
C2    C     C_3   0.878761 0.503361 0.500989 0.145002
C3    C     C_3   0.928950 0.617273 0.417145 -0.425418
C4    C     C_3   0.925463 0.380410 0.437964 -0.396568
C5    C     C_R   0.567961 0.110376 0.757334 0.294517
C6    C     C_R   0.522255 0.054098 0.876143 -0.156822
C7    C     C_R   0.444412 0.947438 0.869288 -0.221105
C8    C     C_R   0.424184 0.888838 0.745094 -0.165786
C9    C     C_R   0.477974 0.940185 0.625391 0.051331
C10   C     C_R   0.529984 0.061606 0.629451 0.034496
C11   C     C_R   0.536382 0.128453 0.505154 -0.105378
C12   C     C_R   0.257838 0.501649 0.500264 0.807829
C13   C     C_R   0.532114 0.065220 0.381754 -0.224720
C14   C     C_R   0.511640 0.937994 0.380473 -0.216216
C15   C     C_R   0.485113 0.874537 0.501572 -0.116332
C16   C     C_R   0.336553 0.334212 0.140957 -0.179430
C17   C     C_R   0.256765 0.252006 0.070900 -0.207545
C18   C     C_R   0.256808 0.252038 0.930907 -0.189687
C19   C     C_R   0.336687 0.334214 0.860255 -0.160748
C20   C     C_R   0.419556 0.418185 0.927918 0.186565
C21   C     C_R   0.419558 0.418203 0.072693 0.168447
C22   C     C_R   0.576799 0.578359 0.071237 -0.127531
C23   C     C_R   0.490807 0.740105 0.500153 0.867713
C24   C     C_R   0.576756 0.578330 0.927920 -0.091366
C25   C     C_R   0.742302 0.501310 0.500278 0.861608
C26   C     C_3   0.071590 0.508429 0.649089 -0.399930
C27   C     C_3   0.929179 0.515011 0.648283 -0.381778
C28   C     C_3   0.074631 0.623205 0.421112 -0.047064
C29   C     C_3   0.069542 0.384160 0.432880 -0.459131
C30   C     C_3   0.121451 0.505777 0.501245 0.153987
H1    H     H_    0.112114 0.589913 0.705741 0.172331
H2    H     H_    0.887575 0.368071 0.333693 0.185078
H3    H     H_    0.109576 0.616305 0.315142 0.156980
H4    H     H_    0.897486 0.608776 0.310022 0.165804
H5    H     H_    0.541754 0.114188 0.285800 0.175616
H6    H     H_    0.548399 0.092098 0.973907 0.164341
H7    H     H_    0.405592 0.906147 0.960937 0.150548
H8    H     H_    0.365407 0.804489 0.743593 0.160425
H9    H     H_    0.515507 0.889871 0.284272 0.168870
H10   H     H_    0.639469 0.642315 0.124959 0.141122
H11   H     H_    0.099355 0.421908 0.704139 0.187748
H12   H     H_    0.329856 0.329227 0.248148 0.208104
H13   H     H_    0.194186 0.188243 0.125768 0.149322
H14   H     H_    0.194430 0.188167 0.876492 0.155750
H15   H     H_    0.330507 0.328966 0.753071 0.202598
H16   H     H_    0.639359 0.642287 0.873551 0.146552
H17   H     H_    0.890205 0.437958 0.713298 0.229568
H18   H     H_    0.900467 0.605645 0.693114 0.167680
H19   H     H_    0.887770 0.704673 0.457264 0.162151
H20   H     H_    0.100570 0.380495 0.325453 0.179840
H21   H     H_    0.106149 0.299594 0.484953 0.169000
H22   H     H_    0.892083 0.298251 0.499363 0.194487
N1    N     N_R   0.498810 0.498800 0.142780 -0.120319
N2    N     N_R   0.498760 0.498720 0.857170 -0.109954
O1    O     O_R   0.500000 0.316780 0.614690 -0.607020
O2    O     O_R   0.499990 0.316750 0.385360 -0.644534
O3    O     O_R   0.314800 0.499990 0.614670 -0.654518
O4    O     O_R   0.314790 0.499970 0.385330 -0.645755
O5    O     O_R   0.500010 0.683250 0.614640 -0.625371
O6    O     O_R   0.500000 0.683220 0.385310 -0.620798
O7    O     O_R   0.685210 0.500030 0.614670 -0.593179
O8    O     O_R   0.685200 0.500010 0.385330 -0.626459
Zn1   Zn    Zn3+2 0.500010 0.500020 0.653130 0.947137
Zn2   Zn    Zn3+2 0.499990 0.499980 0.346870 0.924876
Br1   Br    Br    0.705298 0.229632 0.777351 -0.590669
C31   C     C_3   0.124056 0.750619 0.479403 -0.418126
C32   C     C_3   0.110227 0.858791 0.377334 -0.346883
C33   C     C_3   0.144760 0.985463 0.440804 -0.881144
H23   H     H_    0.080269 0.005310 0.526016 0.262314
H24   H     H_    0.242932 0.986177 0.478718 0.271645
H25   H     H_    0.136389 0.061035 0.363799 0.241263
H26   H     H_    0.172923 0.843367 0.289279 0.218069
H27   H     H_    0.011834 0.862086 0.339861 0.224898
H28   H     H_    0.072630 0.772612 0.573965 0.214598
H29   H     H_    0.225102 0.744910 0.505909 0.184389

loop_
_geom_bond_atom_site_label_1
_geom_bond_atom_site_label_2
_ccdc_geom_bond_type
C27   H18   S    
C8    C9    A    
C16   C21   A    
C28   C31   S    
C19   C20   A    
C1    C11   S    
C3    H19   S    
C7    C8    A    
C23   O5    A    
C26   C27   S    
C4    H22   S    
C3    C28   S    
C1    O2    A    
C13   H5    S    
C5    C6    A    
N1    Zn2   S    
N2    Zn1   S    
C24   N2    A    
C31   H28   S    
C18   C19   A    
O7    Zn1   S    
O8    Zn2   S    
C14   H9    S    
C16   C17   A    
O1    Zn1   S    
O2    Zn2   S    
C2    C27   S    
C32   H27   S    
C9    C10   A    
C4    C29   S    
C12   O4    A    
C15   C23   S    
C31   C32   S    
C26   H1    S    
C13   C14   A    
C8    H8    S    
O3    Zn1   S    
C22   N1    A    
C29   H20   S    
O4    Zn2   S    
C23   O6    A    
C32   C33   S    
C32   H26   S    
C20   N2    A    
C33   H23   S    
C3    H4    S    
C2    C4    S    
C17   H13   S    
C29   C30   S    
C18   H14   S    
C22   H10   S    
C17   C18   A    
C7    H7    S    
C25   O7    A    
C4    H2    S    
C12   O3    A    
C5    Br1   S    
C28   H3    S    
C26   C30   S    
C22   C24   A    
C16   H12   S    
C29   H21   S    
C27   H17   S    
C12   C30   S    
C19   H15   S    
C6    C7    A    
O5    Zn1   S    
O6    Zn2   S    
C24   H16   S    
C28   C30   S    
C2    C3    S    
C1    O1    A    
C5    C10   A    
C21   N1    A    
C11   C13   A    
C33   H25   S    
C31   H29   S    
C6    H6    S    
C2    C25   S    
C25   O8    A    
C9    C15   A    
C10   C11   A    
C20   C21   A    
C33   H24   S    
C14   C15   A    
C26   H11   S    
