data_mof_unit_19232.cif
_audit_creation_date              2012-12-11T15:06:44-0500
_audit_creation_method            fapswitch 2.2
_symmetry_space_group_name_H-M    P1
_symmetry_Int_Tables_number       1
_space_group_crystal_system       triclinic
_cell_length_a                    7.253486
_cell_length_b                    15.291749
_cell_length_c                    22.311799
_cell_angle_alpha                 90.000363
_cell_angle_beta                  87.93658
_cell_angle_gamma                 90.000265
_cell_volume                      2473.18630199

loop_
_atom_site_label
_atom_site_type_symbol
_atom_type_description
_atom_site_fract_x
_atom_site_fract_y
_atom_site_fract_z
_atom_type_partial_charge
O1    O     O_R   0.390810 0.844810 0.447340 -0.536567
O2    O     O_R   0.109190 0.155190 0.947340 -0.535535
O3    O     O_R   0.890810 0.655190 0.552660 -0.535536
O4    O     O_R   0.609190 0.344810 0.052660 -0.536568
O5    O     O_R   0.720550 0.655820 0.440420 -0.539292
O6    O     O_R   0.779450 0.344180 0.940420 -0.538762
O7    O     O_R   0.220550 0.844180 0.559580 -0.538763
O8    O     O_R   0.279450 0.155820 0.059580 -0.539292
C1    C     C_R   0.555014 0.627924 0.425585 0.676911
C2    C     C_R   0.950765 0.372302 0.926179 0.676837
C3    C     C_R   0.049235 0.872302 0.573821 0.676839
C4    C     C_R   0.444986 0.127925 0.074416 0.676905
O9    O     O_R   0.720530 0.844130 0.440420 -0.538440
O10   O     O_R   0.779470 0.155870 0.940420 -0.537133
O11   O     O_R   0.220530 0.655870 0.559580 -0.537133
O12   O     O_R   0.279470 0.344130 0.059580 -0.538441
O13   O     O_R   0.890830 0.844810 0.552660 -0.535424
O14   O     O_R   0.609170 0.155190 0.052660 -0.538337
O15   O     O_R   0.390830 0.655190 0.447340 -0.538337
O16   O     O_R   0.109170 0.344810 0.947340 -0.535423
C5    C     C_R   0.554522 0.871635 0.425489 0.681385
C6    C     C_R   0.949694 0.128471 0.925722 0.681663
C7    C     C_R   0.050305 0.628473 0.574279 0.681660
C8    C     C_R   0.445478 0.371634 0.074512 0.681384
O17   O     O_3   0.557310 0.749980 0.536820 -0.374329
O18   O     O_3   0.942690 0.250020 0.036820 -0.377974
O19   O     O_3   0.057310 0.750020 0.463180 -0.377973
O20   O     O_3   0.442690 0.249980 0.963180 -0.374328
V1    V     V_3+5 0.832160 0.749980 0.493170 1.429592
V2    V     V_3+5 0.667840 0.250020 0.993170 1.421721
V3    V     V_3+5 0.332160 0.750020 0.506830 1.421720
V4    V     V_3+5 0.167840 0.249980 0.006830 1.429595
C9    C     C_R   0.091425 0.592247 0.866836 -0.178534
C10   C     C_R   0.701127 0.418090 0.351618 -0.188860
C11   C     C_R   0.298884 0.918090 0.148383 -0.188864
C12   C     C_R   0.908564 0.092245 0.633165 -0.178555
H1    H     H_    0.061196 0.533126 0.953557 0.098415
H2    H     H_    0.730935 0.476661 0.437652 0.117242
H3    H     H_    0.269076 0.976659 0.062348 0.117252
H4    H     H_    0.938737 0.033114 0.546445 0.098405
H5    H     H_    0.148667 0.716447 0.784804 0.117817
H6    H     H_    0.729261 0.298071 0.266551 0.115615
H7    H     H_    0.270758 0.798070 0.233447 0.115613
H8    H     H_    0.851366 0.216451 0.715196 0.117824
H9    H     H_    0.147303 0.651556 0.885097 0.113070
H10   H     H_    0.786826 0.363073 0.362744 0.127617
H11   H     H_    0.213190 0.863071 0.137256 0.127629
H12   H     H_    0.852668 0.151551 0.614907 0.113071
C13   C     C_R   0.974134 0.445876 0.884087 -0.025586
C14   C     C_R   0.562094 0.555935 0.381477 -0.035791
C15   C     C_R   0.437906 0.055938 0.118524 -0.035791
C16   C     C_R   0.025868 0.945878 0.615911 -0.025575
C17   C     C_R   0.024476 0.471140 0.591869 -0.174576
C18   C     C_R   0.368219 0.523604 0.097524 -0.162578
C19   C     C_R   0.631768 0.023609 0.402480 -0.162582
C20   C     C_R   0.975484 0.971136 0.908129 -0.174609
C21   C     C_R   0.035680 0.396879 0.628057 0.135083
C22   C     C_R   0.361278 0.597719 0.134369 0.136295
C23   C     C_R   0.638707 0.097725 0.365636 0.136294
C24   C     C_R   0.964287 0.896878 0.871936 0.135091
C25   C     C_R   0.029934 0.406265 0.690586 -0.200583
C26   C     C_R   0.409446 0.589783 0.194471 -0.206114
C27   C     C_R   0.590546 0.089788 0.305533 -0.206114
C28   C     C_R   0.970070 0.906268 0.809407 -0.200567
C29   C     C_R   0.029359 0.489666 0.717471 0.057472
C30   C     C_R   0.478261 0.510448 0.217280 0.059269
C31   C     C_R   0.521738 0.010451 0.282723 0.059267
C32   C     C_R   0.970667 0.989670 0.782526 0.057463
C33   C     C_R   0.050533 0.564333 0.679481 0.065477
C34   C     C_R   0.504119 0.438627 0.176718 0.064566
C35   C     C_R   0.495886 0.938629 0.323283 0.064568
C36   C     C_R   0.949490 0.064336 0.820518 0.065479
C37   C     C_R   0.021878 0.500648 0.781030 0.087691
C38   C     C_R   0.530846 0.501463 0.278277 0.085640
C39   C     C_R   0.469155 0.001467 0.221725 0.085640
C40   C     C_R   0.978154 0.000654 0.718968 0.087693
C41   C     C_R   0.073317 0.582619 0.804906 0.144240
C42   C     C_R   0.628673 0.425142 0.294608 0.146518
C43   C     C_R   0.371335 0.925143 0.205392 0.146517
C44   C     C_R   0.926705 0.082623 0.695094 0.144246
C45   C     C_R   0.108565 0.653816 0.766763 -0.216213
C46   C     C_R   0.656462 0.356687 0.253790 -0.214422
C47   C     C_R   0.343552 0.856687 0.246209 -0.214419
C48   C     C_R   0.891468 0.153820 0.733237 -0.216214
C49   C     C_R   0.088067 0.646005 0.705196 -0.183981
C50   C     C_R   0.589804 0.362007 0.196401 -0.190115
C51   C     C_R   0.410208 0.862007 0.303598 -0.190112
C52   C     C_R   0.911968 0.146009 0.794804 -0.183983
C53   C     C_R   0.966995 0.433126 0.821769 -0.225109
C54   C     C_R   0.493500 0.565655 0.323546 -0.224179
C55   C     C_R   0.506496 0.065660 0.176457 -0.224175
C56   C     C_R   0.033040 0.933133 0.678229 -0.225121
C57   C     C_R   0.042473 0.524647 0.905940 -0.158576
C58   C     C_R   0.669231 0.482862 0.394339 -0.165919
C59   C     C_R   0.330777 0.982862 0.105662 -0.165921
C60   C     C_R   0.957497 0.024642 0.594060 -0.158576
C61   C     C_R   0.038577 0.554520 0.616490 -0.101464
C62   C     C_R   0.443349 0.445352 0.117205 -0.110028
C63   C     C_R   0.556651 0.945355 0.382797 -0.110025
C64   C     C_R   0.961420 0.054519 0.883510 -0.101456
H13   H     H_    0.919615 0.370445 0.806158 0.096631
H14   H     H_    0.415664 0.624123 0.314786 0.101533
H15   H     H_    0.584325 0.124130 0.185218 0.101531
H16   H     H_    0.080441 0.870456 0.693839 0.096634
H17   H     H_    0.015332 0.464438 0.543744 0.100005
H18   H     H_    0.319602 0.526208 0.052271 0.101969
H19   H     H_    0.680378 0.026215 0.447735 0.101966
H20   H     H_    0.984601 0.964427 0.956253 0.100010
H21   H     H_    0.035527 0.347867 0.717595 0.108514
H22   H     H_    0.400910 0.647955 0.221730 0.106711
H23   H     H_    0.599082 0.147960 0.278275 0.106712
H24   H     H_    0.964480 0.847872 0.782396 0.108517
H25   H     H_    0.109653 0.703609 0.677632 0.105676
H26   H     H_    0.611228 0.306364 0.166998 0.118890
H27   H     H_    0.388788 0.806363 0.333001 0.118887
H28   H     H_    0.890382 0.203613 0.822369 0.105674
C65   C     C_3   0.050708 0.307263 0.600380 -0.380887
C66   C     C_3   0.199471 0.301638 0.549799 -0.287222
C67   C     C_3   0.219754 0.208225 0.526650 -0.765187
H29   H     H_    0.303578 0.168791 0.557391 0.231367
H30   H     H_    0.083365 0.176963 0.522850 0.226430
H31   H     H_    0.286093 0.209140 0.481148 0.223679
H32   H     H_    0.161205 0.343470 0.511538 0.185688
H33   H     H_    0.334071 0.324615 0.566146 0.199699
H34   H     H_    0.083946 0.258393 0.635188 0.184372
H35   H     H_    0.915352 0.290610 0.582418 0.169471
C68   C     C_3   0.310436 0.687242 0.110933 -0.370378
C69   C     C_3   0.306410 0.693809 0.042104 -0.304221
C70   C     C_3   0.313669 0.788217 0.020287 -0.784497
H36   H     H_    0.181473 0.821902 0.031713 0.228762
H37   H     H_    0.430162 0.823625 0.040223 0.237764
H38   H     H_    0.338419 0.789135 0.971010 0.211287
H39   H     H_    0.425961 0.659009 0.021156 0.197253
H40   H     H_    0.179716 0.662078 0.026402 0.183986
H41   H     H_    0.173830 0.706399 0.130909 0.165661
H42   H     H_    0.415342 0.734081 0.126807 0.181307
C71   C     C_3   0.689543 0.187248 0.389074 -0.370384
C72   C     C_3   0.693533 0.193819 0.457903 -0.304212
C73   C     C_3   0.686271 0.288228 0.479718 -0.784453
H43   H     H_    0.818467 0.321913 0.468292 0.228736
H44   H     H_    0.569781 0.323634 0.459778 0.237760
H45   H     H_    0.661517 0.289150 0.528995 0.211298
H46   H     H_    0.573968 0.159021 0.478845 0.197249
H47   H     H_    0.820217 0.162089 0.473614 0.184006
H48   H     H_    0.826161 0.206403 0.369104 0.165661
H49   H     H_    0.584650 0.234088 0.373193 0.181312
C74   C     C_3   0.949229 0.807262 0.899608 -0.380947
C75   C     C_3   0.800273 0.801617 0.950126 -0.287160
C76   C     C_3   0.780164 0.708224 0.973331 -0.765201
H50   H     H_    0.696463 0.668705 0.942604 0.231365
H51   H     H_    0.916610 0.677034 0.977170 0.226430
H52   H     H_    0.713775 0.709169 0.018825 0.223684
H53   H     H_    0.838233 0.843538 0.988378 0.185713
H54   H     H_    0.665692 0.824475 0.933695 0.199672
H55   H     H_    0.916168 0.758381 0.864789 0.184345
H56   H     H_    0.084519 0.790638 0.917630 0.169514

loop_
_geom_bond_atom_site_label_1
_geom_bond_atom_site_label_2
_ccdc_geom_bond_type
O17   V3    S    
C47   C51   A    
C22   C26   A    
C19   C23   A    
O19   V1    S    
C9    H9    S    
O3    C7    A    
C74   C75   S    
H6    C46   S    
C44   C48   A    
O15   V3    S    
C69   C70   S    
C36   C64   A    
O1    C5    A    
C8    C62   S    
C28   C32   A    
C71   H48   S    
C68   H41   S    
C72   H46   S    
C76   H51   S    
C18   C22   A    
O13   V1    S    
O4    C8    A    
C73   H45   S    
C29   C33   A    
C28   H24   S    
C23   C71   S    
C30   C38   A    
H7    C47   S    
O1    V3    S    
C29   C37   A    
O2    V4    S    
C11   C43   A    
O3    V1    S    
C12   C60   A    
C66   C67   S    
C54   H14   S    
C3    C16   S    
C15   C55   A    
C1    O15   A    
C20   H20   S    
C2    O16   A    
O2    C6    A    
C16   C60   A    
O14   V2    S    
C24   C74   S    
C74   H55   S    
C65   H35   S    
C51   H27   S    
C39   C55   A    
C70   H38   S    
C53   H13   S    
O11   C7    A    
C25   H21   S    
C22   C68   S    
O12   C8    A    
C75   H54   S    
O10   V2    S    
C36   C52   A    
C14   C54   A    
O5    V1    S    
C67   H30   S    
C27   C31   A    
C6    C64   S    
C26   C30   A    
H1    C57   S    
O8    V4    S    
C48   C52   A    
C71   H49   S    
O7    V3    S    
C75   C76   S    
C12   C44   A    
C76   H52   S    
C13   C53   A    
C18   H18   S    
O18   V4    S    
C14   C58   A    
C17   C61   A    
C46   C50   A    
C35   C63   A    
C20   C24   A    
C19   H19   S    
C32   C36   A    
C52   H28   S    
O7    C3    A    
O5    C1    A    
C69   H40   S    
C69   H39   S    
C42   C46   A    
C26   H22   S    
C41   C45   A    
O8    C4    A    
H5    C45   S    
H2    C58   S    
O9    C5    A    
C66   H33   S    
C68   H42   S    
C67   H29   S    
O11   V3    S    
C74   H56   S    
H3    C59   S    
C40   C56   A    
C10   H10   S    
C7    C61   S    
C10   C58   A    
C35   C51   A    
C16   C56   A    
C32   C40   A    
C75   H53   S    
C20   C64   A    
C19   C63   A    
C68   C69   S    
C34   C50   A    
C4    C15   S    
C33   C49   A    
C21   C65   S    
C70   H36   S    
O16   V4    S    
C67   H31   S    
O9    V1    S    
C3    O13   A    
C17   C21   A    
O6    V2    S    
C1    C14   S    
C40   C44   A    
C55   H15   S    
H8    C48   S    
C9    C57   A    
O6    C2    A    
C73   H43   S    
C21   C25   A    
C11   C59   A    
O12   V4    S    
C71   C72   S    
C23   C27   A    
C50   H26   S    
C24   C28   A    
O10   C6    A    
C49   H25   S    
H4    C60   S    
C37   C53   A    
C72   H47   S    
C76   H50   S    
C10   C42   A    
C43   C47   A    
C73   H44   S    
C9    C41   A    
C30   C34   A    
C65   H34   S    
C5    C63   S    
C38   C54   A    
O20   V2    S    
C12   H12   S    
C31   C35   A    
C66   H32   S    
C25   C29   A    
C27   H23   S    
O4    V2    S    
C72   C73   S    
C56   H16   S    
C17   H17   S    
C31   C39   A    
C38   C42   A    
C4    O14   A    
C37   C41   A    
C18   C62   A    
C13   C57   A    
C11   H11   S    
C65   C66   S    
C2    C13   S    
C39   C43   A    
C45   C49   A    
C34   C62   A    
C15   C59   A    
C70   H37   S    
C33   C61   A    
