data_mof_unit_13326.cif
_audit_creation_date              2012-12-11T14:01:16-0500
_audit_creation_method            fapswitch 2.2
_symmetry_space_group_name_H-M    P1
_symmetry_Int_Tables_number       1
_space_group_crystal_system       triclinic
_cell_length_a                    18.997752
_cell_length_b                    10.952888
_cell_length_c                    18.76469
_cell_angle_alpha                 89.768176
_cell_angle_beta                  90.004217
_cell_angle_gamma                 90.032191
_cell_volume                      3904.52879798

loop_
_atom_site_label
_atom_site_type_symbol
_atom_type_description
_atom_site_fract_x
_atom_site_fract_y
_atom_site_fract_z
_atom_type_partial_charge
C1    C     C_R   0.287874 0.003186 0.861526 0.569036
C2    C     C_R   0.711669 0.002484 0.138610 0.570077
C3    C     C_R   0.787874 0.503186 0.861526 0.569039
C4    C     C_R   0.211669 0.502484 0.138610 0.570079
C5    C     C_R   0.487604 0.055951 0.071585 -0.092798
C6    C     C_R   0.517602 0.052629 0.926154 -0.093523
C7    C     C_R   0.987658 0.555977 0.071571 -0.092790
C8    C     C_R   0.017648 0.552599 0.926138 -0.093540
C9    C     C_R   0.994948 0.665038 0.033828 -0.140600
C10   C     C_R   0.013708 0.663214 0.962263 -0.139435
C11   C     C_R   0.494865 0.165027 0.033852 -0.140632
C12   C     C_R   0.513633 0.163232 0.962288 -0.139475
C13   C     C_2   0.241629 0.560632 0.912584 -0.092255
C14   C     C_2   0.758201 0.561857 0.087302 -0.093946
C15   C     C_2   0.741630 0.060632 0.912584 -0.092257
C16   C     C_2   0.258200 0.061852 0.087304 -0.094013
C17   C     C_2   0.229240 0.535074 0.065722 -0.134822
C18   C     C_2   0.769816 0.536488 0.934060 -0.134852
C19   C     C_2   0.729239 0.035074 0.065722 -0.134829
C20   C     C_2   0.269815 0.036487 0.934061 -0.134865
C21   C     C_2   0.272233 0.465529 0.026115 -0.145830
C22   C     C_2   0.727128 0.466692 0.974220 -0.144317
C23   C     C_2   0.772232 0.965531 0.026116 -0.145830
C24   C     C_2   0.227122 0.966695 0.974220 -0.144272
C25   C     C_2   0.289504 0.500317 0.952237 0.226035
C26   C     C_2   0.710262 0.501152 0.048102 0.226898
C27   C     C_2   0.789506 0.000321 0.952240 0.226026
C28   C     C_2   0.210259 0.001146 0.048104 0.226894
C29   C     C_2   0.512656 0.840158 0.584616 -0.111173
C30   C     C_2   0.514146 0.828825 0.428627 -0.101483
C31   C     C_2   0.012656 0.340158 0.584616 -0.111173
C32   C     C_2   0.014145 0.328825 0.428627 -0.101483
C33   C     C_2   0.547207 0.749635 0.472431 -0.150149
C34   C     C_2   0.532736 0.742365 0.548113 -0.163700
C35   C     C_2   0.047207 0.249635 0.472431 -0.150151
C36   C     C_2   0.032737 0.242365 0.548113 -0.163700
C37   C     C_2   0.246433 0.566114 0.583172 -0.105761
C38   C     C_2   0.753338 0.565831 0.417154 -0.109974
C39   C     C_2   0.746433 0.066115 0.583171 -0.105760
C40   C     C_2   0.253337 0.065831 0.417154 -0.109977
C41   C     C_2   0.238005 0.569109 0.427901 -0.093213
C42   C     C_2   0.761982 0.570326 0.572220 -0.090326
C43   C     C_2   0.738006 0.069110 0.427900 -0.093215
C44   C     C_2   0.261982 0.070326 0.572220 -0.090327
C45   C     C_R   0.471611 0.821834 0.853153 0.534926
C46   C     C_R   0.528042 0.822299 0.147081 0.538230
C47   C     C_R   0.971609 0.321832 0.853154 0.534920
C48   C     C_R   0.028041 0.322302 0.147082 0.538247
C49   C     C_2   0.182252 0.559536 0.471932 -0.149076
C50   C     C_2   0.817627 0.559403 0.528243 -0.148850
C51   C     C_2   0.682253 0.059543 0.471931 -0.149080
C52   C     C_2   0.317626 0.059398 0.528243 -0.148850
C53   C     C_2   0.186890 0.584775 0.547430 -0.163574
C54   C     C_2   0.813028 0.584094 0.452625 -0.165057
C55   C     C_2   0.686891 0.084778 0.547429 -0.163574
C56   C     C_2   0.313028 0.084091 0.452625 -0.165058
C57   C     C_R   0.259919 0.633018 0.849925 0.556900
C58   C     C_R   0.740067 0.633282 0.150079 0.556787
C59   C     C_R   0.759919 0.133019 0.849926 0.556895
C60   C     C_R   0.240067 0.133280 0.150079 0.556762
C61   C     C_R   0.273758 0.042987 0.646406 0.559199
C62   C     C_R   0.726125 0.042348 0.353726 0.559273
C63   C     C_R   0.773758 0.542987 0.646406 0.559200
C64   C     C_R   0.226124 0.542347 0.353726 0.559269
C65   C     C_R   0.472446 0.824801 0.649399 0.554023
C66   C     C_R   0.531994 0.823171 0.353891 0.549562
C67   C     C_R   0.972446 0.324801 0.649399 0.554024
C68   C     C_R   0.031994 0.323171 0.353891 0.549568
C69   C     C_R   0.259963 0.634103 0.647443 0.553271
C70   C     C_R   0.739970 0.633963 0.352652 0.549485
C71   C     C_R   0.759963 0.134103 0.647443 0.553274
C72   C     C_R   0.239970 0.133963 0.352652 0.549484
C73   C     C_R   0.499062 0.830462 0.074996 -0.012356
C74   C     C_R   0.498997 0.828681 0.925848 -0.010908
C75   C     C_R   0.999057 0.330477 0.074999 -0.012357
C76   C     C_R   0.998988 0.328671 0.925851 -0.010899
C77   C     C_R   0.497005 0.942690 0.037162 0.021267
C78   C     C_R   0.504692 0.941378 0.962173 0.021479
C79   C     C_R   0.997028 0.442700 0.037156 0.021265
C80   C     C_R   0.004712 0.441367 0.962167 0.021475
C81   C     C_R   0.497265 0.719321 0.964752 -0.119948
C82   C     C_R   0.495725 0.720302 0.037644 -0.121083
C83   C     C_R   0.997224 0.219320 0.964763 -0.119945
C84   C     C_R   0.995687 0.220315 0.037654 -0.121099
Cr1   Cr    Cr6+3 0.230530 0.836340 0.748870 1.013168
Cr2   Cr    Cr6+3 0.769470 0.836340 0.251130 1.015210
Cr3   Cr    Cr6+3 0.730530 0.336340 0.748870 1.013167
Cr4   Cr    Cr6+3 0.269470 0.336340 0.251130 1.015210
Cr5   Cr    Cr6+3 0.387420 0.989430 0.750820 0.995542
Cr6   Cr    Cr6+3 0.612580 0.989430 0.249180 0.995197
Cr7   Cr    Cr6+3 0.887420 0.489430 0.750820 0.995547
Cr8   Cr    Cr6+3 0.112580 0.489430 0.249180 0.995194
Cr9   Cr    Cr6+3 0.385640 0.677860 0.749230 1.021376
Cr10  Cr    Cr6+3 0.614360 0.677860 0.250770 1.018081
Cr11  Cr    Cr6+3 0.885640 0.177860 0.749230 1.021371
Cr12  Cr    Cr6+3 0.114360 0.177860 0.250770 1.018026
H1    H     H_    0.493692 0.631150 0.938991 0.177473
H2    H     H_    0.495706 0.632669 0.064697 0.171050
H3    H     H_    0.993625 0.131149 0.939008 0.177526
H4    H     H_    0.995645 0.132690 0.064715 0.171019
H5    H     H_    0.129816 0.540977 0.451371 0.155536
H6    H     H_    0.869947 0.539800 0.548855 0.150724
H7    H     H_    0.629818 0.040989 0.451369 0.155539
H8    H     H_    0.369945 0.039790 0.548855 0.150724
H9    H     H_    0.142117 0.629930 0.571890 0.151309
H10   H     H_    0.857950 0.628654 0.427804 0.152457
H11   H     H_    0.642118 0.129934 0.571890 0.151310
H12   H     H_    0.357950 0.128650 0.427804 0.152457
H13   H     H_    0.291026 0.587117 0.446684 0.094581
H14   H     H_    0.709071 0.589425 0.553387 0.086032
H15   H     H_    0.791027 0.087111 0.446684 0.094584
H16   H     H_    0.209072 0.089432 0.553388 0.086032
H17   H     H_    0.289440 0.514150 0.560105 0.110052
H18   H     H_    0.710143 0.514453 0.440630 0.103359
H19   H     H_    0.789441 0.014151 0.560104 0.110051
H20   H     H_    0.210142 0.014454 0.440630 0.103359
H21   H     H_    0.473025 0.061124 0.127204 0.127817
H22   H     H_    0.532130 0.054896 0.870431 0.126672
H23   H     H_    0.973079 0.561177 0.127190 0.127833
H24   H     H_    0.032176 0.554842 0.870412 0.126661
H25   H     H_    0.987180 0.751247 0.060363 0.114281
H26   H     H_    0.023967 0.747855 0.934417 0.114184
H27   H     H_    0.487071 0.251225 0.060393 0.114266
H28   H     H_    0.523873 0.247888 0.934451 0.114168
H29   H     H_    0.298528 0.386843 0.049414 0.143262
H30   H     H_    0.701079 0.387518 0.951511 0.143099
H31   H     H_    0.798528 0.886848 0.049416 0.143265
H32   H     H_    0.201069 0.887526 0.951509 0.143130
H33   H     H_    0.205162 0.616990 0.043888 0.088567
H34   H     H_    0.793689 0.618756 0.955354 0.087429
H35   H     H_    0.705159 0.116988 0.043888 0.088551
H36   H     H_    0.293694 0.118748 0.955358 0.087434
H37   H     H_    0.187420 0.567302 0.930684 0.060079
H38   H     H_    0.812242 0.569499 0.068776 0.059066
H39   H     H_    0.687421 0.067298 0.930683 0.060066
H40   H     H_    0.312241 0.069496 0.068776 0.059089
H41   H     H_    0.582357 0.680176 0.451441 0.154188
H42   H     H_    0.532698 0.651964 0.572204 0.152476
H43   H     H_    0.082357 0.180177 0.451441 0.154189
H44   H     H_    0.032699 0.151965 0.572204 0.152476
H45   H     H_    0.479051 0.899646 0.447794 0.083439
H46   H     H_    0.516801 0.931270 0.561796 0.094596
H47   H     H_    0.979050 0.399645 0.447794 0.083440
H48   H     H_    0.016801 0.431270 0.561796 0.094595
O1    O     O_R   0.215090 0.709860 0.828130 -0.546585
O2    O     O_R   0.784910 0.709860 0.171870 -0.546204
O3    O     O_R   0.715090 0.209860 0.828130 -0.546581
O4    O     O_R   0.284910 0.209860 0.171870 -0.546192
O5    O     O_R   0.445660 0.919250 0.676780 -0.508709
O6    O     O_R   0.554340 0.919250 0.323220 -0.504766
O7    O     O_R   0.945660 0.419250 0.676780 -0.508708
O8    O     O_R   0.054340 0.419250 0.323220 -0.504763
O9    O     O_R   0.456260 0.718170 0.670000 -0.513285
O10   O     O_R   0.543740 0.718170 0.330000 -0.514870
O11   O     O_R   0.956260 0.218170 0.670000 -0.513284
O12   O     O_R   0.043740 0.218170 0.330000 -0.514880
O13   O     O_R   0.320940 0.626760 0.674370 -0.505777
O14   O     O_R   0.679060 0.626760 0.325630 -0.515140
O15   O     O_R   0.820940 0.126760 0.674370 -0.505773
O16   O     O_R   0.179060 0.126760 0.325630 -0.515153
O17   O     O_3   0.334530 0.834540 0.749640 -0.259749
O18   O     O_3   0.665470 0.834540 0.250360 -0.262021
O19   O     O_3   0.834530 0.334540 0.749640 -0.259751
O20   O     O_3   0.165470 0.334540 0.250360 -0.262011
O21   O     O_R   0.236990 0.958390 0.823710 -0.490123
O22   O     O_R   0.763010 0.958390 0.176290 -0.489769
O23   O     O_R   0.736990 0.458390 0.823710 -0.490122
O24   O     O_R   0.263010 0.458390 0.176290 -0.489768
O25   O     O_R   0.332380 0.074750 0.830850 -0.527956
O26   O     O_R   0.667620 0.074750 0.169150 -0.528808
O27   O     O_R   0.832380 0.574750 0.830850 -0.527957
O28   O     O_R   0.167620 0.574750 0.169150 -0.528812
O29   O     O_R   0.445800 0.917770 0.825070 -0.520091
O30   O     O_R   0.554200 0.917770 0.174930 -0.520124
O31   O     O_R   0.945800 0.417770 0.825070 -0.520083
O32   O     O_R   0.054200 0.417770 0.174930 -0.520128
O33   O     O_R   0.456410 0.716580 0.829970 -0.508506
O34   O     O_R   0.543590 0.716580 0.170030 -0.504940
O35   O     O_R   0.956410 0.216580 0.829970 -0.508523
O36   O     O_R   0.043590 0.216580 0.170030 -0.504945
O37   O     O_R   0.321080 0.625290 0.822650 -0.448584
O38   O     O_R   0.678920 0.625290 0.177350 -0.448431
O39   O     O_R   0.821080 0.125290 0.822650 -0.448594
O40   O     O_R   0.178920 0.125290 0.177350 -0.448478
O41   O     O_R   0.214930 0.711450 0.668160 -0.514999
O42   O     O_R   0.785070 0.711450 0.331840 -0.512216
O43   O     O_R   0.714930 0.211450 0.668160 -0.514999
O44   O     O_R   0.285070 0.211450 0.331840 -0.512213
O45   O     O_R   0.236850 0.959870 0.675420 -0.489269
O46   O     O_R   0.763150 0.959870 0.324580 -0.487462
O47   O     O_R   0.736850 0.459870 0.675420 -0.489271
O48   O     O_R   0.263150 0.459870 0.324580 -0.487460
O49   O     O_R   0.332230 0.076350 0.670880 -0.514936
O50   O     O_R   0.667770 0.076350 0.329120 -0.515954
O51   O     O_R   0.832230 0.576350 0.670880 -0.514935
O52   O     O_R   0.167770 0.576350 0.329120 -0.515958
O53   O     O_3   0.357874 0.485584 0.928433 -0.537266
C85   C     C_3   0.365564 0.366635 0.900738 0.002814
H49   H     H_    0.316767 0.331298 0.874680 0.136006
H50   H     H_    0.380765 0.303219 0.944474 0.133880
C86   C     C_3   0.423328 0.367982 0.844557 -0.339459
H51   H     H_    0.406236 0.422671 0.797713 0.161253
H52   H     H_    0.472063 0.409129 0.866617 0.143792
H53   H     H_    0.434657 0.273365 0.826904 0.107178
O54   O     O_3   0.642200 0.484732 0.072535 -0.534521
C87   C     C_3   0.636557 0.367475 0.103618 0.005428
H54   H     H_    0.685758 0.336994 0.131070 0.135078
H55   H     H_    0.623165 0.300196 0.061592 0.133907
C88   C     C_3   0.578210 0.369058 0.159212 -0.338796
H56   H     H_    0.594276 0.426001 0.205260 0.161938
H57   H     H_    0.529252 0.407791 0.136050 0.144177
H58   H     H_    0.567645 0.274760 0.178389 0.106250
O55   O     O_3   0.857877 0.985593 0.928441 -0.537290
C89   C     C_3   0.865569 0.866650 0.900739 0.002825
H59   H     H_    0.816782 0.831336 0.874659 0.136014
H60   H     H_    0.880745 0.803222 0.944474 0.133877
C90   C     C_3   0.923357 0.867990 0.844584 -0.339471
H61   H     H_    0.906292 0.922705 0.797736 0.161256
H62   H     H_    0.972090 0.909111 0.866668 0.143788
H63   H     H_    0.934676 0.773365 0.826931 0.107187
O56   O     O_3   0.142197 0.984716 0.072537 -0.534527
C91   C     C_3   0.136589 0.867534 0.103719 0.005510
H64   H     H_    0.185785 0.837210 0.131239 0.135053
H65   H     H_    0.123265 0.800125 0.061744 0.133929
C92   C     C_3   0.078195 0.869169 0.159264 -0.338823
H66   H     H_    0.094193 0.926244 0.205279 0.162003
H67   H     H_    0.029238 0.907779 0.136033 0.144157
H68   H     H_    0.067661 0.774903 0.178509 0.106184

loop_
_geom_bond_atom_site_label_1
_geom_bond_atom_site_label_2
_ccdc_geom_bond_type
C16   C28   D    
C69   O41   A    
Cr3   O19   S    
C38   C70   S    
C60   O40   A    
C37   C69   S    
C42   C63   S    
Cr1   O17   S    
C86   H51   S    
C46   O34   A    
C35   C36   S    
Cr2   O22   S    
C53   H9    S    
Cr5   O29   S    
Cr6   O6    S    
C3    O27   A    
C88   H58   S    
C57   O37   A    
C81   C82   A    
C3    O23   A    
C9    H25   S    
C62   O46   A    
Cr12  O12   S    
C77   C78   A    
Cr8   O32   S    
C90   H63   S    
C31   C67   S    
C15   H39   S    
C50   C54   S    
C30   H45   S    
Cr3   O3    S    
Cr6   O18   S    
Cr11  O15   S    
Cr3   O47   S    
Cr1   O1    S    
C47   C76   S    
C66   O6    A    
C45   O29   A    
C27   O55   S    
C6    C12   A    
C38   H18   S    
C87   H55   S    
C75   C84   A    
C6    C78   A    
C37   H17   S    
Cr1   O45   S    
C92   H68   S    
C3    C18   S    
C7    C9    A    
C16   C60   S    
C41   C49   D    
C31   H48   S    
C73   C77   A    
C72   O44   A    
C32   H47   S    
C65   O9    A    
C35   H43   S    
Cr9   O37   S    
C39   C55   D    
C20   C24   D    
C63   O51   A    
C33   H41   S    
C28   O56   S    
C40   C56   D    
Cr6   O50   S    
Cr8   O8    S    
C69   O13   A    
C46   O30   A    
C85   H49   S    
Cr2   O18   S    
C23   C27   S    
C4    O28   A    
C9    C10   A    
Cr10  O18   S    
C51   C55   S    
C45   O33   A    
C32   C68   S    
C37   C53   D    
Cr8   O20   S    
Cr5   O5    S    
Cr10  O14   S    
C41   H13   S    
C21   H29   S    
C61   O45   A    
C86   H52   S    
C48   C75   S    
Cr7   O19   S    
O53   C85   S    
C15   C59   S    
Cr12  O40   S    
Cr2   O2    S    
C76   C83   A    
Cr5   O17   S    
C64   O48   A    
C92   H66   S    
C19   H35   S    
C14   C58   S    
Cr3   O23   S    
Cr2   O46   S    
C54   H10   S    
C67   O7    A    
C84   H4    S    
C32   C35   D    
C7    H23   S    
C33   C34   S    
C21   C25   S    
C24   H32   S    
C66   O10   A    
Cr9   O33   S    
C89   H59   S    
Cr3   O43   S    
C14   H38   S    
C91   C92   S    
Cr4   O24   S    
C90   H61   S    
Cr4   O20   S    
C17   H33   S    
C29   C34   D    
C34   H42   S    
C14   C26   D    
Cr12  O20   S    
C5    H21   S    
C45   C74   S    
C70   O14   A    
Cr10  O38   S    
C20   H36   S    
C19   C23   D    
O56   C91   S    
C68   O8    A    
C88   H57   S    
Cr11  O19   S    
Cr7   O51   S    
C57   O1    A    
C83   H3    S    
C15   C27   D    
C83   C84   A    
C38   C54   D    
C1    O21   A    
Cr10  O10   S    
Cr5   O49   S    
Cr6   O26   S    
C85   C86   S    
C88   H56   S    
Cr4   O4    S    
Cr7   O31   S    
C30   C66   S    
Cr12  O36   S    
C59   O39   A    
C36   H44   S    
O55   C89   S    
C47   O35   A    
C42   C50   D    
C10   H26   S    
C4    C17   S    
C44   H16   S    
O54   C87   S    
Cr11  O35   S    
Cr12  O16   S    
C2    O26   A    
Cr9   O17   S    
C50   H6    S    
C39   H19   S    
C5    C11   A    
C22   C26   S    
C86   H53   S    
C29   C65   S    
C18   H34   S    
C26   O54   S    
C76   C80   A    
C62   O50   A    
C74   C81   A    
C5    C77   A    
C16   H40   S    
C61   O49   A    
C73   C82   A    
C48   O36   A    
C8    H24   S    
C7    C79   A    
Cr4   O48   S    
C2    O22   A    
C91   H65   S    
C1    C20   S    
C39   C71   S    
C40   C72   S    
C30   C33   D    
C2    C19   S    
C87   H54   S    
C13   H37   S    
C11   H27   S    
C24   C28   S    
C71   O43   A    
Cr8   O52   S    
C68   O12   A    
Cr10  O34   S    
C44   C52   D    
C11   C12   A    
C58   O2    A    
C25   O53   S    
Cr2   O42   S    
C67   O11   A    
C44   C61   S    
C90   H62   S    
C71   O15   A    
Cr6   O30   S    
C23   H31   S    
C72   O16   A    
Cr7   O27   S    
C58   O38   A    
Cr1   O21   S    
Cr7   O7    S    
C18   C22   D    
C42   H14   S    
C89   H60   S    
Cr5   O25   S    
Cr1   O41   S    
C75   C79   A    
C49   H5    S    
Cr9   O13   S    
C87   C88   S    
C43   C51   D    
C40   H20   S    
C81   H1    S    
C13   C25   D    
Cr8   O28   S    
C63   O47   A    
C29   H46   S    
C64   O52   A    
Cr9   O9    S    
C92   H67   S    
C52   H8    S    
Cr11  O11   S    
C89   C90   S    
Cr11  O39   S    
C91   H64   S    
C17   C21   D    
C82   H2    S    
C49   C53   S    
C22   H30   S    
C70   O42   A    
C47   O31   A    
C79   C80   A    
C43   H15   S    
C4    O24   A    
Cr4   O44   S    
C13   C57   S    
C8    C10   A    
C74   C78   A    
C1    O25   A    
C8    C80   A    
C65   O5    A    
C56   H12   S    
C31   C36   D    
C85   H50   S    
C60   O4    A    
C41   C64   S    
C51   H7    S    
C12   H28   S    
C6    H22   S    
C46   C73   S    
C55   H11   S    
C52   C56   S    
C43   C62   S    
C48   O32   A    
C59   O3    A    
