data_mof_unit_22553.cif
_audit_creation_date              2012-12-11T19:31:11-0500
_audit_creation_method            fapswitch 2.2
_symmetry_space_group_name_H-M    P1
_symmetry_Int_Tables_number       1
_space_group_crystal_system       triclinic
_cell_length_a                    8.180094
_cell_length_b                    15.052546
_cell_length_c                    17.292402
_cell_angle_alpha                 100.799027
_cell_angle_beta                  97.322986
_cell_angle_gamma                 98.66951
_cell_volume                      2040.87710457

loop_
_atom_site_label
_atom_site_type_symbol
_atom_type_description
_atom_site_fract_x
_atom_site_fract_y
_atom_site_fract_z
_atom_type_partial_charge
Ba1   Ba    Ba6+2 0.844380 0.541120 0.463220 1.673942
Ba2   Ba    Ba6+2 0.345460 0.458950 0.536790 1.652395
C1    C     C_3   0.685110 0.842887 0.240359 -0.320215
C2    C     C_3   0.394576 0.491642 0.217406 -0.018372
C3    C     C_2   0.318895 0.494529 0.133251 -0.098616
C4    C     C_3   0.132793 0.724021 0.256361 0.242536
C5    C     C_2   0.150156 0.478692 0.111004 -0.001426
C6    C     C_2   0.041331 0.458961 0.171807 -0.133071
C7    C     C_1   0.109153 0.462664 0.246576 0.066873
C8    C     C_R   0.890863 0.464054 0.860141 -0.131981
C9    C     C_R   0.822340 0.454431 0.780214 -0.002361
C10   C     C_R   0.083558 0.533119 0.753782 0.151150
C11   C     C_R   0.153535 0.543432 0.834600 -0.115261
C12   C     C_3   0.659093 0.760264 0.279101 0.900004
C13   C     C_R   0.059445 0.506692 0.888470 0.006263
C14   C     C_2   0.068108 0.474636 0.027556 -0.083771
C15   C     C_2   0.141120 0.513970 0.972949 -0.077888
C16   C     C_3   0.091760 0.734571 0.169994 -0.219897
C17   C     C_R   0.920012 0.486016 0.727094 -0.236219
C18   C     C_R   0.868154 0.172663 0.555116 0.001694
C19   C     C_R   0.799363 0.079009 0.549022 -0.031533
C20   C     C_R   0.657571 0.890485 0.533897 -0.005073
C21   C     C_R   0.818287 0.928319 0.577775 -0.054993
C22   C     C_R   0.888874 0.020136 0.583874 -0.101958
C23   C     C_3   0.399021 0.298873 0.289235 0.312758
C24   C     C_R   0.587179 0.795762 0.522784 0.093449
C25   C     C_R   0.424565 0.763254 0.481322 -0.181051
C26   C     C_R   0.609572 0.194774 0.480607 0.022250
C27   C     C_R   0.540525 0.101403 0.471958 -0.029579
C28   C     C_3   0.277249 0.744434 0.643712 0.375751
C29   C     C_R   0.634445 0.043484 0.507371 0.005320
C30   C     C_R   0.379743 0.064411 0.428864 -0.049906
C31   C     C_R   0.308857 0.973871 0.423921 -0.099084
C32   C     C_R   0.398548 0.915069 0.458641 0.005972
C33   C     C_R   0.563907 0.949488 0.499718 0.043360
C34   C     C_3   0.324249 0.255187 0.202840 -0.403780
C35   C     C_R   0.327867 0.822447 0.452435 0.022642
C36   C     C_R   0.769551 0.229748 0.523886 -0.295628
C37   C     C_3   0.315961 0.848848 0.668971 -0.385055
C38   C     C_3   0.920670 0.256337 0.358823 0.307264
C39   C     C_3   0.883934 0.151798 0.334959 -0.397579
C40   C     C_3   0.756623 0.680624 0.713851 0.865195
C41   C     C_3   0.689925 0.698607 0.792558 -0.289726
C42   C     C_R   0.202565 0.815859 0.152756 0.076047
C43   C     C_R   0.195881 0.906089 0.190973 -0.046096
C44   C     C_R   0.299393 0.980896 0.174863 -0.094277
C45   C     C_3   0.113109 0.279896 0.749111 0.360055
C46   C     C_R   0.407010 0.966709 0.118959 -0.058177
C47   C     C_R   0.411873 0.877490 0.079303 -0.073049
C48   C     C_R   0.310827 0.802257 0.096317 -0.046536
C49   C     C_3   0.141933 0.258745 0.831839 -0.366065
C50   C     C_3   0.573649 0.225796 0.702123 0.362920
C51   C     C_3   0.544234 0.132321 0.724501 -0.368394
C52   C     C_2   0.267034 0.500609 0.273276 -0.269074
F1    F     F_    0.925806 0.684222 0.731452 -0.750719
F2    F     F_    0.588630 0.784459 0.346475 -0.753824
H1    H     H_    0.782702 0.742862 0.296599 0.068633
H2    H     H_    0.695171 0.611044 0.679789 -0.016979
H3    H     H_    0.785338 0.897229 0.278513 0.084671
H4    H     H_    0.762617 0.763146 0.831819 0.108705
H5    H     H_    0.701506 0.640860 0.823337 0.063193
H6    H     H_    0.556604 0.705978 0.782157 0.079993
H7    H     H_    0.567957 0.871306 0.234038 0.126129
H8    H     H_    0.297979 0.324281 0.319436 0.027572
H9    H     H_    0.500864 0.357308 0.290951 0.034002
H10   H     H_    0.219406 0.198097 0.200599 0.123458
H11   H     H_    0.274234 0.306314 0.172486 0.066320
H12   H     H_    0.428883 0.870636 0.715741 0.115405
H13   H     H_    0.421388 0.228107 0.170602 0.119321
H14   H     H_    0.721951 0.822947 0.180801 0.050091
H15   H     H_    0.195098 0.345971 0.749760 0.083363
H16   H     H_    0.980104 0.286954 0.735342 -0.069945
H17   H     H_    0.275033 0.252919 0.848257 0.148988
H18   H     H_    0.111361 0.314614 0.876305 0.074788
H19   H     H_    0.060479 0.193060 0.832931 0.109828
H20   H     H_    0.704234 0.239941 0.690496 -0.066441
H21   H     H_    0.485877 0.222671 0.646802 0.097525
H22   H     H_    0.633181 0.132621 0.778764 0.110282
H23   H     H_    0.339459 0.880099 0.617440 0.026364
H24   H     H_    0.563868 0.078436 0.674921 0.066672
H25   H     H_    0.069229 0.654328 0.258993 0.062201
H26   H     H_    0.413933 0.115734 0.736211 0.147965
H27   H     H_    0.267683 0.552842 0.990185 0.071793
H28   H     H_    0.906561 0.440105 0.153901 0.096255
H29   H     H_    0.810336 0.438005 0.898621 0.071792
H30   H     H_    0.940493 0.437800 0.012436 0.071939
H31   H     H_    0.402745 0.503259 0.090396 0.065349
H32   H     H_    0.280906 0.579788 0.855310 0.076349
H33   H     H_    0.305868 0.535802 0.335246 0.075775
H34   H     H_    0.208058 0.874447 0.692854 0.137044
H35   H     H_    0.865569 0.478088 0.665281 0.069871
H36   H     H_    0.893046 0.887976 0.607849 0.103873
H37   H     H_    0.270263 0.729652 0.273166 0.079810
H38   H     H_    0.013903 0.044325 0.617004 0.105500
H39   H     H_    0.182924 0.951200 0.391760 0.104270
H40   H     H_    0.304069 0.104742 0.399198 0.099434
H41   H     H_    0.370103 0.691493 0.474114 0.039812
H42   H     H_    0.821675 0.301504 0.529130 0.063897
H43   H     H_    0.106079 0.670188 0.130008 0.062978
H44   H     H_    0.958453 0.741695 0.156792 0.095198
H45   H     H_    0.812072 0.281074 0.381331 0.007698
H46   H     H_    0.387752 0.719540 0.623420 -0.073096
H47   H     H_    0.169185 0.724649 0.594409 0.061206
H48   H     H_    0.110594 0.918931 0.233010 0.096472
H49   H     H_    0.295736 0.049866 0.205658 0.086217
H50   H     H_    0.486602 0.024818 0.106410 0.069512
H51   H     H_    0.495278 0.866522 0.035997 0.068203
H52   H     H_    0.317517 0.733566 0.065593 0.067885
H53   H     H_    0.031218 0.277290 0.406585 0.074931
H54   H     H_    0.767710 0.128562 0.290300 0.131000
H55   H     H_    0.867258 0.121578 0.387746 0.068894
H56   H     H_    0.990005 0.126608 0.308894 0.109917
O1    O     O_2   0.823660 0.438400 0.305670 -0.474861
O2    O     O_2   0.208178 0.178732 0.546938 -0.493504
O3    O     O_3   0.152619 0.208588 0.693692 -0.604776
O4    O     O_3   0.097530 0.445010 0.403900 -0.501072
O5    O     O_3   0.591420 0.612980 0.544250 -0.504009
O6    O     O_2   0.325830 0.273320 0.453470 -0.472774
O7    O     O_3   0.464838 0.232682 0.324605 -0.649803
O8    O     O_2   0.483385 0.460829 0.780606 -0.499681
O9    O     O_3   0.545042 0.293203 0.764593 -0.598761
O10   O     O_3   0.626680 0.608380 0.360110 -0.442137
O11   O     O_2   0.741139 0.560379 0.224340 -0.524779
O12   O     O_3   0.730904 0.751522 0.674142 -0.666731
O13   O     O_3   0.950271 0.291623 0.291676 -0.637322
O14   O     O_3   0.552340 0.685989 0.225777 -0.657766
O15   O     O_2   0.863890 0.726710 0.546580 -0.459178
O16   O     O_3   0.059540 0.657940 0.401520 -0.487367
O17   O     O_2   0.982278 0.821773 0.448313 -0.474292
O18   O     O_3   0.072384 0.791401 0.307271 -0.639809
O19   O     O_2   0.366060 0.561630 0.694380 -0.502456
O20   O     O_3   0.092190 0.555060 0.596110 -0.491389
O21   O     O_3   0.563040 0.391700 0.639900 -0.487807
O22   O     O_3   0.241064 0.708356 0.709562 -0.568311
O23   O     O_3   0.598290 0.387090 0.455760 -0.476716
O24   O     O_3   0.130180 0.342130 0.598490 -0.494135
P1    P     P_3+3 0.993930 0.412000 0.316950 0.974020
P2    P     P_3+3 0.694120 0.714590 0.569800 1.001435
P3    P     P_3+3 0.110430 0.774476 0.404859 0.938210
P4    P     P_3+3 0.195780 0.588080 0.683070 1.060668
P5    P     P_3+3 0.088867 0.224545 0.597506 0.934137
P6    P     P_3+3 0.580700 0.583630 0.256208 0.962993
P7    P     P_3+3 0.503101 0.271108 0.428279 0.934768
P8    P     P_3+3 0.602988 0.401500 0.742764 0.943716

loop_
_geom_bond_atom_site_label_1
_geom_bond_atom_site_label_2
_ccdc_geom_bond_type
C12   F2    S    
O3    P5    S    
C8    H29   S    
C32   C35   A    
O7    P7    S    
C37   H12   S    
O5    P2    S    
O8    P8    D    
Ba1   O16   S    
C36   H42   S    
Ba1   O20   S    
C40   H2    S    
Ba2   O6    S    
C34   H11   S    
C40   O12   S    
C5    C6    S    
C47   H51   S    
C43   C44   A    
C50   C51   S    
C45   O3    S    
C20   C33   A    
C19   C29   A    
C9    C17   A    
C24   C25   A    
C16   H44   S    
O12   P2    S    
C26   C27   A    
O16   P3    S    
C49   H19   S    
C32   C33   A    
C27   C30   A    
C22   H38   S    
C8    C13   A    
O22   P4    S    
C34   H10   S    
C44   H49   S    
C31   H39   S    
O11   P6    D    
Ba1   Ba2   S    
Ba1   O10   S    
O19   P4    D    
C38   H45   S    
Ba2   O4    S    
C46   H50   S    
C14   C15   D    
C28   O22   S    
C39   H56   S    
C28   H47   S    
Ba2   O20   S    
C21   C22   A    
C10   P4    S    
O15   P2    D    
C11   H32   S    
C9    P8    S    
C37   H34   S    
C21   H36   S    
C4    O18   S    
O23   P7    S    
C4    H25   S    
C48   H52   S    
O9    P8    S    
C28   H46   S    
Ba1   O1    S    
O18   P3    S    
C23   O7    S    
Ba2   O5    S    
Ba2   O19   S    
C4    C16   S    
C44   C46   A    
Ba2   O21   S    
O2    P5    D    
C49   H17   S    
C1    H14   S    
C23   H9    S    
C52   H33   S    
O6    P7    D    
C3    C5    D    
C6    C7    D    
C45   C49   S    
O13   P1    S    
O14   P6    S    
Ba2   O24   S    
C49   H18   S    
C51   H26   S    
C15   H27   S    
C23   H8    S    
C37   H23   S    
O24   P5    S    
C43   H48   S    
C16   C42   S    
C40   F1    S    
C18   C36   A    
C50   O9    S    
O17   P3    D    
C26   C36   A    
C4    H37   S    
C51   H24   S    
C31   C32   A    
C26   P7    S    
Ba1   O5    S    
C10   C11   A    
C45   H15   S    
C1    C12   S    
C41   H4    S    
C38   C39   S    
Ba1   O4    S    
C39   H54   S    
C11   C13   A    
C50   H20   S    
O1    P1    D    
C40   C41   S    
O10   P6    S    
C50   H21   S    
Ba1   P1    S    
C34   H13   S    
C41   H5    S    
O4    P1    S    
C42   C48   A    
C13   C15   S    
C12   H1    S    
C25   H41   S    
O21   P8    S    
C2    C52   S    
C6    H28   S    
C18   P5    S    
C5    C14   S    
C42   C43   A    
Ba1   O15   S    
C2    C3    S    
C24   P2    S    
C16   H43   S    
C38   H53   S    
C1    H7    S    
O20   P4    S    
Ba2   O23   S    
C12   O14   S    
Ba2   P4    S    
C30   C31   A    
C51   H22   S    
C7    P1    S    
C30   H40   S    
C2    P6    S    
C14   H30   S    
C46   C47   A    
C38   O13   S    
C10   C17   A    
C28   C37   S    
C29   C33   A    
C45   H16   S    
C17   H35   S    
C8    C9    A    
C23   C34   S    
C20   C24   A    
C3    H31   S    
C18   C19   A    
C27   C29   A    
C47   C48   A    
C39   H55   S    
C19   C22   A    
C20   C21   A    
C7    C52   D    
Ba1   O23   S    
C35   P3    S    
Ba1   P2    S    
C25   C35   A    
C41   H6    S    
C1    H3    S    
