data_mof_unit_61871.cif
_audit_creation_date              2012-12-10T20:52:45-0500
_audit_creation_method            fapswitch 2.2
_symmetry_space_group_name_H-M    P1
_symmetry_Int_Tables_number       1
_space_group_crystal_system       triclinic
_cell_length_a                    8.60641
_cell_length_b                    15.849402
_cell_length_c                    15.090805
_cell_angle_alpha                 90.003141
_cell_angle_beta                  98.677495
_cell_angle_gamma                 89.988477
_cell_volume                      2034.92012785

loop_
_atom_site_label
_atom_site_type_symbol
_atom_type_description
_atom_site_fract_x
_atom_site_fract_y
_atom_site_fract_z
_atom_type_partial_charge
C1    C     C_R   0.500051 0.338890 0.499984 0.903250
C2    C     C_R   0.499949 0.661110 0.500016 0.903249
C3    C     C_R   0.500027 0.499990 0.905053 -0.437360
C4    C     C_R   0.499973 0.500010 0.094947 -0.437360
C5    C     C_R   0.642056 0.500256 0.965374 0.534078
C6    C     C_R   0.357944 0.499744 0.034626 0.534078
C7    C     C_1   0.500039 0.499983 0.807118 0.368559
C8    C     C_1   0.499961 0.500017 0.192882 0.368560
C9    C     C_R   0.200487 0.500000 0.476706 0.966465
C10   C     C_R   0.799513 0.500000 0.523294 0.966466
C11   C     C_2   0.035781 0.500000 0.463939 -0.365516
C12   C     C_2   0.964219 0.500000 0.536061 -0.365516
C13   C     C_R   0.475666 0.956271 0.577403 -0.168496
C14   C     C_R   0.524334 0.043728 0.422597 -0.168496
C15   C     C_R   0.499964 0.913143 0.500007 0.159690
C16   C     C_R   0.500036 0.086857 0.499993 0.159690
C17   C     C_R   0.524298 0.956236 0.422604 -0.168486
C18   C     C_R   0.475702 0.043763 0.577396 -0.168486
C19   C     C_1   0.499944 0.824355 0.500015 -0.056951
C20   C     C_1   0.500056 0.175645 0.499985 -0.056951
C21   C     C_1   0.500060 0.250487 0.499981 -0.151282
C22   C     C_1   0.499940 0.749513 0.500019 -0.151282
C23   C     C_R   0.357974 0.499735 0.940905 0.517345
C24   C     C_R   0.642026 0.500265 0.059095 0.517345
H1    H     H_    0.973837 0.500001 0.395524 0.209856
H2    H     H_    0.026163 0.499999 0.604476 0.209856
H3    H     H_    0.456915 0.077689 0.637237 0.154518
H4    H     H_    0.543085 0.922311 0.362763 0.154518
H5    H     H_    0.456856 0.922373 0.637250 0.154509
H6    H     H_    0.543144 0.077627 0.362750 0.154509
N1    N     N_1   0.499960 0.500020 0.270540 -0.094475
N2    N     N_1   0.500040 0.499980 0.729460 -0.094475
O1    O     O_R   0.500000 0.378020 0.573650 -0.610835
O2    O     O_R   0.500000 0.621980 0.426350 -0.610834
O3    O     O_R   0.500070 0.378020 0.426320 -0.610847
O4    O     O_R   0.499930 0.621980 0.573680 -0.610847
O5    O     O_R   0.271720 0.500000 0.556430 -0.613760
O6    O     O_R   0.728280 0.500000 0.443570 -0.613760
O7    O     O_R   0.271790 0.500000 0.409110 -0.602424
O8    O     O_R   0.728210 0.500000 0.590890 -0.602424
Zn1   Zn    Zn3+2 0.499950 0.500000 0.598370 1.024088
Zn2   Zn    Zn3+2 0.500050 0.500000 0.401630 1.024088
F1    F     F_    0.218604 0.499493 0.066475 -0.543269
F2    F     F_    0.781396 0.500507 0.933525 -0.543269
F3    F     F_    0.218668 0.499475 0.885050 -0.568656
F4    F     F_    0.781332 0.500525 0.114950 -0.568656

loop_
_geom_bond_atom_site_label_1
_geom_bond_atom_site_label_2
_ccdc_geom_bond_type
C2    C22   S    
C11   C12   D    
C1    C21   S    
C23   F3    S    
N1    Zn2   S    
C3    C23   A    
O2    Zn2   S    
C10   O6    A    
N2    Zn1   S    
O1    Zn1   S    
C2    O2    A    
C9    O5    A    
C24   F4    S    
C15   C19   S    
C9    C11   S    
C14   C17   A    
O4    Zn1   S    
C5    C24   A    
C10   C12   S    
C13   C18   A    
C14   H6    S    
C6    C23   A    
C4    C6    A    
C16   C20   S    
C8    N1    T    
C5    F2    S    
O6    Zn2   S    
O7    Zn2   S    
C3    C7    S    
C6    F1    S    
C13   C15   A    
O5    Zn1   S    
C4    C24   A    
C14   C16   A    
C11   H1    S    
C1    O1    A    
C9    O7    A    
C19   C22   T    
C20   C21   T    
C1    O3    A    
C16   C18   A    
C2    O4    A    
C4    C8    S    
C15   C17   A    
O3    Zn2   S    
O8    Zn1   S    
C10   O8    A    
C7    N2    T    
C17   H4    S    
C18   H3    S    
C13   H5    S    
C12   H2    S    
C3    C5    A    
