data_mof_unit_59883.cif
_audit_creation_date              2012-12-10T17:55:07-0500
_audit_creation_method            fapswitch 2.2
_symmetry_space_group_name_H-M    P1
_symmetry_Int_Tables_number       1
_space_group_crystal_system       triclinic
_cell_length_a                    8.79174
_cell_length_b                    10.841308
_cell_length_c                    9.622755
_cell_angle_alpha                 88.362379
_cell_angle_beta                  95.877073
_cell_angle_gamma                 92.140737
_cell_volume                      911.442602917

loop_
_atom_site_label
_atom_site_type_symbol
_atom_type_description
_atom_site_fract_x
_atom_site_fract_y
_atom_site_fract_z
_atom_type_partial_charge
Br1   Br    Br    0.226634 0.340818 0.829584 -0.441105
Br2   Br    Br    0.773368 0.659180 0.170416 -0.441105
C1    C     C_R   0.496892 0.262496 0.500446 0.866922
C2    C     C_R   0.373218 0.057653 0.542832 0.138173
C3    C     C_R   0.502400 0.871524 0.500470 -0.204127
C4    C     C_R   0.497600 0.128476 0.499530 -0.204127
C5    C     C_R   0.391029 0.435157 0.068058 -0.059226
C6    C     C_R   0.608971 0.564843 0.931941 -0.059226
C7    C     C_R   0.390179 0.435165 0.921022 0.362371
C8    C     C_R   0.609821 0.564835 0.078978 0.362371
C9    C     C_R   0.503108 0.737504 0.499553 0.866921
C10   C     C_R   0.204724 0.499101 0.465259 0.899585
C11   C     C_R   0.795276 0.500899 0.534740 0.899584
C12   C     C_2   0.040192 0.495967 0.445768 -0.275130
C13   C     C_2   0.959808 0.504033 0.554232 -0.275131
C14   C     C_R   0.620786 0.070981 0.448973 0.122338
C15   C     C_R   0.379214 0.929019 0.551027 0.122338
C16   C     C_R   0.626782 0.942347 0.457168 0.138172
Cu1   Cu    Cu3+1 0.500000 0.500020 0.640660 1.043179
Cu2   Cu    Cu3+1 0.500000 0.499980 0.359340 1.043179
H1    H     H_    0.984656 0.486151 0.340321 0.209453
H2    H     H_    0.015344 0.513849 0.659679 0.209453
H3    H     H_    0.303803 0.382829 0.118266 0.180131
H4    H     H_    0.696197 0.617171 0.881733 0.180131
I1    I     I_    0.789495 0.177138 0.346666 -0.206557
I2    I     I_    0.210505 0.822862 0.653333 -0.206557
I3    I     I_    0.837306 0.858745 0.439405 -0.176301
I4    I     I_    0.162694 0.141255 0.560594 -0.176301
N1    N     N_R   0.500040 0.500030 0.852080 -0.212354
N2    N     N_R   0.499960 0.499970 0.147920 -0.212354
O1    O     O_R   0.499990 0.319660 0.618740 -0.540904
O2    O     O_R   0.500010 0.680340 0.381260 -0.540904
O3    O     O_R   0.499990 0.319630 0.381170 -0.572082
O4    O     O_R   0.500010 0.680370 0.618830 -0.572082
O5    O     O_R   0.274840 0.500010 0.591370 -0.541393
O6    O     O_R   0.725160 0.499990 0.408630 -0.541393
O7    O     O_R   0.274830 0.499980 0.353800 -0.592971
O8    O     O_R   0.725170 0.500020 0.646200 -0.592971

loop_
_geom_bond_atom_site_label_1
_geom_bond_atom_site_label_2
_ccdc_geom_bond_type
Br2   C8    S    
Cu1   O8    S    
C8    N2    A    
Cu1   Cu2   S    
C7    N1    A    
C1    C4    S    
Cu1   O1    S    
C13   H2    S    
C5    N2    A    
Cu2   N2    S    
C10   O5    A    
C1    O1    A    
Cu2   O7    S    
C11   O8    A    
C5    H3    S    
Cu2   O3    S    
C12   H1    S    
C6    C8    A    
C2    I4    S    
C10   C12   S    
C9    O2    A    
C3    C9    S    
C11   C13   S    
C6    N1    A    
C2    C4    A    
C3    C15   A    
C15   I2    S    
C4    C14   A    
Cu1   N1    S    
C10   O7    A    
Br1   C7    S    
C11   O6    A    
C14   C16   A    
Cu2   O2    S    
C14   I1    S    
C5    C7    A    
C1    O3    A    
C12   C13   D    
Cu2   O6    S    
Cu1   O5    S    
C3    C16   A    
C6    H4    S    
C9    O4    A    
C16   I3    S    
Cu1   O4    S    
C2    C15   A    
