data_mof_unit_51789.cif
_audit_creation_date              2012-12-10T17:55:04-0500
_audit_creation_method            fapswitch 2.2
_symmetry_space_group_name_H-M    P1
_symmetry_Int_Tables_number       1
_space_group_crystal_system       triclinic
_cell_length_a                    8.72688
_cell_length_b                    10.830386
_cell_length_c                    9.593403
_cell_angle_alpha                 89.405378
_cell_angle_beta                  97.346379
_cell_angle_gamma                 91.947138
_cell_volume                      898.746117799

loop_
_atom_site_label
_atom_site_type_symbol
_atom_type_description
_atom_site_fract_x
_atom_site_fract_y
_atom_site_fract_z
_atom_type_partial_charge
C1    C     C_R   0.499709 0.262286 0.500341 0.778135
C2    C     C_R   0.500290 0.737714 0.499658 0.778135
C3    C     C_R   0.204169 0.499785 0.464209 0.880158
C4    C     C_R   0.795831 0.500215 0.535791 0.880157
C5    C     C_2   0.038535 0.499671 0.444421 -0.370543
C6    C     C_2   0.961465 0.500329 0.555579 -0.370543
C7    C     C_R   0.500776 0.065136 0.373654 -0.181690
C8    C     C_R   0.499224 0.934864 0.626346 -0.181690
C9    C     C_R   0.501096 0.937390 0.373230 -0.190550
C10   C     C_R   0.498903 0.062610 0.626770 -0.190551
C11   C     C_R   0.500272 0.871689 0.499550 -0.012785
C12   C     C_R   0.499727 0.128311 0.500450 -0.012785
C13   C     C_R   0.402150 0.423329 0.066009 -0.070660
C14   C     C_R   0.597849 0.576671 0.933991 -0.070660
C15   C     C_R   0.400872 0.422101 0.918145 0.289143
C16   C     C_R   0.599127 0.577900 0.081855 0.289144
Cu1   Cu    Cu3+1 0.500000 0.500020 0.640660 0.937768
Cu2   Cu    Cu3+1 0.500000 0.499980 0.359340 0.937768
H1    H     H_    0.979716 0.498996 0.337434 0.179336
H2    H     H_    0.020283 0.501004 0.662566 0.179335
H3    H     H_    0.501399 0.114113 0.274691 0.150978
H4    H     H_    0.498601 0.885887 0.725309 0.150978
H5    H     H_    0.501927 0.890408 0.274213 0.154290
H6    H     H_    0.498073 0.109592 0.725786 0.154290
H7    H     H_    0.324333 0.362103 0.115679 0.141868
H8    H     H_    0.675666 0.637897 0.884321 0.141868
N1    N     N_R   0.500040 0.500030 0.852080 -0.177280
N2    N     N_R   0.499960 0.499970 0.147920 -0.177279
O1    O     O_R   0.499990 0.319660 0.618740 -0.592943
O2    O     O_R   0.500010 0.680340 0.381260 -0.592942
O3    O     O_R   0.499990 0.319630 0.381170 -0.589733
O4    O     O_R   0.500010 0.680370 0.618830 -0.589733
O5    O     O_R   0.274840 0.500010 0.591370 -0.579886
O6    O     O_R   0.725160 0.499990 0.408630 -0.579886
O7    O     O_R   0.274830 0.499980 0.353800 -0.586815
O8    O     O_R   0.725170 0.500020 0.646200 -0.586814
C17   C     C_3   0.285879 0.330966 0.842535 -0.832880
H9    H     H_    0.284072 0.326749 0.728966 0.281586
H10   H     H_    0.310572 0.236590 0.884002 0.192632
H11   H     H_    0.167578 0.353687 0.862803 0.199874
C18   C     C_3   0.714118 0.669036 0.157464 -0.832886
H12   H     H_    0.715929 0.673250 0.271033 0.281587
H13   H     H_    0.832418 0.646320 0.137193 0.199873
H14   H     H_    0.689419 0.763412 0.116001 0.192634

loop_
_geom_bond_atom_site_label_1
_geom_bond_atom_site_label_2
_ccdc_geom_bond_type
C16   N2    A    
C8    H4    S    
C4    O8    A    
C13   N2    A    
C17   H9    S    
C5    H1    S    
Cu1   O8    S    
C14   N1    A    
C18   H13   S    
Cu2   O7    S    
C15   N1    A    
C13   C15   A    
C3    O7    A    
C2    O2    A    
C1    O1    A    
Cu1   Cu2   S    
Cu2   N2    S    
C17   H10   S    
Cu1   O1    S    
C14   H8    S    
C9    C11   A    
C13   H7    S    
C5    C6    D    
C1    C12   S    
Cu1   O5    S    
C8    C11   A    
Cu2   O2    S    
C2    C11   S    
C10   C12   A    
C8    C10   A    
C17   H11   S    
C14   C16   A    
Cu2   O6    S    
C7    C12   A    
C18   H14   S    
C4    O6    A    
C4    C6    S    
C3    O5    A    
Cu1   N1    S    
C1    O3    A    
C6    H2    S    
C2    O4    A    
C18   H12   S    
C7    C9    A    
Cu1   O4    S    
C9    H5    S    
Cu2   O3    S    
C10   H6    S    
C7    H3    S    
C16   C18   S    
C15   C17   S    
C3    C5    S    
