data_mof_unit_12800.cif
_audit_creation_date              2012-12-11T15:48:40-0500
_audit_creation_method            fapswitch 2.2
_symmetry_space_group_name_H-M    P1
_symmetry_Int_Tables_number       1
_space_group_crystal_system       triclinic
_cell_length_a                    10.921054
_cell_length_b                    11.017135
_cell_length_c                    18.837998
_cell_angle_alpha                 90.604322
_cell_angle_beta                  90.444442
_cell_angle_gamma                 60.452153
_cell_volume                      1971.6658995

loop_
_atom_site_label
_atom_site_type_symbol
_atom_type_description
_atom_site_fract_x
_atom_site_fract_y
_atom_site_fract_z
_atom_type_partial_charge
C1    C     C_R   0.240874 0.645281 0.610413 0.539917
C2    C     C_3   0.653370 0.560441 0.800126 -0.254313
C3    C     C_3   0.698947 0.670454 0.812315 0.038213
C4    C     C_3   0.670510 0.645131 0.676306 0.055413
C5    C     C_3   0.821930 0.614109 0.692096 -0.245291
C6    C     C_3   0.639389 0.543579 0.719727 -0.215320
C7    C     C_R   0.678308 0.148721 0.821113 -0.000738
C8    C     C_R   0.773999 0.175034 0.785100 -0.024237
C9    C     C_R   0.770757 0.184674 0.711407 0.005466
C10   C     C_R   0.580320 0.135044 0.706352 -0.184473
C11   C     C_R   0.570590 0.142563 0.779399 -0.049156
C12   C     C_R   0.654114 0.621375 0.600903 0.540685
C13   C     C_3   0.929951 0.100993 0.788270 -0.265129
C14   C     C_3   0.927802 0.108931 0.707889 -0.274329
C15   C     C_R   0.675986 0.161520 0.670989 -0.000708
C16   C     C_R   0.174275 0.674213 0.833967 0.010800
C17   C     C_R   0.147286 0.584260 0.792916 -0.000168
C18   C     C_R   0.159749 0.578542 0.719449 -0.010754
C19   C     C_R   0.216101 0.763746 0.725544 -0.171151
C20   C     C_R   0.210258 0.764042 0.799288 -0.179269
C21   C     C_3   0.221399 0.430904 0.798735 -0.252635
C22   C     C_3   0.233416 0.423482 0.718640 -0.257823
C23   C     C_R   0.630847 0.225045 0.601473 0.536697
C24   C     C_R   0.196097 0.666840 0.684454 0.013497
C25   C     C_R   0.666667 0.679833 0.172257 0.012791
C26   C     C_R   0.766359 0.561484 0.207248 0.026891
C27   C     C_R   0.765590 0.550520 0.279383 0.044606
C28   C     C_R   0.571898 0.785047 0.288149 -0.175211
C29   C     C_R   0.572889 0.795660 0.213676 -0.162929
C30   C     C_3   0.803781 0.413788 0.194241 -0.283979
C31   C     C_3   0.800566 0.401423 0.273838 -0.247264
C32   C     C_R   0.664378 0.658030 0.321166 0.018149
C33   C     C_R   0.658576 0.163185 0.174714 0.014699
C34   C     C_R   0.217796 0.651440 0.402917 0.547076
C35   C     C_R   0.527107 0.233939 0.206356 0.002277
C36   C     C_R   0.518073 0.242087 0.278896 0.034203
C37   C     C_R   0.770039 0.129392 0.291022 -0.177412
C38   C     C_R   0.780277 0.120406 0.217425 -0.157314
C39   C     C_3   0.399354 0.218152 0.199009 -0.274672
C40   C     C_3   0.393755 0.220321 0.279279 -0.257576
C41   C     C_R   0.637817 0.184750 0.322333 0.019543
C42   C     C_R   0.103802 0.697133 0.191149 0.006569
C43   C     C_R   0.111019 0.803104 0.227944 0.022118
C44   C     C_R   0.124761 0.800430 0.299552 0.008219
C45   C     C_R   0.643009 0.622839 0.392654 0.545696
C46   C     C_R   0.092327 0.599376 0.304755 -0.051368
C47   C     C_R   0.078714 0.602781 0.230189 -0.168876
C48   C     C_3   0.200602 0.867876 0.215512 -0.276259
C49   C     C_3   0.218454 0.864559 0.294996 -0.262320
C50   C     C_R   0.135686 0.687366 0.337978 0.007351
C51   C     C_R   0.701596 0.098367 0.894724 0.536688
C52   C     C_R   0.722421 0.687072 0.888540 0.536937
C53   C     C_R   0.117082 0.707442 0.905581 0.539882
C54   C     C_R   0.676589 0.106414 0.104031 0.551335
C55   C     C_R   0.697426 0.692368 0.098543 0.544884
C56   C     C_R   0.616727 0.228214 0.395391 0.539190
C57   C     C_R   0.082041 0.715644 0.115548 0.550101
C58   C     C_3   0.586611 0.810116 0.780072 -0.222545
C59   C     C_3   0.567329 0.795824 0.700323 -0.241140
C60   C     C_3   0.838963 0.625631 0.772208 -0.219071
Cr1   Cr    Cr6+3 0.392960 0.397920 0.502240 1.029793
Cr2   Cr    Cr6+3 0.398340 0.708480 0.501250 1.003191
Cr3   Cr    Cr6+3 0.708670 0.393570 0.496460 1.025946
Cr4   Cr    Cr6+3 0.937650 0.938540 0.007610 1.008742
Cr5   Cr    Cr6+3 0.625330 0.937370 0.994520 1.030153
Cr6   Cr    Cr6+3 0.937940 0.625230 0.001190 1.013686
H1    H     H_    0.626565 0.883802 0.787198 0.150614
H2    H     H_    0.715906 0.435382 0.704104 0.148360
H3    H     H_    0.921492 0.522525 0.791623 0.142452
H4    H     H_    0.900290 0.507221 0.673885 0.137470
H5    H     H_    0.502308 0.121410 0.676579 0.135934
H6    H     H_    0.971975 0.994007 0.808729 0.173887
H7    H     H_    0.970776 0.164771 0.814534 0.142041
H8    H     H_    0.968875 0.176366 0.687637 0.138296
H9    H     H_    0.970377 0.005824 0.680929 0.147455
H10   H     H_    0.242304 0.836325 0.701171 0.138703
H11   H     H_    0.484237 0.849284 0.807804 0.153028
H12   H     H_    0.227105 0.839532 0.828791 0.141030
H13   H     H_    0.153198 0.391544 0.820055 0.159039
H14   H     H_    0.322807 0.394956 0.827178 0.151568
H15   H     H_    0.343043 0.378244 0.699574 0.171643
H16   H     H_    0.169858 0.381902 0.692662 0.131804
H17   H     H_    0.494338 0.872083 0.319040 0.119552
H18   H     H_    0.499630 0.892174 0.188576 0.126802
H19   H     H_    0.910985 0.351005 0.171478 0.141272
H20   H     H_    0.719188 0.403907 0.166098 0.139653
H21   H     H_    0.711002 0.389301 0.292094 0.161388
H22   H     H_    0.456829 0.822312 0.690002 0.139081
H23   H     H_    0.904878 0.327957 0.297050 0.161820
H24   H     H_    0.864056 0.095078 0.323066 0.130015
H25   H     H_    0.884454 0.071010 0.194585 0.152700
H26   H     H_    0.419701 0.117593 0.175575 0.155951
H27   H     H_    0.309921 0.311489 0.174560 0.136303
H28   H     H_    0.300009 0.311621 0.300873 0.166961
H29   H     H_    0.417810 0.118700 0.302619 0.134907
H30   H     H_    0.052132 0.531428 0.203261 0.136719
H31   H     H_    0.140051 0.975430 0.194253 0.135865
H32   H     H_    0.587137 0.870551 0.670095 0.113705
H33   H     H_    0.299397 0.797190 0.186677 0.143908
H34   H     H_    0.328225 0.791535 0.311256 0.174890
H35   H     H_    0.170258 0.970153 0.319766 0.135335
H36   H     H_    0.873255 0.703959 0.782486 0.128283
H37   H     H_    0.844142 0.689125 0.663574 0.118495
H38   H     H_    0.732317 0.458792 0.823202 0.132344
H39   H     H_    0.550821 0.593511 0.826643 0.119481
H40   H     H_    0.532046 0.560891 0.707495 0.126261
O1    O     O_R   0.507380 0.255700 0.581440 -0.535418
O2    O     O_R   0.524480 0.695810 0.424040 -0.515114
O3    O     O_R   0.736390 0.504290 0.414790 -0.494287
O4    O     O_R   0.691300 0.277290 0.422170 -0.512850
O5    O     O_3   0.499990 0.499990 0.499980 -0.257895
O6    O     O_R   0.089400 0.825690 0.930570 -0.528921
O7    O     O_R   0.818460 0.054440 0.929850 -0.503496
O8    O     O_R   0.606060 0.077150 0.915510 -0.505646
O9    O     O_R   0.646550 0.806680 0.917570 -0.502869
O10   O     O_R   0.837170 0.593410 0.915250 -0.525920
O11   O     O_R   0.065200 0.635530 0.931570 -0.498346
O12   O     O_R   0.280320 0.527350 0.578930 -0.501306
O13   O     O_R   0.068260 0.828890 0.091840 -0.522355
O14   O     O_R   0.798870 0.057410 0.079340 -0.516101
O15   O     O_R   0.584930 0.080350 0.076780 -0.520994
O16   O     O_R   0.626960 0.809650 0.067060 -0.508338
O17   O     O_R   0.816040 0.596610 0.076510 -0.518086
O18   O     O_R   0.045610 0.638500 0.081060 -0.508835
O19   O     O_3   0.833640 0.833710 0.001100 -0.257881
O20   O     O_R   0.260510 0.739590 0.584590 -0.532850
O21   O     O_R   0.532300 0.695080 0.573820 -0.510642
O22   O     O_R   0.744840 0.503500 0.576370 -0.523591
O23   O     O_R   0.699120 0.276560 0.571960 -0.500668
O24   O     O_R   0.498940 0.256500 0.419860 -0.513673
O25   O     O_R   0.272500 0.528080 0.429150 -0.488804
O26   O     O_R   0.252060 0.740380 0.423010 -0.526129
C61   C     C_1   0.452418 0.132169 0.807521 0.197516
N1    N     N_1   0.359038 0.122568 0.829826 -0.341802
C62   C     C_1   0.065913 0.504858 0.345759 0.188374
N2    N     N_1   0.045751 0.428970 0.379192 -0.306063

loop_
_geom_bond_atom_site_label_1
_geom_bond_atom_site_label_2
_ccdc_geom_bond_type
C44   C49   S    
C5    H37   S    
C8    C13   S    
C54   O14   A    
C32   C45   S    
C35   C36   A    
C9    C14   S    
C62   N2    T    
C12   O21   A    
C7    C11   A    
C48   H31   S    
C26   C27   A    
C51   O7    A    
Cr4   O13   S    
Cr6   O10   S    
C37   H24   S    
C18   C24   A    
C14   H8    S    
C28   C29   A    
C10   C15   A    
C11   C61   S    
C49   H35   S    
Cr2   O21   S    
C53   O11   A    
Cr4   O6    S    
Cr2   O2    S    
C23   O23   A    
Cr5   O8    S    
C16   C53   S    
C39   H27   S    
C58   H11   S    
C46   C62   S    
C59   H22   S    
Cr2   O5    S    
C19   C20   A    
C8    C9    A    
C31   H23   S    
Cr6   O11   S    
C47   H30   S    
Cr5   O15   S    
C30   H20   S    
C43   C48   S    
Cr3   O22   S    
C45   O2    A    
C57   O13   A    
C3    C60   S    
C15   C23   S    
Cr1   O12   S    
C55   O16   A    
C34   O26   A    
C21   C22   S    
C28   H17   S    
C37   C41   A    
Cr5   O9    S    
C36   C41   A    
C2    C6    S    
C60   H36   S    
C42   C57   S    
C56   O4    A    
C42   C47   A    
C52   O10   A    
C25   C29   A    
C55   O17   A    
C34   C50   S    
C51   O8    A    
C31   H21   S    
C27   C31   S    
C22   H15   S    
Cr2   O26   S    
C28   C32   A    
C1    O20   A    
C29   H18   S    
C4    C6    S    
C39   C40   S    
Cr2   O20   S    
C16   C17   A    
C25   C26   A    
C38   H25   S    
C17   C21   S    
Cr5   O19   S    
Cr3   O3    S    
C35   C39   S    
C43   C44   A    
C41   C56   S    
C37   C38   A    
C4    C59   S    
C36   C40   S    
C16   C20   A    
C23   O1    A    
C21   H13   S    
C17   C18   A    
C6    H40   S    
Cr5   O16   S    
C30   H19   S    
Cr1   O24   S    
C53   O6    A    
C48   C49   S    
C54   O15   A    
C13   H7    S    
C2    H38   S    
C26   C30   S    
C61   N1    T    
Cr6   O18   S    
C4    C12   S    
C42   C43   A    
C40   H29   S    
Cr1   O5    S    
C22   H16   S    
C39   H26   S    
C52   O9    A    
C44   C50   A    
C33   C54   S    
C48   H33   S    
C46   C47   A    
C19   H10   S    
Cr4   O7    S    
C5    C60   S    
C27   C32   A    
C18   C22   S    
C25   C55   S    
C40   H28   S    
C4    C5    S    
C5    H4    S    
C34   O25   A    
C3    C52   S    
C12   O22   A    
C13   H6    S    
C46   C50   A    
C2    H39   S    
C33   C38   A    
Cr4   O14   S    
Cr6   O19   S    
C20   H12   S    
C14   H9    S    
Cr3   O4    S    
C19   C24   A    
C58   C59   S    
C7    C51   S    
C10   H5    S    
C57   O18   A    
C30   C31   S    
C60   H3    S    
C21   H14   S    
C6    H2    S    
C33   C35   A    
C2    C3    S    
C45   O3    A    
C1    O12   A    
Cr3   O23   S    
Cr3   O5    S    
Cr1   O1    S    
C7    C8    A    
C10   C11   A    
Cr1   O25   S    
C3    C58   S    
C58   H1    S    
C1    C24   S    
Cr4   O19   S    
C59   H32   S    
Cr6   O17   S    
C13   C14   S    
C56   O24   A    
C9    C15   A    
C49   H34   S    
