data_mof_unit_41261.cif
_audit_creation_date              2012-12-11T15:15:11-0500
_audit_creation_method            fapswitch 2.2
_symmetry_space_group_name_H-M    P1
_symmetry_Int_Tables_number       1
_space_group_crystal_system       triclinic
_cell_length_a                    18.878888
_cell_length_b                    18.835553
_cell_length_c                    20.397898
_cell_angle_alpha                 106.971447
_cell_angle_beta                  106.546714
_cell_angle_gamma                 111.273429
_cell_volume                      5810.52610189

loop_
_atom_site_label
_atom_site_type_symbol
_atom_type_description
_atom_site_fract_x
_atom_site_fract_y
_atom_site_fract_z
_atom_type_partial_charge
C1    C     C_R   0.084562 0.088806 0.353914 -0.143794
C2    C     C_R   0.755029 0.992749 0.546317 0.046257
C3    C     C_R   0.756806 0.789877 0.273036 0.045750
C4    C     C_R   0.963329 0.219339 0.465103 0.061038
C5    C     C_R   0.227475 0.231823 0.643329 0.126539
C6    C     C_R   0.920240 0.755988 0.494312 -0.148009
C7    C     C_R   0.174327 0.928258 0.481983 -0.125317
C8    C     C_R   0.036280 0.052380 0.717288 -0.138523
C9    C     C_R   0.966717 0.911058 0.652829 -0.138261
C10   C     C_R   0.243975 0.069024 0.548154 -0.157032
C11   C     C_R   0.152316 0.222530 0.709448 -0.146237
C12   C     C_R   0.763777 0.923889 0.508311 0.132264
C13   C     C_R   0.997662 0.762958 0.430318 -0.148061
C14   C     C_R   0.227227 0.274885 0.711322 0.064145
C15   C     C_R   0.945636 0.708671 0.450160 0.082976
C16   C     C_R   0.251202 0.996415 0.539135 0.081191
C17   C     C_R   0.024434 0.978201 0.723908 0.033520
C18   C     C_R   0.944356 0.577514 0.374074 -0.265917
C19   C     C_R   0.914390 0.616450 0.420909 0.119241
C20   C     C_R   0.859985 0.568343 0.444330 -0.242791
C21   C     C_R   0.845633 0.486368 0.430815 0.135988
C22   C     C_R   0.885331 0.451738 0.392507 0.009727
C23   C     C_R   0.839025 0.814466 0.281296 -0.124417
C24   C     C_R   0.931395 0.495313 0.359795 0.069906
C25   C     C_R   0.797423 0.441444 0.460363 -0.281525
C26   C     C_R   0.795526 0.366371 0.460132 0.127690
C27   C     C_R   0.845323 0.337861 0.431365 0.090039
C28   C     C_R   0.885489 0.377722 0.393232 0.001365
C29   C     C_R   0.932694 0.348212 0.362111 0.120480
C30   C     C_R   0.969265 0.385012 0.321591 -0.250875
C31   C     C_R   0.968692 0.458502 0.318847 0.130599
C32   C     C_R   0.863085 0.276528 0.446017 -0.265974
C33   C     C_R   0.922462 0.258730 0.426882 0.118824
C34   C     C_R   0.948627 0.195447 0.520261 -0.090126
C35   C     C_R   0.949922 0.287811 0.378276 -0.233932
C36   C     C_R   0.404478 0.067156 0.627818 -0.270933
C37   C     C_R   0.327236 0.992344 0.577885 0.117127
C38   C     C_R   0.325740 0.914109 0.554038 -0.255579
C39   C     C_R   0.400039 0.911799 0.562113 0.158778
C40   C     C_R   0.477806 0.988461 0.602616 -0.001998
C41   C     C_R   0.481389 0.066450 0.641137 0.081908
C42   C     C_R   0.396033 0.835251 0.521456 -0.210546
C43   C     C_R   0.466546 0.836030 0.512849 -0.209887
C44   C     C_R   0.542333 0.912651 0.548137 0.150134
C45   C     C_R   0.760664 0.809332 0.345652 -0.149362
C46   C     C_R   0.549955 0.987905 0.597534 0.029127
C47   C     C_R   0.627504 0.063865 0.635407 0.120996
C48   C     C_R   0.633459 0.139268 0.681495 -0.279011
C49   C     C_R   0.560985 0.142171 0.684323 0.135928
C50   C     C_R   0.608580 0.916218 0.530319 -0.284555
C51   C     C_R   0.686786 0.990686 0.568405 0.111146
C52   C     C_R   0.696705 0.064010 0.623058 -0.251815
C53   C     C_R   0.282838 0.365571 0.763896 -0.040236
C54   C     C_R   0.249728 0.420593 0.783733 0.634857
C55   C     C_R   0.306208 0.507395 0.832986 -0.387623
C56   C     C_R   0.026004 0.201574 0.455152 -0.145531
C57   C     C_R   0.393539 0.537923 0.862473 0.119346
C58   C     C_R   0.425324 0.482909 0.841542 -0.167812
C59   C     C_R   0.370372 0.397372 0.792714 -0.256906
C60   C     C_R   0.609920 0.682185 0.063551 -0.169866
C61   C     C_R   0.681421 0.717013 0.131351 -0.188880
C62   C     C_R   0.608938 0.759932 0.202367 -0.178335
C63   C     C_R   0.537174 0.725027 0.134142 -0.177030
C64   C     C_R   0.537371 0.686407 0.064306 0.216087
C65   C     C_2   0.452853 0.623890 0.924308 0.126176
C66   C     C_2   0.457299 0.635861 0.994133 -0.300844
C67   C     C_R   0.828627 0.065116 0.566521 -0.197186
C68   C     C_R   0.681440 0.755407 0.201492 0.145490
C69   C     C_R   0.093698 0.028935 0.229775 0.144186
C70   C     C_R   0.044368 0.968149 0.153518 -0.182793
C71   C     C_R   0.072303 0.976879 0.098795 -0.195743
C72   C     C_R   0.150328 0.045855 0.119864 0.184694
C73   C     C_R   0.201963 0.104140 0.196548 -0.201463
C74   C     C_R   0.173481 0.096138 0.251326 -0.178486
C75   C     C_R   0.197730 0.039694 0.910376 -0.171893
C76   C     C_R   0.156470 0.036962 0.840455 -0.196511
C77   C     C_R   0.033713 0.906809 0.808415 -0.186281
C78   C     C_R   0.014418 0.948359 0.288908 -0.140334
C79   C     C_R   0.074475 0.910424 0.878919 -0.180422
C80   C     C_R   0.154226 0.979837 0.931867 0.226909
C81   C     C_2   0.171728 0.060202 0.059293 0.094235
C82   C     C_2   0.179579 0.998649 0.012568 -0.322088
C83   C     C_R   0.072579 0.972952 0.790980 0.147289
C84   C     C_R   0.060840 0.022656 0.286013 0.042300
H1    H     H_    0.131478 0.154400 0.375831 0.087081
H2    H     H_    0.869719 0.731645 0.510051 0.084793
H3    H     H_    0.156245 0.861832 0.459942 0.093949
H4    H     H_    0.079098 0.116343 0.761610 0.096467
H5    H     H_    0.946363 0.844582 0.637141 0.108903
H6    H     H_    0.291218 0.132950 0.589436 0.098262
H7    H     H_    0.124804 0.241419 0.746508 0.132297
H8    H     H_    0.018466 0.745688 0.386960 0.085722
H9    H     H_    0.983151 0.613602 0.353446 0.114830
H10   H     H_    0.833472 0.596136 0.477906 0.114570
H11   H     H_    0.764394 0.467046 0.487082 0.134966
H12   H     H_    0.837108 0.248510 0.478462 0.129463
H13   H     H_    0.991280 0.270092 0.358686 0.114564
H14   H     H_    0.002295 0.358389 0.296173 0.125374
H15   H     H_    0.404360 0.126440 0.650210 0.126990
H16   H     H_    0.266631 0.855234 0.520054 0.115623
H17   H     H_    0.336706 0.776126 0.490796 0.128848
H18   H     H_    0.460981 0.777471 0.476282 0.129967
H19   H     H_    0.596786 0.861371 0.484006 0.131343
H20   H     H_    0.859835 0.810539 0.236921 0.090700
H21   H     H_    0.756332 0.122483 0.652954 0.119893
H22   H     H_    0.694037 0.197056 0.711953 0.136678
H23   H     H_    0.735393 0.710769 0.128624 0.111054
H24   H     H_    0.607178 0.789699 0.255529 0.113553
H25   H     H_    0.404815 0.591464 0.998616 0.136860
H26   H     H_    0.492842 0.505646 0.865440 0.122224
H27   H     H_    0.610128 0.648119 0.010791 0.114676
H28   H     H_    0.396133 0.355432 0.778249 0.140906
H29   H     H_    0.904352 0.199945 0.542579 0.091309
H30   H     H_    0.282786 0.551229 0.848703 0.145351
H31   H     H_    0.480839 0.726406 0.135849 0.118327
H32   H     H_    0.982808 0.915888 0.135813 0.115010
H33   H     H_    0.188660 0.086965 0.826644 0.122829
H34   H     H_    0.969539 0.856212 0.770352 0.117490
H35   H     H_    0.180034 0.947636 0.027182 0.137869
H36   H     H_    0.262687 0.157110 0.213413 0.119241
H37   H     H_    0.260112 0.092655 0.950359 0.120353
H38   H     H_    0.213617 0.142726 0.310224 0.114585
H39   H     H_    0.708623 0.799959 0.360486 0.097427
H40   H     H_    0.031626 0.931690 0.039447 0.120773
H41   H     H_    0.040451 0.863615 0.894963 0.113368
H42   H     H_    0.053229 0.211972 0.416831 0.104493
H43   H     H_    0.850307 0.129047 0.606792 0.105640
H44   H     H_    0.998372 0.885152 0.251342 0.090426
N1    N     N_R   0.052580 0.056040 0.395500 -0.036013
N2    N     N_R   0.954640 0.834860 0.500130 -0.038253
N3    N     N_R   0.122510 0.958490 0.460420 -0.039957
N4    N     N_R   0.990180 0.030970 0.644220 -0.038083
N5    N     N_R   0.947420 0.943960 0.604500 -0.040452
N6    N     N_R   0.165270 0.045500 0.500140 -0.043301
N7    N     N_R   0.109790 0.150600 0.644220 -0.053585
N8    N     N_R   0.002890 0.838860 0.460420 -0.037489
N9    N     N_R   0.834730 0.954500 0.499860 -0.057745
N10   N     N_R   0.890210 0.849400 0.355780 -0.037167
N11   N     N_R   0.997110 0.161140 0.539580 -0.034465
N12   N     N_R   0.841950 0.845400 0.395490 -0.042649
N13   N     N_R   0.045360 0.165140 0.499870 -0.041332
N14   N     N_R   0.877490 0.041510 0.539580 -0.046673
N15   N     N_R   0.009820 0.969030 0.355780 -0.036195
N16   N     N_R   0.158050 0.154600 0.604510 -0.059722
Ni1   Ni    Ni4+2 0.104370 0.104380 0.500010 0.209773
Ni2   Ni    Ni4+2 0.895630 0.895620 0.499990 0.205431
Ni3   Ni    Ni4+2 0.006300 0.904810 0.408930 0.210494
Ni4   Ni    Ni4+2 0.993700 0.095190 0.591070 0.219291
C85   C     C_3   0.728926 0.836977 0.507410 -0.464959
C86   C     C_3   0.740090 0.841774 0.586588 -0.210918
C87   C     C_3   0.724622 0.756943 0.587860 -0.957319
H45   H     H_    0.659696 0.706126 0.544873 0.267391
H46   H     H_    0.771345 0.739668 0.575559 0.252458
H47   H     H_    0.731501 0.761967 0.645183 0.252147
H48   H     H_    0.805083 0.891415 0.630274 0.204219
H49   H     H_    0.695232 0.858740 0.602961 0.205511
H50   H     H_    0.662419 0.793999 0.464157 0.166540
H51   H     H_    0.764633 0.806291 0.488702 0.201235
C88   C     C_3   0.743085 0.321236 0.493942 -0.425648
C89   C     C_3   0.795072 0.353437 0.579585 -0.232271
C90   C     C_3   0.745007 0.301382 0.611562 -0.949989
H52   H     H_    0.685804 0.305003 0.602712 0.266744
H53   H     H_    0.728986 0.233868 0.583241 0.266048
H54   H     H_    0.783615 0.326764 0.673684 0.244166
H55   H     H_    0.854384 0.349650 0.590382 0.196714
H56   H     H_    0.812592 0.421091 0.610339 0.196627
H57   H     H_    0.687677 0.332055 0.485502 0.185888
H58   H     H_    0.716182 0.251415 0.462908 0.189037
C91   C     C_3   0.011044 0.500665 0.276740 -0.423269
C92   C     C_3   0.038522 0.449381 0.225773 -0.250260
C93   C     C_3   0.071682 0.493788 0.180760 -0.933790
H59   H     H_    0.021359 0.499982 0.142613 0.260892
H60   H     H_    0.126892 0.557912 0.220224 0.261499
H61   H     H_    0.091874 0.455856 0.145245 0.250229
H62   H     H_    0.089985 0.442549 0.261592 0.194175
H63   H     H_    0.983860 0.385310 0.184762 0.201448
H64   H     H_    0.965544 0.512989 0.239809 0.191515
H65   H     H_    0.067782 0.562635 0.319431 0.182008
C94   C     C_3   0.570737 0.227325 0.730752 -0.429383
C95   C     C_3   0.555717 0.229191 0.801173 -0.232163
C96   C     C_3   0.564303 0.314464 0.847026 -0.943352
H66   H     H_    0.552527 0.313864 0.897231 0.253873
H67   H     H_    0.629045 0.366721 0.867445 0.262009
H68   H     H_    0.517495 0.326348 0.811352 0.255581
H69   H     H_    0.602755 0.218456 0.838155 0.199411
H70   H     H_    0.491538 0.178103 0.784065 0.199383
H71   H     H_    0.635595 0.279272 0.750564 0.188551
H72   H     H_    0.527260 0.241982 0.694561 0.179654
O1    O     O_3   0.163124 0.389975 0.748391 -0.621002
C97   C     C_3   0.132568 0.409349 0.803100 -0.306051
H73   H     H_    0.143426 0.475515 0.822158 0.155383
H74   H     H_    0.160495 0.398553 0.852856 0.125486
H75   H     H_    0.063217 0.366602 0.775869 0.173304
C98   C     C_3   0.516767 0.687337 0.910656 -0.412430
C99   C     C_3   0.471957 0.707847 0.849231 -0.237781
C100  C     C_3   0.535554 0.772897 0.835927 -0.921364
H76   H     H_    0.577308 0.833220 0.889174 0.261784
H77   H     H_    0.574841 0.747933 0.816806 0.260930
H78   H     H_    0.501292 0.786223 0.791080 0.253211
H79   H     H_    0.429872 0.649042 0.794597 0.202726
H80   H     H_    0.432585 0.733698 0.867151 0.199072
H81   H     H_    0.560258 0.747577 0.963813 0.201419
H82   H     H_    0.555156 0.660452 0.892127 0.173890
C101  C     C_3   0.163453 0.129989 0.039226 -0.389680
C102  C     C_3   0.143134 0.187901 0.092518 -0.258492
C103  C     C_3   0.129747 0.250717 0.064179 -0.946460
H83   H     H_    0.187523 0.291361 0.061381 0.262695
H84   H     H_    0.075493 0.216232 0.006706 0.262989
H85   H     H_    0.115982 0.292121 0.104022 0.252845
H86   H     H_    0.084634 0.148987 0.095438 0.209638
H87   H     H_    0.196311 0.224775 0.150682 0.199164
H88   H     H_    0.223794 0.170543 0.039940 0.184135
H89   H     H_    0.111951 0.099719 0.980649 0.205607
C104  C     C_3   0.276468 0.272137 0.605092 -0.473842
C105  C     C_3   0.259783 0.342641 0.593462 -0.184468
C106  C     C_3   0.290647 0.365996 0.537392 -0.963489
H90   H     H_    0.359411 0.387441 0.558258 0.268268
H91   H     H_    0.255619 0.310465 0.480361 0.253974
H92   H     H_    0.279597 0.418360 0.531638 0.255412
H93   H     H_    0.191122 0.321736 0.571371 0.210713
H94   H     H_    0.293277 0.400621 0.648440 0.203384
H95   H     H_    0.345143 0.297847 0.639117 0.177418
H96   H     H_    0.256922 0.222377 0.548150 0.199514

loop_
_geom_bond_atom_site_label_1
_geom_bond_atom_site_label_2
_ccdc_geom_bond_type
C93   H59   S    
C75   C76   A    
C40   C41   A    
C97   H73   S    
C54   O1    S    
N2    Ni2   S    
C58   H26   S    
C73   C74   A    
C23   N10   A    
C3    C23   A    
C19   C20   A    
C61   C68   A    
C106  H92   S    
C6    N2    A    
N3    N6    A    
C2    C12   A    
C90   H52   S    
C53   C59   A    
C92   H63   S    
C102  C103  S    
C45   H39   S    
C34   H29   S    
C15   C19   S    
C93   H60   S    
C25   H11   S    
C10   N6    A    
C26   C27   A    
C37   C38   A    
C18   C24   A    
C28   C29   A    
C106  H91   S    
C65   C98   S    
C11   N7    A    
C38   C39   A    
C11   C14   A    
C103  H84   S    
C94   H71   S    
C92   C93   S    
C102  H87   S    
C44   C50   A    
C98   H81   S    
C34   N11   A    
C88   H58   S    
C18   C19   A    
C91   C92   S    
C87   H47   S    
C41   C49   A    
C21   C25   A    
C104  H95   S    
C97   H75   S    
C59   H28   S    
C6    C15   A    
C54   C55   A    
C48   H22   S    
C3    C68   S    
N4    N5    A    
C8    N4    A    
C87   H45   S    
N3    Ni3   S    
C70   C71   A    
C56   H42   S    
C39   C42   A    
C75   C80   A    
C7    N3    A    
C72   C81   S    
N13   Ni1   S    
C16   C37   S    
C63   H31   S    
C96   H67   S    
C98   C99   S    
C79   H41   S    
C78   H44   S    
C50   H19   S    
C66   H25   S    
C73   H36   S    
C22   C28   A    
C21   C22   A    
C4    C56   A    
C35   H13   S    
C36   C41   A    
C69   C70   A    
N2    N8    A    
C82   H35   S    
C100  H78   S    
C105  H94   S    
C76   C83   A    
C91   H64   S    
C90   H53   S    
C44   C46   A    
C60   C64   A    
C81   C82   D    
C81   C101  S    
C8    H4    S    
C92   H62   S    
C77   C79   A    
C1    H1    S    
C93   H61   S    
C4    C34   A    
N11   Ni4   S    
N9    N14   A    
C4    C33   S    
C63   C64   A    
C51   C52   A    
N4    Ni4   S    
C47   C48   A    
N14   Ni4   S    
C71   H40   S    
C69   C74   A    
C106  H90   S    
C38   H16   S    
C2    C67   A    
C104  H96   S    
N12   Ni2   S    
C39   C40   A    
C103  H83   S    
C100  H76   S    
C5    N16   A    
C94   H72   S    
C31   C91   S    
C70   H32   S    
C58   C59   A    
C96   H66   S    
C101  H89   S    
C3    C45   A    
C45   N12   A    
C94   C95   S    
C60   C61   A    
C1    C84   A    
C64   C66   S    
N15   Ni3   S    
C43   C44   A    
C29   C30   A    
C67   H43   S    
N9    Ni2   S    
C88   C89   S    
N10   Ni3   S    
C101  H88   S    
C62   C63   A    
C50   C51   A    
C26   C88   S    
C89   H55   S    
C20   C21   A    
C5    C14   A    
C95   H70   S    
N1    N15   A    
C56   N13   A    
C100  H77   S    
N7    N16   A    
C32   H12   S    
C52   H21   S    
C77   H34   S    
C89   H56   S    
C86   H48   S    
C55   C57   A    
C13   H8    S    
C13   N8    A    
C22   C24   A    
C79   C80   A    
C42   C43   A    
C40   C46   A    
C9    H5    S    
N10   N12   A    
C42   H17   S    
C62   H24   S    
C91   H65   S    
C90   H54   S    
C95   C96   S    
C99   H79   S    
C85   H51   S    
C96   H68   S    
C9    C17   A    
N6    Ni1   S    
C20   H10   S    
C46   C47   A    
C36   C37   A    
C97   H74   S    
C98   H82   S    
C74   H38   S    
C27   C32   A    
C75   H37   S    
N1    Ni1   S    
C12   C85   S    
C7    C16   A    
C76   H33   S    
C57   C65   S    
C72   C73   A    
C53   C54   A    
C47   C52   A    
C99   H80   S    
C55   H30   S    
C30   H14   S    
C29   C35   A    
C1    N1    A    
C8    C17   A    
C6    H2    S    
C62   C68   A    
N16   Ni1   S    
C89   C90   S    
C13   C15   A    
C25   C26   A    
C24   C31   A    
C71   C72   A    
C65   C66   D    
C69   C84   S    
C10   C16   A    
C85   C86   S    
C32   C33   A    
N11   N13   A    
C103  H85   S    
C57   C58   A    
C30   C31   A    
C102  H86   S    
C48   C49   A    
C5    C104  S    
C104  C105  S    
C105  H93   S    
C33   C35   A    
C80   C82   S    
C88   H57   S    
C36   H15   S    
C87   H46   S    
C23   H20   S    
O1    C97   S    
C61   H23   S    
C78   C84   A    
C43   H18   S    
N8    Ni3   S    
C95   H69   S    
C99   C100  S    
C11   H7    S    
C105  C106  S    
C14   C53   S    
C7    H3    S    
C101  C102  S    
C10   H6    S    
N7    Ni4   S    
C27   C28   A    
C60   H27   S    
C18   H9    S    
C77   C83   A    
C12   N9    A    
C86   H49   S    
N5    Ni2   S    
C17   C83   S    
C78   N15   A    
C67   N14   A    
C85   H50   S    
C9    N5    A    
C86   C87   S    
C49   C94   S    
C2    C51   S    
