data_mof_unit_27179.cif
_audit_creation_date              2012-12-10T20:52:11-0500
_audit_creation_method            fapswitch 2.2
_symmetry_space_group_name_H-M    P1
_symmetry_Int_Tables_number       1
_space_group_crystal_system       triclinic
_cell_length_a                    10.800207
_cell_length_b                    8.908425
_cell_length_c                    8.208749
_cell_angle_alpha                 90.057772
_cell_angle_beta                  91.085702
_cell_angle_gamma                 90.040351
_cell_volume                      789.644608014

loop_
_atom_site_label
_atom_site_type_symbol
_atom_type_description
_atom_site_fract_x
_atom_site_fract_y
_atom_site_fract_z
_atom_type_partial_charge
C1    C     C_R   0.500007 0.218473 0.499927 0.931035
C2    C     C_R   0.739731 0.497766 0.501605 0.872846
C3    C     C_R   0.228931 0.519434 0.968643 -0.129817
C4    C     C_R   0.765550 0.096056 0.830054 -0.158774
C5    C     C_R   0.151627 0.571422 0.089430 0.025066
C6    C     C_R   0.824574 0.182997 0.712355 0.042411
C7    C     C_R   0.102668 0.467683 0.198409 0.068417
C8    C     C_R   0.874999 0.324450 0.755635 0.088250
C9    C     C_R   0.120500 0.312669 0.175902 -0.132312
C10   C     C_R   0.866298 0.375202 0.916793 -0.134589
C11   C     C_R   0.197158 0.261701 0.054284 -0.152649
C12   C     C_R   0.500107 0.781549 0.500085 0.945549
C13   C     C_R   0.807917 0.286937 0.033319 -0.123431
C14   C     C_R   0.255201 0.365068 0.955100 -0.136899
C15   C     C_R   0.757274 0.148045 0.989987 -0.104823
C16   C     C_R   0.931506 0.537268 0.365139 -0.253595
C17   C     C_R   0.064237 0.422143 0.630269 -0.251536
C18   C     C_1   0.132403 0.730800 0.108766 0.132116
C19   C     C_1   0.833699 0.124635 0.548826 0.101211
C20   C     C_R   0.871140 0.490046 0.504196 -0.076659
C21   C     C_R   0.124997 0.481070 0.496489 -0.087611
C22   C     C_R   0.936479 0.419847 0.632990 0.014516
C23   C     C_R   0.056325 0.515236 0.355294 0.029778
C24   C     C_1   0.500078 0.065371 0.499929 -0.193561
C25   C     C_1   0.500151 0.934691 0.500112 -0.199230
C26   C     C_R   0.259103 0.492058 0.498771 0.866153
H1    H     H_    0.317234 0.323311 0.864044 0.180003
H2    H     H_    0.114831 0.362767 0.722328 0.170889
H3    H     H_    0.711795 0.080415 0.080593 0.155555
H4    H     H_    0.272600 0.600855 0.891292 0.174813
H5    H     H_    0.726226 0.987741 0.798180 0.143962
H6    H     H_    0.081808 0.232332 0.260011 0.154657
H7    H     H_    0.903780 0.483577 0.951465 0.134068
H8    H     H_    0.215101 0.142960 0.040495 0.161144
H9    H     H_    0.801808 0.325791 0.157493 0.164928
H10   H     H_    0.880490 0.574038 0.257280 0.161642
N1    N     N_1   0.500020 0.500030 0.073640 -0.037337
N2    N     N_1   0.499980 0.499970 0.926360 -0.063864
N3    N     N_1   0.116722 0.858422 0.124530 -0.216588
N4    N     N_1   0.841061 0.077901 0.417785 -0.220475
O1    O     O_R   0.499990 0.285340 0.636850 -0.628967
O2    O     O_R   0.500010 0.714660 0.363150 -0.610301
O3    O     O_R   0.500010 0.285350 0.363100 -0.613083
O4    O     O_R   0.499990 0.714650 0.636900 -0.621880
O5    O     O_R   0.316750 0.500000 0.636870 -0.660128
O6    O     O_R   0.683250 0.500000 0.363130 -0.639459
O7    O     O_R   0.316770 0.500020 0.363120 -0.600555
O8    O     O_R   0.683230 0.499980 0.636880 -0.610819
Zn1   Zn    Zn3+2 0.499990 0.499990 0.682780 0.955729
Zn2   Zn    Zn3+2 0.500010 0.500010 0.317220 0.984204

loop_
_geom_bond_atom_site_label_1
_geom_bond_atom_site_label_2
_ccdc_geom_bond_type
O4    Zn1   S    
C3    H4    S    
C8    C22   S    
C18   N3    T    
O3    Zn2   S    
C13   H9    S    
N1    N2    T    
N1    Zn2   S    
C14   H1    S    
O7    Zn2   S    
O6    Zn2   S    
C17   C22   A    
C9    H6    S    
O5    Zn1   S    
C12   C25   S    
C16   C20   A    
C4    C15   A    
C21   C23   A    
C12   O4    A    
N2    Zn1   S    
C2    O6    A    
C6    C19   S    
C9    C11   A    
C3    C14   A    
C26   O7    A    
O2    Zn2   S    
C7    C23   S    
C6    C8    A    
O1    Zn1   S    
O8    Zn1   S    
C21   C26   S    
C20   C22   A    
C15   H3    S    
C16   C23   A    
C5    C7    A    
C13   C15   A    
C8    C10   A    
C11   C14   A    
C17   C21   A    
C4    H5    S    
C19   N4    T    
C2    C20   S    
C24   C25   T    
C1    C24   S    
C4    C6    A    
C10   H7    S    
C1    O1    A    
C7    C9    A    
C12   O2    A    
C5    C18   S    
C26   O5    A    
C2    O8    A    
C17   H2    S    
C1    O3    A    
C11   H8    S    
C16   H10   S    
C3    C5    A    
C10   C13   A    
