data_mof_unit_51625.cif
_audit_creation_date              2013-03-05T15:44:32-0500
_audit_creation_method            fapswitch 2.2
_symmetry_space_group_name_H-M    P1
_symmetry_Int_Tables_number       1
_space_group_crystal_system       triclinic
_cell_length_a                    27.796885
_cell_length_b                    10.962847
_cell_length_c                    9.728711
_cell_angle_alpha                 86.047847
_cell_angle_beta                  89.67552
_cell_angle_gamma                 90.530452
_cell_volume                      2957.42341719

loop_
_atom_site_label
_atom_site_type_symbol
_atom_site_description
_atom_site_fract_x
_atom_site_fract_y
_atom_site_fract_z
_atom_type_partial_charge
O1    O     O_R   0.500010 0.321960 0.617040 -0.581390
O2    O     O_R   0.499990 0.321920 0.382900 -0.493928
C1    C     C_R   0.498630 0.264998 0.505259 0.831232
O3    O     O_R   0.430270 0.500040 0.617060 -0.520804
O4    O     O_R   0.430260 0.500000 0.382910 -0.481643
C2    C     C_R   0.407177 0.499002 0.500383 0.931518
Cu1   Cu    Cu3+1 0.500010 0.500020 0.638630 1.068430
Cu2   Cu    Cu3+1 0.499990 0.499980 0.361370 1.123388
O5    O     O_R   0.500010 0.678080 0.617100 -0.593268
O6    O     O_R   0.499990 0.678040 0.382960 -0.564666
O7    O     O_R   0.569740 0.500000 0.617090 -0.527340
O8    O     O_R   0.569730 0.499960 0.382940 -0.562614
C3    C     C_R   0.499805 0.734093 0.494702 0.778815
C4    C     C_R   0.592466 0.500339 0.499605 0.900550
C5    C     C_R   0.176114 0.397127 0.465232 0.617829
O9    O     O_2   0.201234 0.293917 0.451330 -0.423345
N1    N     N_R   0.200273 0.501603 0.491729 -0.455092
C6    C     C_R   0.177168 0.609593 0.504581 0.647864
C7    C     C_R   0.277796 0.518641 0.376219 -0.212306
C8    C     C_R   0.328101 0.515819 0.374727 0.337730
C9    C     C_R   0.327036 0.482049 0.626383 0.293882
C10   C     C_R   0.275932 0.477350 0.624763 -0.083832
C11   C     C_R   0.251855 0.499825 0.498694 0.198287
C12   C     C_R   0.100760 0.507868 0.467660 -0.114016
C13   C     C_R   0.125650 0.397204 0.452725 -0.069855
C14   C     C_R   0.099536 0.289811 0.427726 0.437537
C15   C     C_R   0.126516 0.616652 0.490721 -0.084037
C16   C     C_R   0.353391 0.498162 0.500590 -0.140312
C17   C     C_R   0.645585 0.500981 0.498414 -0.145642
C18   C     C_R   0.973677 0.412019 0.402477 0.011738
C19   C     C_R   0.974537 0.602685 0.520407 0.076661
C20   C     C_R   0.948700 0.506255 0.463669 -0.053316
C21   C     C_R   0.947412 0.329121 0.324710 0.288477
C22   C     C_R   0.896407 0.334099 0.320480 0.356225
C23   C     C_R   0.871629 0.415412 0.401741 -0.109724
C24   C     C_R   0.897947 0.502799 0.471237 -0.130349
C25   C     C_R   0.873511 0.587576 0.548095 -0.040756
C26   C     C_R   0.823140 0.583871 0.554669 0.630863
N2    N     N_R   0.798086 0.499104 0.486779 -0.442945
C27   C     C_R   0.820862 0.415713 0.411614 0.654682
C28   C     C_R   0.722090 0.439366 0.604342 0.367671
C29   C     C_R   0.670996 0.435975 0.605103 0.216811
C30   C     C_R   0.670842 0.563938 0.388618 0.337559
C31   C     C_R   0.721212 0.560505 0.385758 -0.286822
C32   C     C_R   0.746528 0.498914 0.492190 0.237249
O10   O     O_2   0.794235 0.333051 0.348139 -0.433729
C33   C     C_R   0.024251 0.404548 0.423224 0.052144
C34   C     C_R   0.049954 0.509244 0.460532 0.033225
C35   C     C_R   0.024697 0.614781 0.492375 0.024421
C36   C     C_R   0.049414 0.294708 0.414623 -0.196611
H1    H     H_    0.030261 0.209513 0.406061 0.202534
O11   O     O_2   0.203520 0.708474 0.533317 -0.474028
C37   C     C_R   0.100992 0.728444 0.495020 -0.104974
H2    H     H_    0.258223 0.534410 0.280721 0.162560
C38   C     C_R   0.950087 0.678638 0.609514 0.407825
C39   C     C_R   0.899756 0.672152 0.619659 -0.214867
O12   O     O_2   0.799254 0.664626 0.627723 -0.507452
C40   C     C_R   0.050031 0.727958 0.491503 -0.025870
H3    H     H_    0.881248 0.732556 0.685445 0.186649
H4    H     H_    0.741112 0.607377 0.301483 0.173710
C41   C     C_2   0.464642 0.935379 0.445951 -0.150395
C42   C     C_2   0.503789 0.866029 0.476050 0.216370
C43   C     C_2   0.470693 0.069711 0.426156 0.399329
C44   C     C_2   0.492290 0.132330 0.524028 -0.186464
C45   C     C_2   0.479098 0.415752 0.931033 -0.016387
N3    N     N_2   0.499480 0.498660 0.846910 -0.286382
H5    H     H_    0.503914 0.584108 0.882762 0.251788
C46   C     C_2   0.470829 0.433808 0.082621 0.617699
N4    N     N_2   0.499460 0.498630 0.153040 -0.043822
O13   O     O_3   0.351918 0.472165 0.749167 -0.647161
H6    H     H_    0.331725 0.503037 0.823145 0.338921
C47   C     C_2   0.126990 0.847016 0.493702 0.975891
O14   O     O_2   0.146142 0.889747 0.387392 -0.531788
O15   O     O_R   0.130006 0.908320 0.614684 -0.666185
H7    H     H_    0.149375 0.987110 0.601838 0.380246
O16   O     O_3   0.976077 0.750523 0.694467 -0.700290
H8    H     H_    0.953642 0.796443 0.750867 0.342796
O17   O     O_3   0.645708 0.629341 0.286381 -0.699860
H9    H     H_    0.668765 0.667806 0.217922 0.348572
C48   C     C_2   0.023584 0.844911 0.461587 0.892149
O18   O     O_2   0.033723 0.936038 0.521600 -0.566531
O19   O     O_R   0.986374 0.849384 0.365239 -0.752013
H10   H     H_    0.970812 0.932746 0.354329 0.338781
C49   C     C_2   0.414839 0.885693 0.434816 0.809401
O20   O     O_2   0.380683 0.948646 0.464535 -0.512784
O21   O     O_R   0.406490 0.770883 0.385431 -0.754390
H11   H     H_    0.370912 0.751482 0.378638 0.350656
O22   O     O_3   0.549156 0.919652 0.472643 -0.709614
H12   H     H_    0.573322 0.855135 0.494081 0.336403
O23   O     O_3   0.453150 0.131424 0.308265 -0.645124
H13   H     H_    0.440979 0.070544 0.245800 0.350307
C50   C     C_2   0.247886 0.442067 0.752357 0.877156
O24   O     O_2   0.262095 0.359525 0.832554 -0.533821
O25   O     O_R   0.205087 0.501735 0.780497 -0.733862
H14   H     H_    0.189333 0.468574 0.869791 0.349288
C51   C     C_2   0.505117 0.073354 0.662059 0.884247
O26   O     O_2   0.542681 0.101876 0.716938 -0.499703
O27   O     O_R   0.473979 0.987715 0.729772 -0.757619
H15   H     H_    0.486851 0.954721 0.822146 0.364122
C52   C     C_2   0.463157 0.297431 0.883147 0.894339
O28   O     O_2   0.480743 0.203235 0.934216 -0.550696
O29   O     O_R   0.425124 0.292142 0.790576 -0.694031
H16   H     H_    0.416317 0.205310 0.770215 0.347094
O30   O     O_3   0.432727 0.375512 0.152179 -0.642180
H17   H     H_    0.410031 0.344534 0.084378 0.321516
O31   O     O_3   0.540389 0.538437 0.090411 -0.658470
H18   H     H_    0.556050 0.591176 0.155642 0.398222
O32   O     O_3   0.123251 0.180536 0.416941 -0.638341
H19   H     H_    0.099868 0.115983 0.394978 0.352673
O33   O     O_3   0.645122 0.366538 0.704376 -0.665092
H20   H     H_    0.665024 0.296899 0.739595 0.356940
O34   O     O_3   0.749196 0.386692 0.710680 -0.688517
H21   H     H_    0.730097 0.385430 0.796985 0.349365
O35   O     O_3   0.870385 0.262633 0.235256 -0.654384
H22   H     H_    0.889585 0.251173 0.151145 0.346620
O36   O     O_3   0.971947 0.251308 0.244073 -0.728785
H23   H     H_    0.953495 0.173558 0.243445 0.334917
O37   O     O_3   0.352956 0.533497 0.251341 -0.660561
H24   H     H_    0.329872 0.544072 0.174165 0.336908

loop_
_geom_bond_atom_site_label_1
_geom_bond_atom_site_label_2
_geom_bond_distance
_ccdc_geom_bond_type
C38   C39   1.402760 A    
C37   C40   1.417150 A    
C17   C29   1.414138 A    
C28   C29   1.420346 A    
C7    C8    1.398980 A    
C12   C15   1.417054 A    
C8    O37   1.382704 S    
O35   H22   0.990307 S    
C6    O11   1.348785 S    
Cu1   Cu2   2.697416 S    
C1    C44   1.462193 S    
O36   H23   0.991111 S    
C30   O17   1.382157 S    
Cu1   O7    1.948393 S    
Cu2   N4    2.027992 S    
N1    C11   1.436054 S    
C20   C24   1.412289 A    
C24   C25   1.409246 A    
C49   O21   1.395747 S    
C14   C36   1.400971 A    
C26   N2    1.364788 A    
O7    C4    1.302565 A    
C5    C13   1.408704 A    
O31   H18   0.987706 S    
C5    O9    1.349348 S    
O32   H19   0.991373 S    
N1    C6    1.365015 A    
C22   C23   1.412916 A    
C41   C43   1.479887 S    
O5    C3    1.301687 A    
O33   H20   0.990056 S    
O34   H21   0.990074 S    
O37   H24   0.991844 S    
C25   C39   1.399592 A    
C49   O20   1.223877 D    
C2    C16   1.495021 S    
C3    C42   1.448408 S    
C23   C24   1.411377 A    
C46   N4    1.292485 D    
C28   O34   1.380567 S    
C51   O27   1.399212 S    
O13   H6    0.990002 S    
C41   C42   1.355026 D    
C40   C48   1.495806 S    
N2    C32   1.433797 S    
N3    H5    1.028465 S    
C9    C10   1.421194 A    
C17   C30   1.411097 A    
O29   H16   1.013692 S    
C19   C35   1.422439 A    
O3    Cu1   1.951064 S    
C50   O25   1.397709 S    
O30   H17   0.989974 S    
C21   C22   1.420072 A    
C33   C36   1.405361 A    
O15   H7    1.013562 S    
C12   C34   1.414503 A    
C33   C34   1.415887 A    
C18   C33   1.423669 A    
C12   C13   1.417871 A    
C44   C51   1.496140 S    
C48   O19   1.398727 S    
C14   O32   1.382692 S    
N2    C27   1.367100 A    
O21   H11   1.013139 S    
C47   O14   1.222673 D    
C8    C16   1.417950 A    
C13   C14   1.413439 A    
C42   O22   1.385658 S    
O6    C3    1.285113 A    
C35   C40   1.420461 A    
O1    C1    1.291392 A    
C7    C11   1.391356 A    
C30   C31   1.401134 A    
C25   C26   1.401332 A    
C26   O12   1.349815 S    
C19   C20   1.417358 A    
Cu2   O8    1.951059 S    
C45   C46   1.517944 S    
C51   O26   1.223278 D    
C52   O29   1.396049 S    
C36   H1    1.079218 S    
O16   H8    0.991665 S    
C38   O16   1.382764 S    
C7    H2    1.083703 S    
C47   O15   1.397548 S    
C34   C35   1.410483 A    
C9    C16   1.422408 A    
O8    C4    1.302456 A    
C45   N3    1.303677 D    
O3    C2    1.307883 A    
C27   O10   1.349179 S    
C4    C17   1.476465 S    
C31   C32   1.394258 A    
Cu1   O5    1.948844 S    
C21   O36   1.380286 S    
C10   C50   1.488466 S    
C18   C21   1.421291 A    
O1    Cu1   1.977654 S    
O2    Cu2   1.948844 S    
C6    C15   1.417491 A    
C46   O30   1.381258 S    
C45   C52   1.473403 S    
C48   O18   1.222858 D    
C41   C49   1.490227 S    
O4    Cu2   1.948395 S    
N4    O31   1.342523 S    
C15   C37   1.424756 A    
C5    N1    1.362958 A    
C22   O35   1.382135 S    
C39   H3    1.083423 S    
C9    O13   1.381993 S    
C19   C38   1.417756 A    
O2    C1    1.305576 A    
C29   O33   1.382092 S    
Cu1   N3    2.025291 S    
C18   C20   1.413179 A    
O17   H9    0.991769 S    
O23   H13   0.991596 S    
O4    C2    1.306824 A    
C31   H4    1.083417 S    
C43   O23   1.384350 S    
C50   O24   1.223255 D    
C23   C27   1.413942 A    
O25   H14   1.013815 S    
C43   C44   1.351746 D    
O22   H12   0.992495 S    
Cu2   O6    1.977654 S    
O27   H15   1.013767 S    
C28   C32   1.401192 A    
C10   C11   1.408412 A    
C52   O28   1.222111 D    
O19   H10   1.013926 S    
C37   C47   1.480641 S    
