data_mof_unit_47042.cif
_audit_creation_date              2012-12-10T17:48:19-0500
_audit_creation_method            fapswitch 2.2
_symmetry_space_group_name_H-M    P1
_symmetry_Int_Tables_number       1
_space_group_crystal_system       triclinic
_cell_length_a                    13.898481
_cell_length_b                    14.71983
_cell_length_c                    14.699004
_cell_angle_alpha                 114.811668
_cell_angle_beta                  106.078239
_cell_angle_gamma                 72.352946
_cell_volume                      2561.8655963

loop_
_atom_site_label
_atom_site_type_symbol
_atom_type_description
_atom_site_fract_x
_atom_site_fract_y
_atom_site_fract_z
_atom_type_partial_charge
C1    C     C_R   0.517079 0.118387 0.688160 0.808830
C2    C     C_R   0.482920 0.881639 0.311840 0.807973
C3    C     C_R   0.514319 0.358915 0.923603 0.007488
C4    C     C_R   0.483566 0.641922 0.075667 0.031147
C5    C     C_R   0.536563 0.318402 0.001712 0.151778
C6    C     C_R   0.461770 0.682653 0.997547 0.105494
C7    C     C_R   0.493903 0.466986 0.948135 0.050203
C8    C     C_R   0.503624 0.533856 0.051240 0.056703
C9    C     C_R   0.535718 0.490546 0.127215 -0.297572
C10   C     C_R   0.461605 0.510208 0.872248 -0.258332
C11   C     C_R   0.549447 0.385912 0.104067 0.139067
C12   C     C_R   0.448211 0.614730 0.895088 0.115603
C13   C     C_R   0.332573 0.294694 0.325649 -0.277649
C14   C     C_R   0.666909 0.706045 0.675109 -0.297701
C15   C     C_R   0.358779 0.212113 0.356959 0.054943
C16   C     C_R   0.641032 0.788189 0.643223 0.060933
C17   C     C_R   0.485266 0.286758 0.491012 0.028303
C18   C     C_R   0.514753 0.713219 0.509231 0.028083
C19   C     C_R   0.461650 0.374296 0.463889 -0.055982
C20   C     C_R   0.537890 0.626206 0.537105 -0.050838
C21   C     C_R   0.383852 0.376197 0.378115 0.165748
C22   C     C_R   0.615319 0.624668 0.623260 0.147069
C23   C     C_R   0.686872 0.986732 0.503781 0.823302
C24   C     C_R   0.313128 0.013263 0.496213 0.823632
C25   C     C_R   0.512857 0.458451 0.517674 0.042445
C26   C     C_R   0.486555 0.542232 0.483561 0.047139
C27   C     C_R   0.409935 0.539305 0.396817 -0.289826
C28   C     C_R   0.588906 0.461704 0.604874 -0.269897
C29   C     C_R   0.358918 0.458572 0.345176 0.139948
C30   C     C_R   0.639882 0.542729 0.657081 0.151510
C31   C     C_1   0.208051 0.021558 0.494958 -0.170847
C32   C     C_1   0.791948 0.978416 0.505010 -0.170255
C33   C     C_2   0.013649 0.036663 0.493519 0.158775
C34   C     C_2   0.986350 0.963269 0.506401 0.159701
C35   C     C_1   0.880511 0.971005 0.505829 -0.003487
C36   C     C_1   0.119488 0.028944 0.494114 -0.003739
C37   C     C_R   0.525357 0.185110 0.796209 -0.075284
C38   C     C_R   0.474397 0.815158 0.203721 -0.110579
C39   C     C_R   0.547678 0.211182 0.974374 0.174948
C40   C     C_R   0.452435 0.790313 0.026063 0.162085
C41   C     C_R   0.540641 0.146277 0.871983 -0.271902
C42   C     C_R   0.460432 0.854146 0.128418 -0.185493
C43   C     C_R   0.515176 0.289693 0.822649 -0.241938
C44   C     C_R   0.482965 0.710862 0.176755 -0.241639
Cu1   Cu    Cu3+1 0.526370 0.916390 0.524860 0.942317
Cu2   Cu    Cu3+1 0.473630 0.083610 0.475140 0.944060
H1    H     H_    0.272722 0.293892 0.260121 0.176122
H2    H     H_    0.726862 0.707162 0.740599 0.168199
H3    H     H_    0.486522 0.685731 0.236713 0.154645
H4    H     H_    0.510663 0.314852 0.762450 0.152818
H5    H     H_    0.553469 0.535398 0.206895 0.148144
H6    H     H_    0.443496 0.465203 0.792660 0.146486
H7    H     H_    0.680158 0.851041 0.684119 0.128470
H8    H     H_    0.319753 0.149208 0.315798 0.129999
N1    N     N_R   0.433980 0.209250 0.437830 -0.176602
N2    N     N_R   0.566020 0.790750 0.562170 -0.176599
O1    O     O_R   0.534760 0.019630 0.662610 -0.588773
O2    O     O_R   0.465240 0.980370 0.337390 -0.589424
O3    O     O_R   0.490220 0.160840 0.620610 -0.592877
O4    O     O_R   0.509780 0.839160 0.379390 -0.590111
O5    O     O_R   0.663260 0.919400 0.523940 -0.578941
O6    O     O_R   0.336740 0.080600 0.476060 -0.578566
O7    O     O_R   0.618720 0.060610 0.481950 -0.569016
O8    O     O_R   0.381280 0.939390 0.518050 -0.570529
N3    N     N_3   0.061688 0.876602 0.520687 -0.595638
H9    H     H_    0.058169 0.874893 0.590072 0.219306
H10   H     H_    0.040966 0.810355 0.463071 0.217577
N4    N     N_3   0.938308 0.123325 0.479224 -0.591961
H11   H     H_    0.941833 0.125028 0.409838 0.220421
H12   H     H_    0.959028 0.189574 0.536836 0.221274
H13   H     H_    0.387479 0.598614 0.365795 0.136413
H14   H     H_    0.609658 0.402661 0.635960 0.130459
N5    N     N_3   0.580728 0.349183 0.186301 -0.543328
H15   H     H_    0.649731 0.370394 0.228816 0.220622
H16   H     H_    0.525401 0.385434 0.233394 0.231146
N6    N     N_3   0.416497 0.650301 0.812130 -0.627132
H17   H     H_    0.471392 0.613329 0.764583 0.230180
H18   H     H_    0.347188 0.629324 0.770393 0.228928
H19   H     H_    0.454707 0.935199 0.148835 0.173253
H20   H     H_    0.547898 0.065071 0.852129 0.161206
N7    N     N_3   0.564105 0.167105 0.049253 -0.546671
H21   H     H_    0.504195 0.130446 0.032697 0.222194
H22   H     H_    0.632416 0.111524 0.042858 0.218723
N8    N     N_3   0.437696 0.838303 0.954766 -0.601692
H23   H     H_    0.365780 0.833643 0.908573 0.254389
H24   H     H_    0.496384 0.803033 0.911499 0.243528
N9    N     N_3   0.282040 0.460082 0.257223 -0.608246
H25   H     H_    0.225430 0.526817 0.278985 0.224722
H26   H     H_    0.315982 0.463856 0.204017 0.225431
N10   N     N_3   0.715825 0.542937 0.746532 -0.598666
H27   H     H_    0.734564 0.472010 0.754564 0.222386
H28   H     H_    0.682884 0.596618 0.809567 0.212955
H29   H     H_    0.455405 0.722540 0.447024 0.123658
H30   H     H_    0.545075 0.276920 0.552716 0.124844

loop_
_geom_bond_atom_site_label_1
_geom_bond_atom_site_label_2
_ccdc_geom_bond_type
C44   H3    S    
C7    C10   A    
N9    H25   S    
Cu1   O4    S    
Cu2   O3    S    
C27   C29   A    
N5    H15   S    
C40   N8    S    
C9    H5    S    
C4    C8    A    
C10   H6    S    
C41   H20   S    
N7    H21   S    
C7    C8    A    
C39   C41   A    
Cu1   Cu2   S    
C25   C28   A    
C3    C43   A    
C26   C27   A    
Cu2   O6    S    
C19   C21   A    
N6    H18   S    
C5    C11   A    
C3    C7    A    
C1    O3    A    
C6    C12   A    
C2    O4    A    
C33   C36   S    
C34   C35   S    
C16   H7    S    
N9    H26   S    
Cu1   N2    S    
C8    C9    A    
N3    H10   S    
Cu2   N1    S    
C17   N1    A    
C18   C20   A    
C18   N2    A    
C23   O7    A    
C42   H19   S    
C24   O8    A    
Cu2   O2    S    
N5    H16   S    
C28   H14   S    
C34   N3    S    
N7    H22   S    
C15   H8    S    
N6    H17   S    
C39   N7    S    
C4    C6    A    
C11   N5    S    
C13   H1    S    
N4    H11   S    
C14   H2    S    
C4    C44   A    
C25   C26   A    
C21   C29   A    
C15   N1    A    
C37   C43   A    
C16   N2    A    
C38   C44   A    
C1    O1    A    
C2    C38   S    
N10   H28   S    
C30   N10   S    
Cu1   O1    S    
C33   C34   D    
C13   C21   A    
N8    H23   S    
C9    C11   A    
C10   C12   A    
C20   C22   A    
C13   C15   A    
C14   C16   A    
C27   H13   S    
C5    C39   A    
C24   O6    A    
C22   C30   A    
C32   C35   T    
N8    H24   S    
C40   C42   A    
C3    C5    A    
C2    O2    A    
C43   H4    S    
C38   C42   A    
C1    C37   S    
Cu1   O8    S    
Cu2   O7    S    
C23   C32   S    
C14   C22   A    
C12   N6    S    
C24   C31   S    
C28   C30   A    
N10   H27   S    
C20   C26   A    
Cu1   O5    S    
C17   C19   A    
C6    C40   A    
C37   C41   A    
C19   C25   A    
C29   N9    S    
C23   O5    A    
N4    H12   S    
N3    H9    S    
C18   H29   S    
C31   C36   T    
C17   H30   S    
C33   N4    S    
