data_mof_unit_36447.cif
_audit_creation_date              2012-12-11T14:41:03-0500
_audit_creation_method            fapswitch 2.2
_symmetry_space_group_name_H-M    P1
_symmetry_Int_Tables_number       1
_space_group_crystal_system       triclinic
_cell_length_a                    6.932044
_cell_length_b                    17.817378
_cell_length_c                    18.856229
_cell_angle_alpha                 89.994353
_cell_angle_beta                  89.966449
_cell_angle_gamma                 90.386195
_cell_volume                      2328.89552231

loop_
_atom_site_label
_atom_site_type_symbol
_atom_type_description
_atom_site_fract_x
_atom_site_fract_y
_atom_site_fract_z
_atom_type_partial_charge
O1    O     O_R   0.377350 0.828520 0.186660 -0.540693
O2    O     O_R   0.622650 0.171480 0.813340 -0.541233
O3    O     O_R   0.122650 0.171480 0.686660 -0.538282
O4    O     O_R   0.877350 0.828520 0.313340 -0.538903
O5    O     O_R   0.877350 0.671480 0.313340 -0.540646
O6    O     O_R   0.122650 0.328520 0.686660 -0.537211
O7    O     O_R   0.622650 0.328520 0.813340 -0.540288
O8    O     O_R   0.377350 0.671480 0.186660 -0.536753
O9    O     O_R   0.707090 0.671930 0.178410 -0.527702
O10   O     O_R   0.292910 0.328070 0.821590 -0.539334
O11   O     O_R   0.792910 0.328070 0.678410 -0.528526
O12   O     O_R   0.207090 0.671930 0.321590 -0.539758
O13   O     O_R   0.207090 0.828070 0.321590 -0.545452
O14   O     O_R   0.792910 0.171930 0.678410 -0.545382
O15   O     O_R   0.292910 0.171930 0.821590 -0.540998
O16   O     O_R   0.707090 0.828070 0.178410 -0.540984
C1    C     C_R   0.539225 0.644270 0.163015 0.717991
C2    C     C_R   0.460594 0.355506 0.837355 0.731767
C3    C     C_R   0.960874 0.355682 0.662978 0.715895
C4    C     C_R   0.039297 0.644534 0.337375 0.729814
C5    C     C_R   0.040523 0.855588 0.337234 0.709668
C6    C     C_R   0.959477 0.144410 0.662769 0.711127
C7    C     C_R   0.459364 0.144392 0.837252 0.716083
C8    C     C_R   0.540636 0.855610 0.162749 0.717308
O17   O     O_3   0.543850 0.750000 0.294270 -0.373309
O18   O     O_3   0.456150 0.250000 0.705730 -0.365170
O19   O     O_3   0.956150 0.250000 0.794270 -0.370973
O20   O     O_3   0.043850 0.750000 0.205730 -0.362717
V1    V     V_3+5 0.818700 0.750000 0.241790 1.419232
V2    V     V_3+5 0.181300 0.250000 0.758210 1.405570
V3    V     V_3+5 0.681300 0.250000 0.741790 1.412941
V4    V     V_3+5 0.318700 0.750000 0.258210 1.400299
C9    C     C_R   0.962778 0.420062 0.612472 -0.143747
C10   C     C_R   0.038062 0.581110 0.389023 -0.161972
C11   C     C_R   0.537691 0.579912 0.112458 -0.144568
C12   C     C_R   0.461404 0.418910 0.889057 -0.162243
C13   C     C_R   0.456571 0.081401 0.889385 -0.156343
C14   C     C_R   0.543426 0.918604 0.110619 -0.156812
C15   C     C_R   0.042872 0.918622 0.389265 -0.160487
C16   C     C_R   0.957130 0.081372 0.610740 -0.160900
C17   C     C_R   0.184248 0.466386 0.436438 0.224420
C18   C     C_R   0.813415 0.533971 0.564414 0.197851
C19   C     C_R   0.312506 0.532725 0.937382 0.224058
C20   C     C_R   0.689900 0.466991 0.063449 0.197000
C21   C     C_R   0.705719 0.028330 0.057931 0.218846
C22   C     C_R   0.294271 0.971679 0.942076 0.218718
C23   C     C_R   0.796703 0.970910 0.559362 0.226645
C24   C     C_R   0.203308 0.029080 0.440646 0.226407
C25   C     C_R   0.171024 0.521258 0.382664 0.156499
C26   C     C_R   0.833345 0.481190 0.620206 0.172922
C27   C     C_R   0.326115 0.478078 0.883428 0.157408
C28   C     C_R   0.669434 0.519431 0.119506 0.173751
C29   C     C_R   0.690228 0.974682 0.112733 0.162734
C30   C     C_R   0.309767 0.025323 0.887273 0.162795
C31   C     C_R   0.812419 0.024666 0.613652 0.209362
C32   C     C_R   0.187587 0.975327 0.386354 0.209594
C33   C     C_R   0.916083 0.583284 0.448377 -0.233436
C34   C     C_R   0.080145 0.416642 0.551957 -0.230657
C35   C     C_R   0.585400 0.417335 0.947816 -0.231378
C36   C     C_R   0.418382 0.582811 0.052484 -0.228069
C37   C     C_R   0.410407 0.919418 0.054654 -0.232441
C38   C     C_R   0.589586 0.080589 0.945352 -0.233209
C39   C     C_R   0.088410 0.081135 0.554211 -0.252392
C40   C     C_R   0.911598 0.918856 0.445796 -0.252955
C41   C     C_R   0.930073 0.529234 0.503154 0.055751
C42   C     C_R   0.066167 0.470650 0.497326 0.043407
C43   C     C_R   0.571152 0.471199 0.002751 0.055158
C44   C     C_R   0.432653 0.528999 0.997694 0.042498
C45   C     C_R   0.425155 0.972730 0.999317 0.045570
C46   C     C_R   0.574836 0.027278 0.000689 0.045678
C47   C     C_R   0.074059 0.027689 0.498886 0.018060
C48   C     C_R   0.925950 0.972302 0.501121 0.018207
H1    H     H_    0.178480 0.369941 0.546778 0.174520
H2    H     H_    0.815784 0.629409 0.452924 0.172807
H3    H     H_    0.318249 0.628986 0.047823 0.177832
H4    H     H_    0.687523 0.371769 0.951825 0.175768
H5    H     H_    0.700668 0.123633 0.946743 0.176541
H6    H     H_    0.299325 0.876374 0.053262 0.177095
H7    H     H_    0.802534 0.875149 0.447273 0.136363
H8    H     H_    0.197474 0.124842 0.552733 0.136923
N1    N     N_3   0.720681 0.491474 0.683876 -0.665322
H9    H     H_    0.755409 0.544269 0.704557 0.223364
H10   H     H_    0.761349 0.454570 0.723968 0.226147
N2    N     N_3   0.292395 0.513967 0.321320 -0.683604
H11   H     H_    0.207732 0.518425 0.275649 0.237253
H12   H     H_    0.395762 0.556879 0.321586 0.241136
N3    N     N_3   0.784026 0.509536 0.182724 -0.664965
H13   H     H_    0.753052 0.456228 0.203028 0.222455
H14   H     H_    0.741436 0.545525 0.223300 0.225526
N4    N     N_3   0.202648 0.484928 0.822652 -0.684099
H15   H     H_    0.285885 0.480737 0.776570 0.236720
H16   H     H_    0.100072 0.441736 0.823456 0.241844
N5    N     N_3   0.176091 0.020447 0.829241 -0.676718
H17   H     H_    0.078920 0.064869 0.832370 0.244323
H18   H     H_    0.252035 0.023460 0.781378 0.233718
N6    N     N_3   0.823904 0.979557 0.170765 -0.676766
H19   H     H_    0.921074 0.935135 0.167634 0.244146
H20   H     H_    0.747960 0.976543 0.218627 0.233572
N7    N     N_3   0.319459 0.980728 0.327753 -0.621396
H21   H     H_    0.417598 0.936595 0.330401 0.235513
H22   H     H_    0.242125 0.977436 0.280239 0.221347
N8    N     N_3   0.680545 0.019267 0.672253 -0.621491
H23   H     H_    0.582407 0.063401 0.669603 0.235371
H24   H     H_    0.757879 0.022561 0.719767 0.221247
N9    N     N_3   0.321126 0.406693 0.429764 -0.675670
H25   H     H_    0.459032 0.430361 0.425137 0.253361
H26   H     H_    0.290739 0.377023 0.383213 0.254683
N10   N     N_3   0.673115 0.592663 0.569676 -0.682763
H27   H     H_    0.537800 0.568303 0.579031 0.259386
H28   H     H_    0.708741 0.627242 0.612523 0.235092
N11   N     N_3   0.173057 0.591602 0.931510 -0.671589
H29   H     H_    0.035937 0.567127 0.927518 0.253324
H30   H     H_    0.200713 0.621562 0.884880 0.255421
N12   N     N_3   0.832871 0.409206 0.067851 -0.679385
H31   H     H_    0.967399 0.434390 0.076748 0.259190
H32   H     H_    0.799930 0.374151 0.110659 0.235906
N13   N     N_3   0.857380 0.083570 0.059893 -0.675800
H33   H     H_    0.843902 0.114572 0.106687 0.259970
H34   H     H_    0.989679 0.055717 0.060996 0.252448
N14   N     N_3   0.142605 0.916440 0.940116 -0.674874
H35   H     H_    0.156081 0.885437 0.893322 0.260620
H36   H     H_    0.010310 0.944296 0.939013 0.252387
N15   N     N_3   0.645083 0.915871 0.564389 -0.625686
H37   H     H_    0.555429 0.920862 0.520077 0.224862
H38   H     H_    0.706341 0.862421 0.564974 0.228066
N16   N     N_3   0.354938 0.084115 0.435623 -0.625262
H39   H     H_    0.444587 0.079121 0.479935 0.224923
H40   H     H_    0.293689 0.137567 0.435038 0.229104

loop_
_geom_bond_atom_site_label_1
_geom_bond_atom_site_label_2
_ccdc_geom_bond_type
N3    H13   S    
C9    C34   A    
O7    C2    A    
C38   H5    S    
N11   H29   S    
O14   V3    S    
C12   C35   A    
N12   H31   S    
N15   H37   S    
O5    C4    A    
O6    C3    A    
N9    H26   S    
C31   N8    S    
O11   C3    A    
N5    H17   S    
C16   C39   A    
C17   N9    S    
C25   N2    S    
O20   V1    S    
N2    H12   S    
N13   H34   S    
C27   N4    S    
N15   H38   S    
C21   N13   S    
N10   H27   S    
C38   C46   A    
C30   N5    S    
O13   V4    S    
C35   C43   A    
C23   N15   S    
C34   C42   A    
C15   C32   A    
C19   C44   A    
C22   C45   A    
N6    H20   S    
C18   C41   A    
C8    C14   S    
O4    V1    S    
O9    V1    S    
C14   C37   A    
C4    C10   S    
C20   C28   A    
O17   V4    S    
O15   C7    A    
O11   V3    S    
O18   V3    S    
O16   C8    A    
O12   V4    S    
O19   V2    S    
C22   C30   A    
C45   C46   A    
C19   N11   S    
C17   C25   A    
N1    H10   S    
N14   H36   S    
N1    H9    S    
O5    V1    S    
C39   H8    S    
O17   V1    S    
O7    V3    S    
O19   V3    S    
C43   C44   A    
O8    V4    S    
O20   V4    S    
N2    H11   S    
C3    C9    S    
O16   V1    S    
C7    C13   S    
C24   N16   S    
O1    V4    S    
C11   C36   A    
C33   H2    S    
O3    V2    S    
C15   C40   A    
C10   C33   A    
O10   V2    S    
N4    H16   S    
N7    H21   S    
C5    C15   S    
C37   H6    S    
C16   C31   A    
C6    C16   S    
N6    H19   S    
O12   C4    A    
C22   N14   S    
N11   H30   S    
N8    H24   S    
C12   C27   A    
C18   C26   A    
C13   C30   A    
O9    C1    A    
N7    H22   S    
C39   C47   A    
O18   V2    S    
N3    H14   S    
C40   H7    S    
C24   C47   A    
O2    C7    A    
N14   H35   S    
O15   V2    S    
C23   C31   A    
C26   N1    S    
C37   C45   A    
C24   C32   A    
C10   C25   A    
N16   H40   S    
O6    V2    S    
C21   C46   A    
C28   N3    S    
C33   C41   A    
C20   C43   A    
N12   H32   S    
C17   C42   A    
N9    H25   S    
C36   H3    S    
O8    C1    A    
O14   C6    A    
C9    C26   A    
C47   C48   A    
N13   H33   S    
O13   C5    A    
O4    C5    A    
C19   C27   A    
N4    H15   S    
C14   C29   A    
C2    C12   S    
O10   C2    A    
N16   H39   S    
N10   H28   S    
C40   C48   A    
N8    H23   S    
C20   N12   S    
C23   C48   A    
C21   C29   A    
C36   C44   A    
O1    C8    A    
N5    H18   S    
C41   C42   A    
C11   C28   A    
C13   C38   A    
O2    V3    S    
O3    C6    A    
C1    C11   S    
C32   N7    S    
C18   N10   S    
C35   H4    S    
C34   H1    S    
C29   N6    S    
