data_mof_unit_34102.cif
_audit_creation_date              2012-12-10T20:46:49-0500
_audit_creation_method            fapswitch 2.2
_symmetry_space_group_name_H-M    P1
_symmetry_Int_Tables_number       1
_space_group_crystal_system       triclinic
_cell_length_a                    12.822944
_cell_length_b                    8.927855
_cell_length_c                    8.113133
_cell_angle_alpha                 90.072741
_cell_angle_beta                  97.592145
_cell_angle_gamma                 90.022892
_cell_volume                      920.659609658

loop_
_atom_site_label
_atom_site_type_symbol
_atom_type_description
_atom_site_fract_x
_atom_site_fract_y
_atom_site_fract_z
_atom_type_partial_charge
C1    C     C_R   0.500073 0.218020 0.499955 0.918668
C2    C     C_R   0.500082 0.781979 0.500082 0.925422
C3    C     C_R   0.297500 0.493273 0.466941 0.859677
C4    C     C_R   0.702168 0.501382 0.532892 0.849113
C5    C     C_R   0.813449 0.483302 0.552652 -0.160061
C6    C     C_R   0.184632 0.480724 0.442337 -0.095648
C7    C     C_R   0.022478 0.576774 0.298709 0.005836
C8    C     C_R   0.957897 0.312036 0.622999 -0.004799
C9    C     C_R   0.130050 0.558361 0.308975 -0.266829
C10   C     C_R   0.854322 0.353494 0.631086 -0.143504
C11   C     C_R   0.131268 0.396562 0.552006 -0.103764
C12   C     C_R   0.872602 0.573224 0.459428 -0.054265
C13   C     C_R   0.020763 0.406266 0.535140 0.009923
C14   C     C_R   0.971032 0.520085 0.429308 0.135519
C15   C     C_1   0.500136 0.065210 0.499947 -0.174284
C16   C     C_1   0.500147 0.934796 0.500127 -0.174927
H1    H     H_    0.802926 0.280091 0.690238 0.189227
H2    H     H_    0.172065 0.610358 0.216390 0.168919
N1    N     N_1   0.500020 0.500000 0.073640 -0.010607
N2    N     N_1   0.499980 0.500000 0.926360 -0.010293
O1    O     O_R   0.499990 0.285340 0.636850 -0.623272
O2    O     O_R   0.500010 0.714660 0.363150 -0.620082
O3    O     O_R   0.500010 0.285340 0.363150 -0.606491
O4    O     O_R   0.499990 0.714660 0.636850 -0.608028
O5    O     O_R   0.346350 0.500000 0.614250 -0.618884
O6    O     O_R   0.653650 0.500000 0.385750 -0.610396
O7    O     O_R   0.346360 0.500000 0.340500 -0.609945
O8    O     O_R   0.653640 0.500000 0.659500 -0.594575
Zn1   Zn    Zn3+2 0.499990 0.500000 0.682780 1.025947
Zn2   Zn    Zn3+2 0.500010 0.500000 0.317220 1.023723
C17   C     C_2   0.835995 0.728829 0.415055 0.496165
H3    H     H_    0.753120 0.757287 0.402884 0.062760
O9    O     O_2   0.898886 0.829252 0.400829 -0.578548
C18   C     C_2   0.192451 0.313778 0.691902 0.389570
H4    H     H_    0.259552 0.246116 0.669766 0.068307
O10   O     O_2   0.171079 0.326135 0.833607 -0.545745
C19   C     C_2   0.967005 0.643259 0.143611 0.515765
H5    H     H_    0.009777 0.713598 0.066415 0.080882
O11   O     O_2   0.874868 0.614175 0.096006 -0.556608
C20   C     C_2   0.991346 0.159590 0.681808 0.538916
H6    H     H_    0.054214 0.102231 0.630233 0.051176
O12   O     O_2   0.947535 0.094942 0.786166 -0.543964

loop_
_geom_bond_atom_site_label_1
_geom_bond_atom_site_label_2
_ccdc_geom_bond_type
C2    O2    A    
C4    O6    A    
C17   O9    D    
C1    O1    A    
C19   H5    S    
C1    C15   S    
C2    C16   S    
N1    N2    T    
C3    C6    S    
C6    C9    A    
C20   O12   D    
C7    C19   S    
C5    C10   A    
C19   O11   D    
C13   C14   A    
O7    Zn2   S    
O5    Zn1   S    
C11   C13   A    
C8    C13   A    
C3    O7    A    
C20   H6    S    
C4    O8    A    
C12   C14   A    
C1    O3    A    
C18   O10   D    
N2    Zn1   S    
C7    C14   A    
C12   C17   S    
C2    O4    A    
C10   H1    S    
C15   C16   T    
O3    Zn2   S    
C9    H2    S    
C3    O5    A    
C8    C20   S    
C5    C12   A    
C8    C10   A    
C18   H4    S    
C6    C11   A    
C7    C9    A    
O4    Zn1   S    
O8    Zn1   S    
O2    Zn2   S    
N1    Zn2   S    
O1    Zn1   S    
C11   C18   S    
C17   H3    S    
C4    C5    S    
O6    Zn2   S    
