data_mof_unit_8584.cif
_audit_creation_date              2013-03-05T16:12:12-0500
_audit_creation_method            fapswitch 2.2
_symmetry_space_group_name_H-M    P1
_symmetry_Int_Tables_number       1
_space_group_crystal_system       triclinic
_cell_length_a                    10.760465
_cell_length_b                    9.416562
_cell_length_c                    27.794868
_cell_angle_alpha                 90.048157
_cell_angle_beta                  89.842909
_cell_angle_gamma                 89.947871
_cell_volume                      2816.34632584

loop_
_atom_site_label
_atom_site_type_symbol
_atom_site_description
_atom_site_fract_x
_atom_site_fract_y
_atom_site_fract_z
_atom_type_partial_charge
O1    O     O_R   0.317570 0.620260 0.500030 -0.572125
O2    O     O_R   0.317570 0.379740 0.500030 -0.573174
C1    C     C_R   0.259923 0.500322 0.499898 0.862167
O3    O     O_R   0.499900 0.620250 0.430280 -0.616572
O4    O     O_R   0.499900 0.379750 0.430280 -0.553914
C2    C     C_R   0.501607 0.499926 0.407402 0.873421
Cu1   Cu    Cu3+1 0.499860 0.642410 0.500020 0.970197
Cu2   Cu    Cu3+1 0.499860 0.357590 0.500020 1.004099
O5    O     O_R   0.682190 0.620260 0.500010 -0.547797
O6    O     O_R   0.682190 0.379740 0.500010 -0.543503
O7    O     O_R   0.499860 0.620280 0.569750 -0.584596
O8    O     O_R   0.499860 0.379720 0.569750 -0.514648
C3    C     C_R   0.740124 0.500126 0.499808 0.972978
C4    C     C_R   0.500408 0.500179 0.592728 0.873852
C5    C     C_R   0.394262 0.522553 0.178218 0.563861
O9    O     O_2   0.287302 0.522716 0.203707 -0.517778
N1    N     N_R   0.505685 0.517698 0.201595 -0.455580
C6    C     C_R   0.615971 0.516277 0.176952 0.679828
C7    C     C_R   0.539413 0.384381 0.276572 0.364067
C8    C     C_R   0.543682 0.380613 0.327659 0.279660
C9    C     C_R   0.469412 0.625039 0.329842 -0.301406
C10   C     C_R   0.472425 0.630714 0.279905 -0.182493
C11   C     C_R   0.506950 0.511265 0.253213 0.277505
C12   C     C_R   0.502859 0.524393 0.101574 -0.128591
C13   C     C_R   0.390593 0.525666 0.127867 0.010422
C14   C     C_R   0.277155 0.530357 0.103396 -0.152159
C15   C     C_R   0.617402 0.518041 0.126086 -0.126051
C16   C     C_R   0.504013 0.500673 0.354235 -0.092277
H1    H     H_    0.439965 0.718715 0.349434 0.177342
H2    H     H_    0.446319 0.727930 0.261741 0.175113
H3    H     H_    0.189811 0.536760 0.122767 0.201067
C17   C     C_R   0.500612 0.502814 0.646070 -0.068013
C18   C     C_R   0.384895 0.497454 0.975492 0.025360
C19   C     C_R   0.603797 0.574096 0.974498 -0.014178
C20   C     C_R   0.493872 0.535487 0.949659 -0.050423
C21   C     C_R   0.282286 0.440269 0.949713 0.392500
C22   C     C_R   0.285373 0.436778 0.899173 -0.227200
C23   C     C_R   0.389123 0.485004 0.873596 -0.048054
C24   C     C_R   0.493449 0.534875 0.898770 -0.057143
C25   C     C_R   0.597874 0.583380 0.872990 -0.105462
C26   C     C_R   0.596926 0.578270 0.822516 0.575412
N2    N     N_R   0.495453 0.526571 0.798710 -0.458215
C27   C     C_R   0.392235 0.481205 0.823079 0.574117
C28   C     C_R   0.505569 0.386587 0.724342 -0.195754
C29   C     C_R   0.507678 0.377002 0.673810 0.405161
C30   C     C_R   0.493519 0.634890 0.669787 -0.271213
C31   C     C_R   0.492113 0.642589 0.719784 -0.097725
C32   C     C_R   0.497630 0.518637 0.747184 0.305182
O10   O     O_2   0.292872 0.433021 0.798457 -0.522887
C33   C     C_R   0.384761 0.515640 0.026280 0.099295
C34   C     C_R   0.499890 0.527578 0.050723 0.000721
C35   C     C_R   0.611633 0.543339 0.024507 -0.049679
C36   C     C_R   0.274187 0.525579 0.053443 -0.120684
H4    H     H_    0.510719 0.291452 0.746139 0.140433
H5    H     H_    0.206681 0.393443 0.879877 0.190265
H6    H     H_    0.184291 0.536373 0.036701 0.201518
O11   O     O_2   0.723436 0.514823 0.201842 -0.435934
C37   C     C_R   0.728838 0.506007 0.099329 0.346582
C38   C     C_R   0.700158 0.643144 0.948106 0.474488
C39   C     C_R   0.698854 0.640427 0.897987 -0.142266
O12   O     O_2   0.696997 0.623111 0.797421 -0.521026
C40   C     C_R   0.726372 0.521691 0.048516 0.284469
H7    H     H_    0.488724 0.733188 0.649726 0.171639
H8    H     H_    0.775585 0.688710 0.878701 0.210139
H9    H     H_    0.486114 0.745127 0.737316 0.154781
C41   C     C_3   0.073634 0.656356 0.498194 -0.481395
C42   C     C_3   0.073832 0.431023 0.546619 -0.488003
H10   H     H_    0.111661 0.710714 0.465827 0.154036
H11   H     H_    0.116126 0.324042 0.551034 0.209003
H12   H     H_    0.110741 0.716284 0.529603 0.234764
H13   H     H_    0.106466 0.494036 0.578074 0.200969
C43   C     C_3   0.929573 0.659581 0.499193 0.668062
C44   C     C_3   0.928708 0.423325 0.546457 0.655588
H14   H     H_    0.112633 0.469270 0.422087 0.171882
H15   H     H_    0.108933 0.308878 0.456264 0.186639
C45   C     C_3   0.073703 0.420051 0.455267 -0.545597
C46   C     C_3   0.122390 0.501528 0.499922 -0.071255
C47   C     C_3   0.878690 0.500601 0.499610 0.015074
C48   C     C_3   0.928788 0.420296 0.453526 0.611086
C49   C     C_3   0.597339 0.083532 0.533404 -0.243963
C50   C     C_3   0.597426 0.916402 0.533360 -0.241506
H16   H     H_    0.586994 0.123865 0.570588 0.207836
H17   H     H_    0.587791 0.875644 0.570569 0.158966
H18   H     H_    0.690556 0.120474 0.521588 0.228641
H19   H     H_    0.690401 0.879766 0.521266 0.225990
C51   C     C_3   0.376623 0.084285 0.515546 0.343327
C52   C     C_3   0.376678 0.915956 0.515616 0.354092
C53   C     C_3   0.527669 0.083617 0.452494 -0.277106
C54   C     C_3   0.527386 0.916053 0.452456 -0.309974
N3    N     N_3   0.500250 0.143650 0.501060 -0.182290
N4    N     N_3   0.500250 0.856350 0.501060 -0.167558
H20   H     H_    0.457424 0.121277 0.426142 0.179574
H21   H     H_    0.456742 0.878824 0.426201 0.145888
H22   H     H_    0.619376 0.122832 0.439554 0.238490
H23   H     H_    0.618692 0.876033 0.439271 0.222491
H24   H     H_    0.307425 0.116937 0.487950 0.087500
H25   H     H_    0.307408 0.883168 0.488080 0.087509
O13   O     O_3   0.563629 0.266527 0.248458 -0.706490
H26   H     H_    0.544808 0.180014 0.267334 0.328149
O14   O     O_3   0.837901 0.474117 0.123157 -0.660482
H27   H     H_    0.889980 0.412872 0.102271 0.339025
O15   O     O_3   0.790070 0.726269 0.969437 -0.687982
H28   H     H_    0.757756 0.760001 0.000859 0.328746
O16   O     O_3   0.833276 0.504324 0.021514 -0.686356
H29   H     H_    0.904191 0.544147 0.039744 0.342210
O17   O     O_3   0.891340 0.729535 0.541580 -0.677315
H30   H     H_    0.915030 0.831103 0.538478 0.335958
O18   O     O_3   0.882500 0.493519 0.587549 -0.675190
H31   H     H_    0.907785 0.437117 0.616088 0.355863
O19   O     O_3   0.880642 0.737084 0.459780 -0.725256
H32   H     H_    0.935746 0.728824 0.431314 0.344531
O20   O     O_3   0.886193 0.281150 0.548701 -0.717595
H33   H     H_    0.945994 0.216824 0.532452 0.341113
O21   O     O_3   0.886264 0.489797 0.411748 -0.736718
H34   H     H_    0.920035 0.438747 0.383302 0.333585
O22   O     O_3   0.883892 0.279503 0.452723 -0.730931
H35   H     H_    0.917499 0.231821 0.423583 0.322066
O23   O     O_3   0.332979 0.143611 0.558948 -0.684208
H36   H     H_    0.388699 0.114760 0.585342 0.349283
O24   O     O_3   0.333153 0.857121 0.559095 -0.695169
H37   H     H_    0.390617 0.882843 0.585324 0.314707
O25   O     O_3   0.517499 0.246763 0.651322 -0.746038
H38   H     H_    0.521227 0.170755 0.675956 0.317822
O26   O     O_3   0.185061 0.376454 0.974049 -0.729181
H39   H     H_    0.122357 0.341802 0.950749 0.344804
O27   O     O_3   0.589982 0.264558 0.352122 -0.742848
H40   H     H_    0.651088 0.214916 0.331371 0.336020

loop_
_geom_bond_atom_site_label_1
_geom_bond_atom_site_label_2
_geom_bond_distance
_ccdc_geom_bond_type
C37   C40   1.420489 A    
C41   H10   1.112618 S    
O27   H40   0.990169 S    
C25   C39   1.398760 A    
C52   N4    1.497375 S    
C26   N2    1.368001 A    
C53   N3    1.491650 S    
C20   C24   1.414485 A    
C7    C8    1.421305 A    
C42   C46   1.548157 S    
C12   C15   1.411172 A    
C26   O12   1.349643 S    
C49   H18   1.110864 S    
O21   H34   0.992853 S    
Cu1   Cu2   2.682024 S    
O18   H31   0.993453 S    
Cu1   O7    1.949481 S    
N1    C11   1.436143 S    
H14   C45   1.113436 S    
O4    C2    1.298644 A    
C21   C22   1.405408 A    
C21   O26   1.382429 S    
C23   C24   1.405382 A    
O7    C4    1.299303 A    
C5    C13   1.400492 A    
C14   H3    1.083484 S    
O17   H30   0.993790 S    
C5    O9    1.349859 S    
C18   C21   1.423811 A    
O22   H35   0.992909 S    
Cu1   O5    1.972822 S    
C19   C20   1.418719 A    
C17   C29   1.416163 A    
O5    C3    1.291150 A    
O19   H32   0.990377 S    
O20   H33   0.991049 S    
C43   C47   1.594532 S    
O23   H36   0.986894 S    
C41   C43   1.550603 S    
C53   H20   1.112024 S    
C44   C47   1.587249 S    
C45   C48   1.560228 S    
C42   C44   1.563365 S    
C54   N4    1.491896 S    
C12   C34   1.414191 A    
C38   C39   1.393382 A    
O1    Cu1   1.972772 S    
C48   O22   1.411655 S    
C54   H21   1.111929 S    
C43   O17   1.409526 S    
O3    Cu1   1.949438 S    
O16   H29   0.990945 S    
C50   H17   1.108050 S    
C7    O13   1.380951 S    
C33   C34   1.419052 A    
C40   O16   1.381309 S    
C43   O19   1.419062 S    
C33   C36   1.410394 A    
C6    C15   1.413967 A    
C34   C35   1.412260 A    
C37   O14   1.382041 S    
C12   C13   1.410202 A    
C49   H16   1.106096 S    
C51   N3    1.497684 S    
C24   C25   1.407753 A    
C47   C48   1.580182 S    
C27   O10   1.349722 S    
C44   O18   1.408427 S    
C8    C16   1.414920 A    
C18   C33   1.421846 A    
C9    H1    1.082958 S    
O6    C3    1.294235 A    
O1    C1    1.289041 A    
C22   H5    1.083478 S    
C54   H23   1.112992 S    
C7    C11   1.404605 A    
H15   C45   1.113461 S    
C8    O27   1.380933 S    
C22   C23   1.398241 A    
C6    O11   1.349204 S    
C31   C32   1.395531 A    
Cu2   O8    1.949133 S    
Cu1   N4    2.014771 S    
N1    C6    1.368637 A    
C51   O23   1.408253 S    
N2    C32   1.434172 S    
C45   C46   1.551245 S    
C51   H24   1.113740 S    
O3    C2    1.298898 A    
C25   C26   1.403779 A    
C9    C16   1.404183 A    
O8    C4    1.301318 A    
C19   C38   1.426142 A    
Cu2   N3    2.014812 S    
N2    C27   1.368245 A    
C1    C46   1.479947 S    
C14   C36   1.389592 A    
O24   H37   0.987378 S    
C44   O20   1.416574 S    
C36   H6    1.079322 S    
C5    N1    1.366015 A    
C41   C46   1.549851 S    
C30   C31   1.391543 A    
C10   H2    1.083010 S    
C51   C52   1.585088 S    
C38   O15   1.379862 S    
C17   C30   1.409014 A    
O2    Cu2   1.972395 S    
C28   C29   1.407474 A    
C4    C17   1.482828 S    
C49   C50   1.573788 S    
C15   C37   1.413687 A    
O4    Cu2   1.949787 S    
C29   O25   1.379867 S    
C19   C35   1.422785 A    
C30   H7    1.082268 S    
C39   H8    1.083731 S    
O2    C1    1.293382 A    
C13   C14   1.399663 A    
C23   C27   1.404845 A    
C35   C40   1.419690 A    
C41   H12   1.114242 S    
O14   H27   0.990299 S    
C18   C20   1.419674 A    
C42   H13   1.113983 S    
C49   N3    1.491662 S    
O15   H28   0.991070 S    
C3    C47   1.491037 S    
C50   N4    1.491503 S    
C28   H4    1.083356 S    
C2    C16   1.477957 S    
C52   O24   1.408984 S    
C53   C54   1.577876 S    
Cu2   O6    1.973199 S    
O13   H26   0.990140 S    
C48   O21   1.410590 S    
C53   H22   1.112867 S    
C10   C11   1.396407 A    
C42   H11   1.112077 S    
O25   H38   0.991775 S    
C9    C10   1.389342 A    
C31   H9    1.082982 S    
C50   H19   1.109169 S    
C28   C32   1.398117 A    
O26   H39   0.991766 S    
C52   H25   1.113490 S    
