data_mof_unit_14160.cif
_audit_creation_date              2013-03-05T16:03:53-0500
_audit_creation_method            fapswitch 2.2
_symmetry_space_group_name_H-M    P1
_symmetry_Int_Tables_number       1
_space_group_crystal_system       triclinic
_cell_length_a                    11.162501
_cell_length_b                    11.045967
_cell_length_c                    9.535546
_cell_angle_alpha                 88.044608
_cell_angle_beta                  97.69444
_cell_angle_gamma                 94.502851
_cell_volume                      1161.22452309

loop_
_atom_site_label
_atom_site_type_symbol
_atom_site_description
_atom_site_fract_x
_atom_site_fract_y
_atom_site_fract_z
_atom_type_partial_charge
O1    O     O_R   0.499990 0.319660 0.618740 -0.606893
O2    O     O_R   0.500010 0.680340 0.381260 -0.606748
O3    O     O_R   0.499990 0.319630 0.381170 -0.585456
O4    O     O_R   0.500010 0.680370 0.618830 -0.595842
C1    C     C_R   0.490587 0.261802 0.502528 0.783332
C2    C     C_R   0.503840 0.739072 0.501039 0.789868
O5    O     O_R   0.320690 0.500020 0.575130 -0.606725
O6    O     O_R   0.679310 0.499980 0.424870 -0.613628
O7    O     O_R   0.320680 0.499990 0.337560 -0.582324
O8    O     O_R   0.679320 0.500010 0.662440 -0.580719
C3    C     C_R   0.265894 0.492948 0.448824 0.833680
C4    C     C_R   0.736367 0.498529 0.551343 0.846638
Cu1   Cu    Cu3+1 0.500000 0.500020 0.640660 0.910129
Cu2   Cu    Cu3+1 0.500000 0.499980 0.359340 0.909006
C5    C     C_R   0.413723 0.431797 0.065200 -0.008011
C6    C     C_R   0.586411 0.566879 0.934566 -0.025616
C7    C     C_R   0.410091 0.434458 0.915866 0.084231
C8    C     C_R   0.583189 0.572850 0.081793 0.092167
H1    H     H_    0.346116 0.376708 0.115049 0.166417
H2    H     H_    0.655624 0.619281 0.884679 0.173637
C9    C     C_2   0.138408 0.466094 0.436471 -0.343093
C10   C     C_2   0.869486 0.504003 0.565589 -0.394008
C11   C     C_2   0.063935 0.540778 0.481342 0.126598
C12   C     C_2   0.934507 0.503763 0.454095 0.089303
H3    H     H_    0.916970 0.516514 0.671859 0.150927
H4    H     H_    0.104774 0.377969 0.394570 0.118377
C13   C     C_R   0.450311 0.061927 0.386925 0.071480
C14   C     C_R   0.501798 0.932615 0.643489 0.038373
C15   C     C_R   0.495659 0.947714 0.385403 0.045465
C16   C     C_R   0.494948 0.060715 0.644699 0.045391
C17   C     C_R   0.502497 0.874335 0.509939 -0.147393
C18   C     C_R   0.476006 0.126999 0.512549 -0.155209
N1    N     N_R   0.500030 0.500030 0.852080 -0.232272
N2    N     N_R   0.499970 0.499970 0.147920 -0.230334
C19   C     C_3   0.877774 0.484884 0.299701 -0.362215
C20   C     C_3   0.961446 0.480369 0.183011 -0.377898
C21   C     C_3   0.894087 0.500553 0.034913 -0.821749
H5    H     H_    0.807248 0.444115 0.020116 0.255565
H6    H     H_    0.876034 0.597524 0.017532 0.279577
H7    H     H_    0.950721 0.476040 0.954394 0.256849
H8    H     H_    0.037031 0.552339 0.197368 0.241753
H9    H     H_    0.998033 0.389642 0.185239 0.224418
H10   H     H_    0.814736 0.401588 0.292237 0.212879
H11   H     H_    0.829761 0.565688 0.273950 0.228688
C22   C     C_3   0.105735 0.663307 0.548125 -0.381146
C23   C     C_3   0.044959 0.768222 0.464503 -0.349497
C24   C     C_3   0.088121 0.889637 0.532986 -0.888577
H12   H     H_    0.067186 0.888826 0.643663 0.261490
H13   H     H_    0.187390 0.907916 0.532927 0.250365
H14   H     H_    0.041379 0.963974 0.472803 0.244323
H15   H     H_    0.067147 0.770998 0.354118 0.225483
H16   H     H_    0.944898 0.754850 0.461039 0.223035
H17   H     H_    0.083724 0.661026 0.658439 0.196377
H18   H     H_    0.205063 0.683498 0.554323 0.200659
C25   C     C_2   0.307524 0.364886 0.832730 0.314103
H19   H     H_    0.313872 0.334177 0.728333 0.127379
O9    O     O_2   0.213074 0.338533 0.881991 -0.596132
C26   C     C_2   0.663568 0.667256 0.157754 0.247777
H20   H     H_    0.670015 0.673558 0.270259 0.145032
O10   O     O_2   0.726573 0.740026 0.094993 -0.620847
C27   C     C_3   0.369367 0.108782 0.257814 -0.386306
C28   C     C_3   0.258010 0.020034 0.217813 -0.405463
C29   C     C_3   0.184663 0.059387 0.079335 -0.801072
H21   H     H_    0.151930 0.150670 0.089641 0.274624
H22   H     H_    0.240956 0.062217 0.991441 0.259658
H23   H     H_    0.104988 0.993542 0.053401 0.241883
H24   H     H_    0.285177 0.926695 0.207156 0.234874
H25   H     H_    0.199121 0.017266 0.303046 0.227452
H26   H     H_    0.332321 0.195314 0.279945 0.203913
H27   H     H_    0.420928 0.126503 0.166740 0.192118
C30   C     C_3   0.505996 0.862646 0.786562 -0.316749
C31   C     C_3   0.376142 0.819449 0.814751 -0.328894
C32   C     C_3   0.364871 0.805985 0.971729 -0.865542
H28   H     H_    0.393864 0.893493 0.023852 0.245726
H29   H     H_    0.268954 0.780471 0.986103 0.249900
H30   H     H_    0.421235 0.734539 0.021792 0.270358
H31   H     H_    0.311646 0.886614 0.768901 0.212463
H32   H     H_    0.346716 0.731263 0.764147 0.248552
H33   H     H_    0.569631 0.791051 0.799174 0.208481
H34   H     H_    0.554489 0.914608 0.876251 0.187451
C33   C     C_3   0.574641 0.928878 0.272337 -0.383719
C34   C     C_3   0.710095 0.942036 0.335172 -0.304992
C35   C     C_3   0.791409 0.998379 0.229567 -0.781783
H35   H     H_    0.762545 0.964246 0.121347 0.293903
H36   H     H_    0.788024 0.098531 0.226594 0.230869
H37   H     H_    0.886624 0.977105 0.263424 0.237832
H38   H     H_    0.723927 0.001142 0.429106 0.209424
H39   H     H_    0.740598 0.852062 0.372804 0.197936
H40   H     H_    0.548714 0.841195 0.222236 0.213578
H41   H     H_    0.559192 0.996073 0.184663 0.192348
C36   C     C_3   0.507449 0.122933 0.788177 -0.353704
C37   C     C_3   0.641432 0.159011 0.840460 -0.305186
C38   C     C_3   0.657017 0.222060 0.981820 -0.865379
H42   H     H_    0.620134 0.312205 0.968418 0.266266
H43   H     H_    0.609674 0.167653 0.060083 0.244913
H44   H     H_    0.754881 0.234195 0.022787 0.243961
H45   H     H_    0.693687 0.076924 0.852734 0.202676
H46   H     H_    0.681342 0.220719 0.761690 0.239579
H47   H     H_    0.450095 0.198158 0.788711 0.197411
H48   H     H_    0.464171 0.068123 0.869276 0.172199

loop_
_geom_bond_atom_site_label_1
_geom_bond_atom_site_label_2
_geom_bond_distance
_ccdc_geom_bond_type
C27   H27   1.108294 S    
C9    H4    1.084964 S    
C29   H22   1.111043 S    
C38   H42   1.104053 S    
C11   C22   1.528122 S    
C4    C10   1.470548 S    
C13   C15   1.396981 A    
C32   H28   1.107567 S    
C20   H9    1.109988 S    
C19   C20   1.549940 S    
C25   H19   1.075538 S    
C30   H33   1.096946 S    
C33   C34   1.547621 S    
C37   H46   1.110969 S    
C24   H13   1.110703 S    
C22   C23   1.534478 S    
O5    C3    1.277678 A    
C21   H5    1.105745 S    
C28   H24   1.108960 S    
O1    C1    1.286118 A    
C20   C21   1.526387 S    
C21   H7    1.110629 S    
C26   O10   1.220661 D    
C34   H38   1.113304 S    
C23   H16   1.111295 S    
O4    Cu1   1.995902 S    
C31   H32   1.108595 S    
C13   C27   1.527101 S    
C31   H31   1.112342 S    
C8    C26   1.465511 S    
C35   H35   1.108739 S    
C10   H3    1.086798 S    
C11   C12   1.461484 S    
C36   H48   1.104594 S    
C19   H10   1.111827 S    
C7    C25   1.479933 S    
C5    N2    1.356262 A    
C6    H2    1.080575 S    
C1    C18   1.486352 S    
C33   H40   1.095725 S    
C2    C17   1.500768 S    
C29   H23   1.110378 S    
C22   H17   1.110833 S    
C38   H43   1.105669 S    
Cu1   Cu2   2.682555 S    
C15   C17   1.411653 A    
C32   H29   1.110779 S    
C20   H8    1.110755 S    
O2    C2    1.326787 A    
C7    N1    1.386273 A    
C15   C33   1.510498 S    
C30   H34   1.102103 S    
C37   H45   1.110679 S    
C24   H14   1.109380 S    
C12   C19   1.537061 S    
O4    C2    1.281662 A    
C36   C37   1.537669 S    
C31   C32   1.520154 S    
C26   H20   1.069835 S    
C23   H15   1.112036 S    
C3    C9    1.420629 S    
C5    H1    1.081645 S    
O7    Cu2   1.984562 S    
Cu1   N1    2.015964 S    
C28   C29   1.526473 S    
C6    N1    1.348483 A    
C8    N2    1.383250 A    
C24   H12   1.110656 S    
O6    C4    1.286434 A    
C19   H11   1.081258 S    
O7    C3    1.290862 A    
O3    Cu2   1.995902 S    
O8    C4    1.308242 A    
C33   H41   1.103961 S    
C35   H36   1.109144 S    
C22   H18   1.107743 S    
C38   H44   1.109163 S    
C25   O9    1.221485 D    
C32   H30   1.103811 S    
C10   C12   1.365362 D    
C14   C30   1.541881 S    
O1    Cu1   2.010254 S    
C27   H26   1.108305 S    
C5    C7    1.418483 A    
C23   C24   1.526862 S    
O6    Cu2   2.015376 S    
C13   C18   1.402939 A    
C14   C17   1.447626 A    
C16   C36   1.536749 S    
O3    C1    1.315193 A    
O8    Cu1   1.984561 S    
Cu2   N2    2.015964 S    
C28   H25   1.109864 S    
C9    C11   1.334808 D    
C30   C31   1.545298 S    
C21   H6    1.108269 S    
C16   C18   1.434815 A    
C34   H39   1.108387 S    
C14   C16   1.423555 A    
C37   C38   1.521350 S    
C27   C28   1.535848 S    
O2    Cu2   2.010255 S    
C29   H21   1.110893 S    
O5    Cu1   2.015377 S    
C35   H37   1.109610 S    
C6    C8    1.413064 A    
C34   C35   1.529223 S    
C36   H47   1.088601 S    
