data_mof_unit_61100.cif
_audit_creation_date              2012-12-10T17:20:39-0500
_audit_creation_method            fapswitch 2.2
_symmetry_space_group_name_H-M    P1
_symmetry_Int_Tables_number       1
_space_group_crystal_system       triclinic
_cell_length_a                    10.253272
_cell_length_b                    10.682534
_cell_length_c                    13.616932
_cell_angle_alpha                 92.72937
_cell_angle_beta                  75.039651
_cell_angle_gamma                 95.913302
_cell_volume                      1432.91092824

loop_
_atom_site_label
_atom_site_type_symbol
_atom_type_description
_atom_site_fract_x
_atom_site_fract_y
_atom_site_fract_z
_atom_type_partial_charge
Br1   Br    Br    0.237134 0.055095 0.511174 -0.373271
Br2   Br    Br    0.768539 0.942527 0.449741 -0.379459
Br3   Br    Br    0.142224 0.355379 0.397508 -0.405455
Br4   Br    Br    0.858489 0.646533 0.600799 -0.426425
C1    C     C_R   0.556515 0.733448 0.497366 0.864095
C2    C     C_2   0.072878 0.487480 0.491796 0.246518
C3    C     C_1   0.448029 0.508042 0.882773 0.034123
C4    C     C_1   0.551937 0.491854 0.117228 0.040747
C5    C     C_2   0.587408 0.867972 0.508652 0.129287
C6    C     C_2   0.407436 0.133685 0.529212 0.114771
C7    C     C_2   0.485181 0.934990 0.556799 -0.184505
C8    C     C_2   0.499432 0.070267 0.554969 -0.195937
C9    C     C_R   0.442424 0.266848 0.510222 0.869034
C10   C     C_R   0.476910 0.503620 0.688070 0.879398
C11   C     C_R   0.523095 0.496399 0.311936 0.912235
C12   C     C_1   0.540153 0.493700 0.206313 -0.123882
C13   C     C_1   0.459834 0.506257 0.793688 -0.127659
C14   C     C_2   0.556392 0.491192 0.012844 -0.141054
C15   C     C_2   0.443555 0.508647 0.987158 -0.139413
C16   C     C_2   0.927354 0.513159 0.507667 0.243808
H1    H     H_    0.115138 0.622047 0.590102 0.197225
H2    H     H_    0.884458 0.377044 0.410742 0.202268
H3    H     H_    0.349351 0.523148 0.043513 0.177137
H4    H     H_    0.650598 0.476700 0.956487 0.175028
H5    H     H_    0.594117 0.117864 0.565189 0.208612
H6    H     H_    0.384492 0.889463 0.589727 0.202758
N1    N     N_2   0.847200 0.448220 0.460120 -0.196127
N2    N     N_2   0.152800 0.551780 0.539880 -0.196414
O1    O     O_R   0.430150 0.692610 0.508030 -0.626676
O2    O     O_R   0.569850 0.307390 0.491970 -0.626322
O3    O     O_R   0.653100 0.659360 0.482430 -0.535783
O4    O     O_R   0.346900 0.340640 0.517570 -0.539428
O5    O     O_R   0.372470 0.518990 0.654990 -0.613576
O6    O     O_R   0.627530 0.481010 0.345010 -0.601858
O7    O     O_R   0.595430 0.485740 0.629390 -0.570409
O8    O     O_R   0.404570 0.514260 0.370610 -0.560486
Zn1   Zn    Zn3+2 0.351130 0.522200 0.517090 1.032153
Zn2   Zn    Zn3+2 0.648870 0.477800 0.482910 1.034945

loop_
_geom_bond_atom_site_label_1
_geom_bond_atom_site_label_2
_ccdc_geom_bond_type
C15   H3    S    
C7    C8    S    
C1    C5    S    
C16   N1    D    
C2    N2    D    
C2    C16   S    
C11   O8    A    
C11   O6    A    
C3    C15   S    
O3    Zn2   S    
C8    H5    S    
Br3   C2    S    
C10   O5    A    
C4    C12   T    
O4    Zn1   S    
C5    C7    D    
C10   C13   S    
C6    C8    D    
N2    Zn1   S    
C14   H4    S    
O8    Zn1   S    
H1    N2    S    
C1    O1    A    
H2    N1    S    
O5    Zn1   S    
N1    Zn2   S    
C11   C12   S    
Br4   C16   S    
C9    O2    A    
O7    Zn2   S    
O2    Zn2   S    
C14   C15   D    
O1    Zn1   S    
C10   O7    A    
C9    O4    A    
C7    H6    S    
C3    C13   T    
O6    Zn2   S    
Br2   C5    S    
C4    C14   S    
Br1   C6    S    
C1    O3    A    
C6    C9    S    
