data_mof_unit_28099.cif
_audit_creation_date              2012-12-11T14:30:18-0500
_audit_creation_method            fapswitch 2.2
_symmetry_space_group_name_H-M    P1
_symmetry_Int_Tables_number       1
_space_group_crystal_system       triclinic
_cell_length_a                    12.619728
_cell_length_b                    12.615417
_cell_length_c                    27.031427
_cell_angle_alpha                 90.07863
_cell_angle_beta                  89.963045
_cell_angle_gamma                 119.886078
_cell_volume                      3731.19723043

loop_
_atom_site_label
_atom_site_type_symbol
_atom_type_description
_atom_site_fract_x
_atom_site_fract_y
_atom_site_fract_z
_atom_type_partial_charge
C1    C     C_R   0.556905 0.456744 0.821995 0.541220
C2    C     C_R   0.456669 0.556768 0.178018 0.541891
C3    C     C_R   0.009400 0.317379 0.474594 -0.128369
C4    C     C_R   0.311641 0.997087 0.025773 -0.118921
C5    C     C_R   0.666633 0.706229 0.478331 -0.125812
C6    C     C_R   0.316301 0.006442 0.525504 -0.128935
C7    C     C_R   0.993903 0.309949 0.974469 -0.118991
C8    C     C_R   0.672024 0.699363 0.529399 -0.118741
C9    C     C_R   0.316752 0.007432 0.974698 -0.118936
C10   C     C_R   0.990317 0.307777 0.525161 -0.126590
C11   C     C_R   0.690360 0.683301 0.974731 -0.118809
C12   C     C_3   0.984619 0.691034 0.137347 -0.268763
C13   C     C_R   0.443331 0.900181 0.321775 0.537370
C14   C     C_3   0.880600 0.618339 0.173968 -0.433330
C15   C     C_3   0.706810 0.020656 0.363256 -0.274748
C16   C     C_3   0.799576 0.156750 0.367053 -0.458389
C17   C     C_3   0.309135 0.293927 0.137100 -0.268658
C18   C     C_3   0.381703 0.262317 0.173747 -0.433228
C19   C     C_3   0.983204 0.690432 0.364747 -0.271979
C20   C     C_3   0.849502 0.655938 0.371730 -0.455365
C21   C     C_3   0.705876 0.014320 0.137217 -0.268553
C22   C     C_3   0.737354 0.118373 0.173973 -0.433268
C23   C     C_3   0.317857 0.295451 0.364978 -0.275358
C24   C     C_R   0.100149 0.543361 0.178008 0.541835
C25   C     C_3   0.364655 0.205335 0.369673 -0.457228
C26   C     C_3   0.693207 0.988001 0.636156 -0.268153
C27   C     C_3   0.620356 0.882670 0.672185 -0.434244
C28   C     C_3   0.016146 0.706140 0.862706 -0.268891
C29   C     C_3   0.120138 0.736608 0.826109 -0.433448
C30   C     C_3   0.292555 0.299836 0.636388 -0.269352
C31   C     C_3   0.187113 0.325493 0.630917 -0.461774
C32   C     C_3   0.689322 0.982858 0.862542 -0.268101
C33   C     C_3   0.615659 0.878913 0.825940 -0.433349
C34   C     C_3   0.016650 0.706545 0.636339 -0.272558
C35   C     C_R   0.996186 0.504629 0.973901 0.048173
C36   C     C_3   0.151598 0.802416 0.631925 -0.460558
C37   C     C_3   0.293927 0.311444 0.862535 -0.268938
C38   C     C_3   0.263870 0.385279 0.825937 -0.433581
C39   C     C_R   0.509388 0.005664 0.525810 0.050882
C40   C     C_R   0.495663 0.491661 0.973915 0.048148
C41   C     C_R   0.995666 0.503760 0.526215 0.048954
C42   C     C_R   0.508595 0.004192 0.973931 0.048200
C43   C     C_R   0.489361 0.497510 0.528248 0.047569
C44   C     C_R   0.503266 0.994344 0.473836 0.050669
C45   C     C_R   0.900267 0.443409 0.678212 0.537063
C46   C     C_R   0.003683 0.508432 0.026172 0.048201
C47   C     C_R   0.485771 0.503182 0.476091 0.048387
C48   C     C_R   0.504880 0.996607 0.026201 0.048199
C49   C     C_R   0.006941 0.509527 0.474240 0.049388
C50   C     C_R   0.491882 0.495169 0.026187 0.048201
C51   C     C_R   0.997847 0.697381 0.974338 -0.127713
C52   C     C_R   0.704447 0.012161 0.524794 -0.131682
C53   C     C_R   0.303016 0.301190 0.974093 -0.127664
C54   C     C_R   0.000309 0.698106 0.526272 -0.135131
C55   C     C_R   0.699311 0.001930 0.974161 -0.127779
C56   C     C_R   0.543409 0.100269 0.822017 0.541340
C57   C     C_R   0.307041 0.297686 0.526382 -0.134239
C58   C     C_R   0.700904 0.006639 0.473263 -0.133730
C59   C     C_R   0.004339 0.700673 0.025815 -0.127840
C60   C     C_R   0.305541 0.301773 0.474853 -0.134913
C61   C     C_R   0.696116 0.995376 0.025638 -0.127710
C62   C     C_R   0.005936 0.701024 0.474708 -0.134723
C63   C     C_R   0.299733 0.304194 0.025575 -0.127615
C64   C     C_R   0.987464 0.594289 0.894298 0.010846
C65   C     C_R   0.609610 0.017030 0.605013 0.010947
C66   C     C_R   0.405890 0.393948 0.894191 0.010971
C67   C     C_R   0.555480 0.457317 0.678633 0.537272
C68   C     C_R   0.986614 0.593142 0.605728 0.015107
C69   C     C_R   0.606616 0.012315 0.894226 0.010719
C70   C     C_R   0.403967 0.391131 0.606701 0.015153
C71   C     C_R   0.593257 0.988132 0.394114 0.012065
C72   C     C_R   0.013022 0.607340 0.105790 0.011248
C73   C     C_R   0.395107 0.410106 0.395821 0.012779
C74   C     C_R   0.594113 0.986603 0.105726 0.011211
C75   C     C_R   0.014745 0.607699 0.394966 0.012586
C76   C     C_R   0.392885 0.405782 0.105683 0.011182
C77   C     C_R   0.040189 0.522214 0.128980 0.006187
C78   C     C_R   0.899819 0.443167 0.822012 0.541875
C79   C     C_R   0.479861 0.956903 0.371181 0.000317
C80   C     C_R   0.477960 0.517757 0.129006 0.005956
C81   C     C_R   0.043189 0.523755 0.371421 -0.002118
C82   C     C_R   0.482035 0.959822 0.128996 0.006105
C83   C     C_R   0.475497 0.523775 0.372710 -0.000630
C84   C     C_R   0.524775 0.044675 0.628320 0.009322
C85   C     C_R   0.959593 0.481763 0.871091 0.006172
C86   C     C_R   0.512708 0.479927 0.630795 -0.006296
C87   C     C_R   0.522284 0.040704 0.871119 0.006242
C88   C     C_R   0.957843 0.480596 0.628908 -0.000989
C89   C     C_R   0.543906 0.101022 0.677863 0.542872
C90   C     C_R   0.518396 0.478160 0.871081 0.006477
C91   C     C_R   0.995285 0.600756 0.947098 0.027628
C92   C     C_R   0.608279 0.009850 0.552284 0.028482
C93   C     C_R   0.399528 0.395097 0.946988 0.027528
C94   C     C_R   0.994908 0.599739 0.553071 0.035582
C95   C     C_R   0.605363 0.004674 0.947025 0.027540
C96   C     C_R   0.398608 0.394807 0.554085 0.036529
C97   C     C_R   0.600336 0.996652 0.446751 0.035944
C98   C     C_R   0.005528 0.606007 0.053001 0.027576
C99   C     C_R   0.394905 0.403722 0.448584 0.036692
C100  C     C_R   0.456437 0.557494 0.322282 0.535868
C101  C     C_R   0.600366 0.994316 0.052933 0.027550
C102  C     C_R   0.008516 0.606809 0.447654 0.037537
C103  C     C_R   0.394311 0.399702 0.052889 0.027602
C104  C     C_R   0.971332 0.393261 0.897996 -0.148479
C105  C     C_R   0.426652 0.036821 0.601201 -0.151587
C106  C     C_R   0.606965 0.577988 0.898108 -0.148564
C107  C     C_R   0.964143 0.389504 0.601472 -0.149592
C108  C     C_R   0.422411 0.029644 0.898134 -0.148432
C109  C     C_R   0.595442 0.585628 0.605016 -0.149013
C110  C     C_R   0.387719 0.960468 0.398825 -0.149483
C111  C     C_R   0.443165 0.899819 0.178005 0.541815
C112  C     C_R   0.027720 0.421591 0.102061 -0.148825
C113  C     C_R   0.567592 0.618528 0.400884 -0.147810
C114  C     C_R   0.394184 0.972829 0.102175 -0.148973
C115  C     C_R   0.037669 0.426733 0.398718 -0.149493
C116  C     C_R   0.578718 0.605485 0.102221 -0.148890
C117  C     C_R   0.989691 0.403775 0.948598 0.009931
C118  C     C_R   0.416264 0.014123 0.551047 0.006538
C119  C     C_R   0.596500 0.585724 0.948729 0.009879
C120  C     C_R   0.985270 0.401133 0.551145 0.008326
C121  C     C_R   0.414534 0.011218 0.948729 0.009861
C122  C     C_R   0.099922 0.543450 0.321889 0.536518
C123  C     C_R   0.584266 0.595502 0.554463 0.010533
C124  C     C_R   0.399730 0.982131 0.449055 0.005267
C125  C     C_R   0.009270 0.413661 0.051454 0.010070
C126  C     C_R   0.574483 0.608688 0.451609 0.005017
C127  C     C_R   0.404757 0.991403 0.051578 0.010079
C128  C     C_R   0.016264 0.416883 0.449006 0.005528
C129  C     C_R   0.586670 0.595069 0.051603 0.010067
C130  C     C_R   0.004114 0.315100 0.025550 -0.118928
C131  C     C_R   0.306403 0.987103 0.474972 -0.128938
C132  C     C_R   0.685245 0.688182 0.025826 -0.118825
Cr1   Cr    Cr6+3 0.487630 0.241180 0.750000 0.984789
Cr2   Cr    Cr6+3 0.753550 0.512370 0.750000 0.986714
Cr3   Cr    Cr6+3 0.758820 0.246450 0.750000 0.986895
Cr4   Cr    Cr6+3 0.241180 0.487630 0.250000 0.987220
Cr5   Cr    Cr6+3 0.512370 0.753550 0.250000 0.986255
Cr6   Cr    Cr6+3 0.246450 0.758820 0.250000 0.986874
H1    H     H_    0.012743 0.781556 0.043072 0.089077
H2    H     H_    0.779574 0.009084 0.956877 0.088940
H3    H     H_    0.997933 0.773121 0.544535 0.103393
H4    H     H_    0.229973 0.221095 0.956777 0.088811
H5    H     H_    0.040529 0.351859 0.119951 0.127761
H6    H     H_    0.302046 0.940559 0.381722 0.131948
H7    H     H_    0.648508 0.687685 0.120221 0.127863
H8    H     H_    0.055822 0.359969 0.381283 0.132981
H9    H     H_    0.311850 0.960375 0.120132 0.127870
H10   H     H_    0.631981 0.704602 0.383737 0.133262
H11   H     H_    0.359483 0.054233 0.618674 0.130173
H12   H     H_    0.777951 0.008996 0.454774 0.099492
H13   H     H_    0.957972 0.310456 0.880101 0.128185
H14   H     H_    0.674617 0.658045 0.623665 0.129310
H15   H     H_    0.353248 0.043499 0.880329 0.128325
H16   H     H_    0.946140 0.304667 0.618792 0.130332
H17   H     H_    0.689775 0.647122 0.880297 0.128149
H18   H     H_    0.008559 0.242103 0.044824 0.090047
H19   H     H_    0.226722 0.978235 0.455992 0.089924
H20   H     H_    0.758260 0.765280 0.045204 0.090054
H21   H     H_    0.016916 0.245923 0.455366 0.090825
H22   H     H_    0.234379 0.992942 0.045118 0.090055
H23   H     H_    0.218934 0.231841 0.042732 0.089054
H24   H     H_    0.735284 0.787572 0.459625 0.092419
H25   H     H_    0.244980 0.014104 0.544713 0.088182
H26   H     H_    0.988720 0.232106 0.955169 0.090011
H27   H     H_    0.745508 0.774925 0.549267 0.092940
H28   H     H_    0.244311 0.013008 0.955478 0.090179
H29   H     H_    0.980793 0.227763 0.544023 0.088169
H30   H     H_    0.768190 0.755738 0.955524 0.090131
H31   H     H_    0.797829 0.549535 0.153882 0.156066
H32   H     H_    0.906528 0.571126 0.201927 0.150810
H33   H     H_    0.857649 0.681411 0.193843 0.128460
H34   H     H_    0.010719 0.779568 0.456577 0.101413
H35   H     H_    0.067419 0.760364 0.156999 0.169589
H36   H     H_    0.952802 0.743278 0.115310 0.116861
H37   H     H_    0.760510 0.211335 0.351437 0.155979
H38   H     H_    0.825700 0.184787 0.405919 0.167776
H39   H     H_    0.882757 0.177039 0.345693 0.131247
H40   H     H_    0.748029 0.964561 0.374545 0.123734
H41   H     H_    0.688280 0.004663 0.323314 0.168535
H42   H     H_    0.450611 0.248189 0.153700 0.156021
H43   H     H_    0.428737 0.335259 0.201807 0.151136
H44   H     H_    0.318617 0.176446 0.193497 0.128351
H45   H     H_    0.768552 0.986856 0.042789 0.089160
H46   H     H_    0.239730 0.307611 0.156709 0.169726
H47   H     H_    0.257007 0.210043 0.114968 0.116833
H48   H     H_    0.788288 0.559464 0.360366 0.159141
H49   H     H_    0.829271 0.666936 0.410639 0.161776
H50   H     H_    0.829049 0.715794 0.348308 0.130936
H51   H     H_    0.045129 0.787853 0.374478 0.126779
H52   H     H_    0.992622 0.682228 0.324540 0.165629
H53   H     H_    0.751389 0.201359 0.154010 0.155950
H54   H     H_    0.664424 0.092660 0.202005 0.150968
H55   H     H_    0.823214 0.140922 0.193752 0.128265
H56   H     H_    0.232156 0.224148 0.456185 0.102074
H57   H     H_    0.692195 0.931249 0.156742 0.169794
H58   H     H_    0.789789 0.045802 0.115161 0.116802
H59   H     H_    0.459472 0.246937 0.355183 0.156119
H60   H     H_    0.364430 0.178678 0.408628 0.168778
H61   H     H_    0.305294 0.122013 0.347717 0.132150
H62   H     H_    0.220100 0.252083 0.375665 0.125252
H63   H     H_    0.321293 0.313550 0.324972 0.167555
H64   H     H_    0.571977 0.907152 0.700195 0.149410
H65   H     H_    0.552478 0.800272 0.651619 0.155947
H66   H     H_    0.683423 0.859786 0.692006 0.127228
H67   H     H_    0.786883 0.024293 0.541906 0.088906
H68   H     H_    0.745754 0.957175 0.613631 0.115768
H69   H     H_    0.762201 0.070275 0.656212 0.169560
H70   H     H_    0.202800 0.750205 0.846215 0.155966
H71   H     H_    0.094048 0.663316 0.798167 0.150554
H72   H     H_    0.143349 0.822479 0.806206 0.128672
H73   H     H_    0.933437 0.692940 0.843019 0.169069
H74   H     H_    0.048027 0.790316 0.884676 0.117195
H75   H     H_    0.213162 0.416752 0.646603 0.159445
H76   H     H_    0.162164 0.324027 0.591710 0.163987
H77   H     H_    0.105925 0.254977 0.651179 0.125376
H78   H     H_    0.990645 0.770534 0.957156 0.088869
H79   H     H_    0.264146 0.204660 0.625168 0.127062
H80   H     H_    0.308847 0.305411 0.676605 0.169722
H81   H     H_    0.546850 0.796316 0.846066 0.156036
H82   H     H_    0.568364 0.905250 0.798192 0.148560
H83   H     H_    0.678019 0.855448 0.805819 0.128506
H84   H     H_    0.758851 0.065362 0.842835 0.169404
H85   H     H_    0.741249 0.950488 0.884471 0.117125
H86   H     H_    0.208947 0.766838 0.647837 0.157457
H87   H     H_    0.178220 0.827126 0.592893 0.167873
H88   H     H_    0.169665 0.885859 0.652635 0.129203
H89   H     H_    0.236549 0.215950 0.543954 0.101901
H90   H     H_    0.957836 0.744807 0.625208 0.128716
H91   H     H_    0.002441 0.688727 0.676371 0.168523
H92   H     H_    0.251438 0.455270 0.846007 0.156074
H93   H     H_    0.336790 0.431160 0.797830 0.150436
H94   H     H_    0.177490 0.323220 0.806231 0.129047
H95   H     H_    0.306690 0.241516 0.842840 0.168948
H96   H     H_    0.209758 0.259945 0.884503 0.117443
O1    O     O_R   0.460870 0.120930 0.805240 -0.531128
O2    O     O_R   0.120930 0.460870 0.194760 -0.531018
O3    O     O_R   0.539130 0.660060 0.305240 -0.525020
O4    O     O_R   0.339940 0.879070 0.194760 -0.531090
O5    O     O_R   0.498910 0.350470 0.801870 -0.500122
O6    O     O_R   0.851560 0.501090 0.698130 -0.503772
O7    O     O_R   0.649530 0.148440 0.801870 -0.499039
O8    O     O_R   0.498910 0.350470 0.698130 -0.506230
O9    O     O_R   0.851560 0.501090 0.801870 -0.499994
O10   O     O_R   0.649530 0.148440 0.698130 -0.499667
O11   O     O_R   0.350470 0.498910 0.301870 -0.504599
O12   O     O_R   0.660060 0.539130 0.694760 -0.522371
O13   O     O_R   0.501090 0.851560 0.198130 -0.500021
O14   O     O_R   0.148440 0.649530 0.301870 -0.504788
O15   O     O_R   0.350470 0.498910 0.198130 -0.499752
O16   O     O_R   0.501090 0.851560 0.301870 -0.505909
O17   O     O_R   0.148440 0.649530 0.198130 -0.500055
O18   O     O_3   0.666667 0.333333 0.750000 -0.213686
O19   O     O_3   0.333333 0.666667 0.250000 -0.213334
O20   O     O_R   0.879070 0.339940 0.805240 -0.530865
O21   O     O_R   0.460870 0.120930 0.694760 -0.527882
O22   O     O_R   0.660060 0.539130 0.805240 -0.531774
O23   O     O_R   0.879070 0.339940 0.694760 -0.529597
O24   O     O_R   0.120930 0.460870 0.305240 -0.524601
O25   O     O_R   0.539130 0.660060 0.194760 -0.530701
O26   O     O_R   0.339940 0.879070 0.305240 -0.525520

loop_
_geom_bond_atom_site_label_1
_geom_bond_atom_site_label_2
_ccdc_geom_bond_type
C51   H78   S    
C65   C92   A    
C56   O7    A    
C13   C79   S    
C1    C90   S    
C15   H41   S    
C106  C119  A    
C27   H64   S    
C83   C113  A    
C46   C125  A    
C61   C101  A    
C26   H69   S    
Cr2   O18   S    
C40   C93   A    
C14   H32   S    
C60   C99   A    
C11   C119  A    
C11   C132  A    
Cr1   O21   S    
C71   C79   A    
Cr5   O16   S    
C60   H56   S    
C29   H72   S    
C38   H92   S    
C31   H76   S    
C72   C98   A    
C1    O5    A    
C28   H73   S    
C13   O16   A    
C71   C97   A    
C115  H8    S    
C26   C27   S    
C37   C38   S    
C29   H70   S    
C23   H63   S    
C27   H65   S    
C104  H13   S    
C12   H36   S    
C28   C29   S    
C13   O26   A    
C23   C73   S    
C114  H9    S    
C116  H7    S    
Cr5   O13   S    
C67   O12   A    
C31   H77   S    
C18   H44   S    
C15   C16   S    
C19   H52   S    
C55   C61   A    
C47   C99   A    
C73   C99   A    
C53   H4    S    
Cr1   O1    S    
C131  H19   S    
C7    C117  A    
C7    C130  A    
C100  O11   A    
C110  C124  A    
C66   C93   A    
C125  C130  A    
C122  O24   A    
C108  H15   S    
C80   C116  A    
C17   H47   S    
C10   H29   S    
C57   C96   A    
C5    C126  A    
C75   C102  A    
C9    C121  A    
C56   O1    A    
C25   H60   S    
Cr6   O19   S    
C36   H86   S    
C69   C87   A    
C1    O22   A    
C8    C123  A    
Cr4   O15   S    
C30   H80   S    
C129  C132  A    
C51   C91   A    
C16   H38   S    
C76   C103  A    
Cr5   O25   S    
C2    O25   A    
C46   C98   A    
C18   H42   S    
C50   C103  A    
C21   H58   S    
C21   C22   S    
C56   C87   S    
C3    H21   S    
C26   H68   S    
C58   C97   A    
C29   H71   S    
C74   C82   A    
C14   H31   S    
C41   C49   A    
C30   C70   S    
C67   O8    A    
C17   C18   S    
C33   H81   S    
Cr6   O14   S    
C54   C94   A    
Cr6   O26   S    
C10   C120  A    
Cr3   O23   S    
C111  O4    A    
C61   H45   S    
C87   C108  A    
C53   C93   A    
C52   H67   S    
C78   O20   A    
Cr4   O19   S    
C37   H96   S    
C109  H14   S    
C25   H59   S    
C82   C114  A    
C66   C90   A    
Cr6   O17   S    
C2    O15   A    
C34   C68   S    
C49   C102  A    
C88   C107  A    
C3    C128  A    
C109  C123  A    
C65   C84   A    
C38   H94   S    
C113  C126  A    
C54   C62   A    
C18   H43   S    
C21   C74   S    
C23   H62   S    
C68   C94   A    
C115  C128  A    
C27   H66   S    
C124  C131  A    
Cr3   O10   S    
C77   C112  A    
C70   C96   A    
C72   C77   A    
C25   H61   S    
C50   C129  A    
Cr1   O8    S    
C17   C76   S    
C44   C97   A    
C82   C111  S    
C41   C94   A    
C59   H1    S    
C37   C66   S    
C81   C115  A    
C43   C96   A    
C89   O10   A    
C100  O3    A    
C22   H55   S    
C42   C48   A    
C21   H57   S    
Cr2   O12   S    
C37   H95   S    
Cr1   O18   S    
C90   C106  A    
C112  C125  A    
C38   H93   S    
C85   C104  A    
C52   C58   A    
C19   H51   S    
C30   H79   S    
C31   H75   S    
C45   C88   S    
C28   C64   S    
C78   C85   S    
C55   C95   A    
C12   C14   S    
C83   C100  S    
C74   C101  A    
Cr4   O24   S    
C11   H30   S    
C68   C88   A    
C42   C95   A    
C105  C118  A    
C35   C117  A    
C34   H91   S    
C51   C59   A    
C84   C89   S    
C39   C44   A    
C22   H54   S    
C63   C103  A    
C70   C86   A    
Cr3   O18   S    
C43   C123  A    
C39   C92   A    
C32   H85   S    
C15   C71   S    
C16   H39   S    
C16   H37   S    
C47   C126  A    
C122  O14   A    
C104  C117  A    
C33   H82   S    
C20   H50   S    
C63   H23   S    
C49   C128  A    
C9    H28   S    
C67   C86   S    
C36   H88   S    
C24   O2    A    
C79   C110  A    
C26   C65   S    
Cr2   O6    S    
C12   C72   S    
C24   O17   A    
C75   C81   A    
C86   C109  A    
C76   C80   A    
C14   H33   S    
C69   C95   A    
C113  H10   S    
C4    H22   S    
C5    C8    A    
C32   H84   S    
C62   H34   S    
C36   H87   S    
C45   O23   A    
C32   C69   S    
C116  C129  A    
C41   C120  A    
C28   H74   S    
C39   C118  A    
C105  H11   S    
C7    H26   S    
C78   O9    A    
C6    C131  A    
C81   C122  S    
C5    H24   S    
Cr3   O7    S    
C19   C20   S    
C19   C75   S    
C54   H3    S    
C4    C9    A    
C4    C127  A    
Cr2   O22   S    
C64   C85   A    
C3    C10   A    
C32   C33   S    
C48   C127  A    
C114  C127  A    
C53   C63   A    
C17   H46   S    
C107  C120  A    
C30   C31   S    
C108  C121  A    
C112  H5    S    
C40   C50   A    
C84   C105  A    
Cr4   O2    S    
C6    C118  A    
Cr4   O11   S    
Cr6   O4    S    
C34   C36   S    
C23   C25   S    
Cr3   O20   S    
Cr5   O3    S    
C34   H90   S    
C132  H20   S    
Cr2   O9    S    
C45   O6    A    
C107  H16   S    
C2    C80   S    
C8    H27   S    
C55   H2    S    
C48   C101  A    
C20   H48   S    
C57   H89   S    
C58   H12   S    
C24   C77   S    
C57   C60   A    
C40   C119  A    
C6    H25   S    
C111  O13   A    
C106  H17   S    
C89   O21   A    
C15   H40   S    
C44   C124  A    
C59   C98   A    
C130  H18   S    
Cr1   O5    S    
C64   C91   A    
C20   H49   S    
C22   H53   S    
C35   C46   A    
C43   C47   A    
C73   C83   A    
C52   C92   A    
Cr5   O19   S    
C110  H6    S    
C42   C121  A    
C35   C91   A    
C12   H35   S    
C62   C102  A    
C33   H83   S    
