data_mof_unit_11939.cif
_audit_creation_date              2012-12-11T14:54:39-0500
_audit_creation_method            fapswitch 2.2
_symmetry_space_group_name_H-M    P1
_symmetry_Int_Tables_number       1
_space_group_crystal_system       triclinic
_cell_length_a                    18.994399
_cell_length_b                    10.895356
_cell_length_c                    18.847639
_cell_angle_alpha                 89.853773
_cell_angle_beta                  90.202133
_cell_angle_gamma                 90.089591
_cell_volume                      3900.49113201

loop_
_atom_site_label
_atom_site_type_symbol
_atom_type_description
_atom_site_fract_x
_atom_site_fract_y
_atom_site_fract_z
_atom_type_partial_charge
C1    C     C_R   0.728285 0.373557 0.644230 0.540182
C2    C     C_R   0.307990 0.880259 0.462972 -0.141993
C3    C     C_R   0.043532 0.558279 0.447334 0.385211
C4    C     C_R   0.216701 0.337403 0.543057 -0.063906
C5    C     C_R   0.807989 0.380256 0.462972 -0.141992
C6    C     C_R   0.718485 0.820572 0.470036 -0.063585
C7    C     C_R   0.303115 0.869795 0.536338 -0.149881
C8    C     C_R   0.218486 0.320571 0.470036 -0.063585
C9    C     C_R   0.803114 0.369792 0.536337 -0.149879
C10   C     C_R   0.751938 0.907976 0.426362 0.042238
C11   C     C_R   0.240032 0.900614 0.569889 0.021476
C12   C     C_R   0.251938 0.407975 0.426362 0.042239
C13   C     C_R   0.270273 0.375178 0.354577 0.543716
C14   C     C_R   0.740033 0.400616 0.569889 0.021478
C15   C     C_R   0.780989 0.013885 0.455496 -0.146542
C16   C     C_R   0.181539 0.937699 0.529417 -0.136229
C17   C     C_R   0.280988 0.513886 0.455495 -0.146541
C18   C     C_R   0.681541 0.437706 0.529418 -0.136230
C19   C     C_R   0.779259 0.030379 0.527837 -0.136736
C20   C     C_R   0.185492 0.943377 0.456909 -0.138912
C21   C     C_R   0.279258 0.530380 0.527837 -0.136735
C22   C     C_R   0.685493 0.443384 0.456910 -0.138913
C23   C     C_R   0.747757 0.941985 0.572049 0.041511
C24   C     C_R   0.228285 0.873556 0.644230 0.540181
C25   C     C_R   0.249405 0.920238 0.423330 0.020745
C26   C     C_R   0.247757 0.441985 0.572049 0.041513
C27   C     C_R   0.749405 0.420240 0.423331 0.020745
C28   C     C_R   0.541109 0.063081 0.974801 0.334074
C29   C     C_R   0.532153 0.068978 0.047129 0.361371
C30   C     C_R   0.041108 0.563082 0.974801 0.334090
C31   C     C_R   0.032152 0.568979 0.047129 0.361421
C32   C     C_R   0.499112 0.170845 0.076946 -0.091920
C33   C     C_R   0.520035 0.161695 0.930974 -0.098382
C34   C     C_R   0.999111 0.670844 0.076945 -0.091890
C35   C     C_R   0.770273 0.875178 0.354577 0.543714
C36   C     C_R   0.020034 0.661696 0.930974 -0.098368
C37   C     C_R   0.482274 0.273384 0.034139 0.318810
C38   C     C_R   0.493019 0.268663 0.961334 0.318884
C39   C     C_R   0.982274 0.773384 0.034139 0.318820
C40   C     C_R   0.993019 0.768663 0.961334 0.318912
C41   C     C_R   0.564388 0.150910 0.639128 0.578140
C42   C     C_R   0.469172 0.155125 0.353172 0.559914
C43   C     C_R   0.064387 0.650910 0.639128 0.578139
C44   C     C_R   0.969172 0.655125 0.353172 0.559914
C45   C     C_R   0.783186 0.029457 0.973322 -0.140254
C46   C     C_3   0.452437 0.359425 0.473137 -0.242703
C47   C     C_R   0.184572 0.938664 0.042100 -0.191288
C48   C     C_R   0.283198 0.529440 0.973319 -0.140242
C49   C     C_R   0.684569 0.438572 0.042112 -0.191283
C50   C     C_R   0.784685 0.014417 0.045792 -0.104067
C51   C     C_R   0.179306 0.929668 0.969658 -0.113540
C52   C     C_R   0.284695 0.514405 0.045789 -0.104053
C53   C     C_R   0.679293 0.429561 0.969670 -0.113569
C54   C     C_R   0.751325 0.913275 0.076040 -0.015575
C55   C     C_R   0.238506 0.898756 0.928910 -0.029874
C56   C     C_R   0.251326 0.413275 0.076040 -0.015600
C57   C     C_3   0.474552 0.356953 0.550553 -0.244466
C58   C     C_R   0.738501 0.398738 0.928912 -0.029857
C59   C     C_R   0.712957 0.830612 0.033467 -0.022190
C60   C     C_R   0.302522 0.872043 0.961979 -0.109938
C61   C     C_R   0.212951 0.330619 0.033469 -0.022203
C62   C     C_R   0.802534 0.372121 0.961968 -0.109918
C63   C     C_R   0.711228 0.845953 0.960398 0.433347
C64   C     C_R   0.308357 0.882748 0.035089 0.360019
C65   C     C_R   0.211222 0.345956 0.960398 0.433339
C66   C     C_R   0.808378 0.382839 0.035075 0.360036
C67   C     C_R   0.747370 0.944660 0.930082 0.051635
C68   C     C_3   0.952435 0.859424 0.473137 -0.242702
C69   C     C_R   0.249605 0.921011 0.075125 0.011906
C70   C     C_R   0.247372 0.444652 0.930081 0.051621
C71   C     C_R   0.749615 0.421015 0.075123 0.011904
C72   C     C_R   0.740875 0.971996 0.646372 0.540393
C73   C     C_R   0.258631 0.968133 0.352277 0.530902
C74   C     C_R   0.240875 0.471996 0.646372 0.540391
C75   C     C_R   0.758631 0.468133 0.352277 0.530899
C76   C     C_R   0.727648 0.373954 0.854363 0.557879
C77   C     C_R   0.270122 0.377920 0.147494 0.564439
C78   C     C_R   0.227650 0.873959 0.854362 0.557882
C79   C     C_3   0.974550 0.856951 0.550554 -0.244466
C80   C     C_R   0.770122 0.877920 0.147494 0.564438
C81   C     C_R   0.536488 0.156074 0.855858 0.603911
C82   C     C_R   0.468457 0.158140 0.147079 0.602195
C83   C     C_R   0.036488 0.656074 0.855858 0.603914
C84   C     C_R   0.968457 0.658140 0.147079 0.602222
C85   C     C_R   0.740640 0.974272 0.855594 0.587900
C86   C     C_R   0.258798 0.970035 0.145942 0.553779
C87   C     C_R   0.240641 0.474270 0.855593 0.587895
C88   C     C_R   0.758800 0.470039 0.145941 0.553769
C89   C     C_R   0.511292 0.163845 0.418226 -0.032841
C90   C     C_R   0.716700 0.837404 0.543057 -0.063906
C91   C     C_R   0.550858 0.158055 0.562690 -0.037825
C92   C     C_R   0.011292 0.663845 0.418226 -0.032839
C93   C     C_R   0.050858 0.658055 0.562690 -0.037824
C94   C     C_R   0.510639 0.270647 0.459296 -0.064886
C95   C     C_R   0.530715 0.268060 0.529994 -0.065743
C96   C     C_R   0.010638 0.770647 0.459296 -0.064888
C97   C     C_R   0.030714 0.768060 0.529994 -0.065746
C98   C     C_R   0.561490 0.054735 0.519386 0.368463
C99   C     C_R   0.543532 0.058278 0.447334 0.385210
C100  C     C_R   0.061491 0.554736 0.519386 0.368464
Cr1   Cr    Cr6+3 0.771950 0.169480 0.750100 1.046829
Cr2   Cr    Cr6+3 0.383410 0.010620 0.249390 1.141868
Cr3   Cr    Cr6+3 0.116590 0.510620 0.750610 1.146548
Cr4   Cr    Cr6+3 0.883410 0.510620 0.249390 1.141854
Cr5   Cr    Cr6+3 0.228050 0.169480 0.249900 1.079419
Cr6   Cr    Cr6+3 0.271950 0.669480 0.750100 1.046829
Cr7   Cr    Cr6+3 0.728050 0.669480 0.249900 1.079436
Cr8   Cr    Cr6+3 0.614930 0.323340 0.749170 1.082696
Cr9   Cr    Cr6+3 0.385070 0.323340 0.250830 1.084240
Cr10  Cr    Cr6+3 0.114930 0.823340 0.749170 1.082690
Cr11  Cr    Cr6+3 0.885070 0.823340 0.250830 1.084228
Cr12  Cr    Cr6+3 0.616590 0.010620 0.750610 1.146550
F1    F     F_    0.582593 0.946682 0.547992 -0.604156
F2    F     F_    0.552665 0.971876 0.087605 -0.542412
F3    F     F_    0.070805 0.459951 0.948097 -0.532973
F4    F     F_    0.052665 0.471877 0.087605 -0.542412
F5    F     F_    0.451374 0.375001 0.061558 -0.556820
F6    F     F_    0.474636 0.366405 0.920452 -0.561567
F7    F     F_    0.951373 0.874998 0.061558 -0.556832
F8    F     F_    0.974637 0.866404 0.920452 -0.561573
F9    F     F_    0.550918 0.954242 0.408527 -0.582803
F10   F     F_    0.082594 0.446683 0.547991 -0.604156
F11   F     F_    0.050919 0.454243 0.408527 -0.582804
F12   F     F_    0.675723 0.763926 0.919563 -0.571973
F13   F     F_    0.372113 0.861769 0.065565 -0.572187
F14   F     F_    0.175710 0.263938 0.919565 -0.571992
F15   F     F_    0.872151 0.361975 0.065535 -0.572176
F16   F     F_    0.570808 0.959949 0.948097 -0.532976
H1    H     H_    0.809698 0.108764 0.951237 0.172298
H2    H     H_    0.996687 0.945770 0.569125 0.154379
H3    H     H_    0.399421 0.318956 0.463924 0.149445
H4    H     H_    0.496689 0.445771 0.569124 0.154380
H5    H     H_    0.807509 0.081283 0.422650 0.136332
H6    H     H_    0.131486 0.959973 0.553401 0.151038
H7    H     H_    0.307508 0.581285 0.422650 0.136334
H8    H     H_    0.631488 0.459984 0.553403 0.151037
H9    H     H_    0.802172 0.113456 0.549179 0.145869
H10   H     H_    0.139465 0.973780 0.427634 0.149975
H11   H     H_    0.302170 0.613459 0.549179 0.145870
H12   H     H_    0.138452 0.966224 0.071747 0.186101
H13   H     H_    0.639467 0.473790 0.427635 0.149976
H14   H     H_    0.687813 0.750290 0.056079 0.179494
H15   H     H_    0.347772 0.843480 0.931356 0.175236
H16   H     H_    0.187801 0.250304 0.056082 0.179484
H17   H     H_    0.847792 0.343633 0.931335 0.175233
H18   H     H_    0.461694 0.449689 0.447157 0.160242
H19   H     H_    0.434195 0.315599 0.585978 0.157279
H20   H     H_    0.961692 0.949688 0.447157 0.160241
H21   H     H_    0.934193 0.815597 0.585978 0.157279
H22   H     H_    0.691269 0.769811 0.576590 0.148677
H23   H     H_    0.309719 0.608737 0.951233 0.172314
H24   H     H_    0.358204 0.862857 0.437895 0.162554
H25   H     H_    0.191271 0.269809 0.576590 0.148675
H26   H     H_    0.858202 0.362850 0.437894 0.162550
H27   H     H_    0.696985 0.736511 0.448271 0.150869
H28   H     H_    0.348181 0.838239 0.566627 0.144952
H29   H     H_    0.196986 0.236509 0.448272 0.150869
H30   H     H_    0.848180 0.338232 0.566626 0.144950
H31   H     H_    0.638443 0.466066 0.071770 0.186074
H32   H     H_    0.814598 0.078606 0.077829 0.195177
H33   H     H_    0.128076 0.945368 0.945895 0.217990
H34   H     H_    0.314614 0.578588 0.077824 0.195262
H35   H     H_    0.628053 0.445184 0.945914 0.217936
H36   H     H_    0.899420 0.818954 0.463925 0.149446
O1    O     O_R   0.787510 0.042610 0.670410 -0.526708
O2    O     O_R   0.454250 0.051070 0.169440 -0.406693
O3    O     O_R   0.045750 0.551070 0.830560 -0.440747
O4    O     O_R   0.954250 0.551070 0.169440 -0.406650
O5    O     O_R   0.681210 0.959150 0.825320 -0.424627
O6    O     O_R   0.318790 0.959150 0.174680 -0.434263
O7    O     O_R   0.181210 0.459150 0.825320 -0.424623
O8    O     O_R   0.818790 0.459150 0.174680 -0.434273
O9    O     O_3   0.667820 0.167810 0.749960 -0.321040
O10   O     O_3   0.332180 0.167810 0.250040 -0.296075
O11   O     O_3   0.167820 0.667810 0.749960 -0.321034
O12   O     O_R   0.212490 0.042610 0.329590 -0.521806
O13   O     O_3   0.832180 0.667810 0.250040 -0.296071
O14   O     O_R   0.765670 0.292090 0.675090 -0.505249
O15   O     O_R   0.234330 0.292090 0.324910 -0.484647
O16   O     O_R   0.265670 0.792090 0.675090 -0.505248
O17   O     O_R   0.734330 0.792090 0.324910 -0.484647
O18   O     O_R   0.670220 0.409020 0.668560 -0.524649
O19   O     O_R   0.329780 0.409020 0.331440 -0.532359
O20   O     O_R   0.170220 0.909020 0.668560 -0.524650
O21   O     O_R   0.829780 0.909020 0.331440 -0.532364
O22   O     O_R   0.556580 0.251590 0.674980 -0.511806
O23   O     O_R   0.287510 0.542610 0.670410 -0.526708
O24   O     O_R   0.443420 0.251590 0.325020 -0.519367
O25   O     O_R   0.056580 0.751590 0.674980 -0.511807
O26   O     O_R   0.943420 0.751590 0.325020 -0.519368
O27   O     O_R   0.545890 0.049670 0.670030 -0.453881
O28   O     O_R   0.454110 0.049670 0.329970 -0.448385
O29   O     O_R   0.045890 0.549670 0.670030 -0.453882
O30   O     O_R   0.954110 0.549670 0.329970 -0.448390
O31   O     O_R   0.681340 0.957860 0.676500 -0.477964
O32   O     O_R   0.318660 0.957860 0.323500 -0.512966
O33   O     O_R   0.181340 0.457860 0.676500 -0.477965
O34   O     O_R   0.712490 0.542610 0.329590 -0.521806
O35   O     O_R   0.818660 0.457860 0.323500 -0.512972
O36   O     O_R   0.787380 0.044010 0.830940 -0.514724
O37   O     O_R   0.212620 0.044010 0.169060 -0.527584
O38   O     O_R   0.287380 0.544010 0.830940 -0.514734
O39   O     O_R   0.712620 0.544010 0.169060 -0.527556
O40   O     O_R   0.765540 0.293390 0.823910 -0.510582
O41   O     O_R   0.234460 0.293390 0.176090 -0.494432
O42   O     O_R   0.265540 0.793390 0.823910 -0.510577
O43   O     O_R   0.734460 0.793390 0.176090 -0.494427
O44   O     O_R   0.670090 0.410410 0.829090 -0.480475
O45   O     O_R   0.556450 0.252890 0.823790 -0.457461
O46   O     O_R   0.329910 0.410410 0.170910 -0.461803
O47   O     O_R   0.170090 0.910410 0.829090 -0.480505
O48   O     O_R   0.829910 0.910410 0.170910 -0.461810
O49   O     O_R   0.443550 0.252890 0.176210 -0.454160
O50   O     O_R   0.056450 0.752890 0.823790 -0.457450
O51   O     O_R   0.943550 0.752890 0.176210 -0.454167
O52   O     O_R   0.545750 0.051070 0.830560 -0.440745

loop_
_geom_bond_atom_site_label_1
_geom_bond_atom_site_label_2
_ccdc_geom_bond_type
C58   C62   A    
C81   O45   A    
C21   C26   A    
C45   H1    S    
C88   O8    A    
C53   C58   A    
C24   O20   A    
C72   O1    A    
C14   C18   A    
C57   H4    S    
Cr1   O9    S    
C2    C7    A    
C4    C8    A    
C16   H6    S    
C72   O31   A    
C63   F12   S    
C76   O44   A    
Cr1   O36   S    
C58   C76   S    
Cr10  O11   S    
C7    C11   A    
C50   C54   A    
Cr7   O17   S    
C9    H30   S    
Cr8   O22   S    
C16   C20   A    
Cr10  O50   S    
C25   C73   S    
Cr11  O51   S    
Cr6   O23   S    
C29   C32   A    
Cr9   O49   S    
C10   C15   A    
C60   H15   S    
C30   C31   A    
C39   F7    S    
C81   O52   A    
Cr4   O4    S    
C20   C25   A    
C8    H29   S    
C36   C83   S    
C65   C70   A    
C11   C24   S    
C92   C96   A    
C66   F15   S    
Cr3   O33   S    
C20   H10   S    
C89   C94   A    
Cr11  O48   S    
C47   C69   A    
Cr1   O14   S    
C85   O36   A    
C29   F2    S    
C44   O26   A    
C5    C27   A    
C3    C100  A    
C79   H21   S    
Cr4   O13   S    
C59   H14   S    
C13   O19   A    
Cr5   O12   S    
C30   C36   A    
C12   C17   A    
Cr8   O44   S    
Cr2   O28   S    
Cr6   O11   S    
C18   H8    S    
C10   C35   S    
C87   O38   A    
Cr7   O43   S    
C6    H27   S    
C68   H20   S    
C84   O51   A    
C8    C12   A    
C99   F9    S    
C41   O27   A    
Cr9   O19   S    
C68   C79   S    
Cr12  O9    S    
Cr10  O20   S    
Cr2   O2    S    
C86   O6    A    
C55   C60   A    
C96   C97   A    
C1    O18   A    
Cr3   O7    S    
Cr7   O39   S    
C34   C84   S    
Cr5   O15   S    
C27   C75   S    
C70   C87   S    
Cr6   O16   S    
C3    F11   S    
Cr8   O45   S    
C54   C80   S    
C54   C59   A    
C68   H36   S    
Cr9   O24   S    
C2    H24   S    
C63   C67   A    
C67   C85   S    
Cr11  O21   S    
C7    H28   S    
C86   O37   A    
C34   C39   A    
C32   C37   A    
C36   C40   A    
C100  F10   S    
C39   C40   A    
C55   C78   S    
C62   C66   A    
Cr9   O10   S    
C53   H35   S    
C98   F1    S    
C47   C51   A    
C64   C69   A    
C50   H32   S    
C6    C90   A    
C79   H2    S    
C83   O3    A    
C62   H17   S    
C42   O28   A    
C85   O5    A    
C56   C77   S    
C88   O39   A    
C3    C92   A    
C31   F4    S    
C47   H12   S    
C15   C19   A    
C9    C14   A    
C78   O42   A    
Cr12  O31   S    
C5    C9    A    
C37   C38   A    
C84   O4    A    
Cr8   O18   S    
C77   O41   A    
C19   H9    S    
Cr6   O38   S    
C82   O49   A    
C1    O14   A    
C61   H16   S    
Cr5   O37   S    
Cr12  O5    S    
C46   C94   S    
C74   O33   A    
C35   O21   A    
C87   O7    A    
Cr8   O9    S    
Cr3   O11   S    
C31   C34   A    
C68   C96   S    
Cr3   O3    S    
Cr1   O1    S    
C93   C100  A    
C66   C71   A    
C17   H7    S    
C77   O46   A    
C41   C91   S    
C89   C99   A    
C28   C33   A    
C98   C99   A    
Cr5   O10   S    
C57   H19   S    
C46   C57   S    
C57   C95   S    
C22   C27   A    
Cr4   O35   S    
C73   O32   A    
C35   O17   A    
C21   H11   S    
Cr9   O46   S    
C93   C97   A    
Cr4   O8    S    
C46   H3    S    
C83   O50   A    
C19   C23   A    
C74   O23   A    
C82   O2    A    
C75   O34   A    
C42   O24   A    
C28   C29   A    
C40   F8    S    
C18   C22   A    
C44   O30   A    
C23   C72   S    
C79   C97   S    
C30   F3    S    
C48   C70   A    
Cr1   O40   S    
Cr2   O32   S    
C5    H26   S    
Cr6   O42   S    
Cr7   O34   S    
C4    C26   A    
C90   H22   S    
C76   O40   A    
Cr5   O41   S    
C45   C67   A    
C15   H5    S    
C75   O35   A    
Cr2   O10   S    
C32   C82   S    
C43   O29   A    
Cr10  O25   S    
C59   C63   A    
C33   C38   A    
C80   O48   A    
C60   C64   A    
C42   C89   S    
C65   F14   S    
Cr10  O47   S    
C51   H33   S    
Cr2   O6    S    
C13   O15   A    
Cr12  O27   S    
C23   C90   A    
C44   C92   S    
C46   H18   S    
C52   C56   A    
C45   C50   A    
C73   O12   A    
C49   C53   A    
C24   O16   A    
C22   H13   S    
C43   C93   S    
C41   O22   A    
C4    H25   S    
C2    C25   A    
C51   C55   A    
Cr12  O52   S    
C91   C98   A    
C94   C95   A    
C17   C21   A    
C11   C16   A    
C6    C10   A    
C91   C95   A    
C71   C88   S    
C38   F6    S    
C61   C65   A    
C48   C52   A    
C80   O43   A    
C37   F5    S    
C12   C13   S    
C43   O25   A    
Cr11  O26   S    
C26   C74   S    
C64   F13   S    
C49   C71   A    
C48   H23   S    
Cr11  O13   S    
Cr4   O30   S    
C56   C61   A    
C49   H31   S    
C1    C14   S    
Cr3   O29   S    
C33   C81   S    
C78   O47   A    
Cr7   O13   S    
C69   C86   S    
C28   F16   S    
C52   H34   S    
