data_mof_unit_5001.cif
_audit_creation_date              2013-03-05T15:40:34-0500
_audit_creation_method            fapswitch 2.2
_symmetry_space_group_name_H-M    P1
_symmetry_Int_Tables_number       1
_space_group_crystal_system       triclinic
_cell_length_a                    7.90251
_cell_length_b                    8.550212
_cell_length_c                    10.585878
_cell_angle_alpha                 91.421946
_cell_angle_beta                  84.234458
_cell_angle_gamma                 93.625414
_cell_volume                      710.102766356

loop_
_atom_site_label
_atom_site_type_symbol
_atom_site_description
_atom_site_fract_x
_atom_site_fract_y
_atom_site_fract_z
_atom_type_partial_charge
O1    O     O_R   0.389250 0.738570 0.508280 -0.585900
O2    O     O_R   0.610750 0.261430 0.491720 -0.585903
O3    O     O_R   0.678390 0.711630 0.486650 -0.631758
O4    O     O_R   0.321610 0.288370 0.513350 -0.631758
C1    C     C_R   0.545321 0.794177 0.496527 0.981117
C2    C     C_R   0.454678 0.205823 0.503473 0.981118
O5    O     O_R   0.355430 0.513480 0.694040 -0.612292
O6    O     O_R   0.644570 0.486520 0.305960 -0.612294
O7    O     O_R   0.644570 0.486540 0.672410 -0.636747
O8    O     O_R   0.355430 0.513460 0.327590 -0.636747
C3    C     C_R   0.504057 0.521511 0.739546 0.907250
C4    C     C_R   0.495943 0.478489 0.260454 0.907254
Zn1   Zn    Zn3+2 0.306940 0.517990 0.514440 0.991702
Zn2   Zn    Zn3+2 0.693060 0.482010 0.485560 0.991699
H1    H     H_    0.039734 0.438672 0.836201 0.192296
H2    H     H_    0.960266 0.561329 0.163799 0.192296
C5    C     C_R   0.223923 0.648590 0.920334 0.316505
C6    C     C_R   0.776078 0.351410 0.079666 0.316504
C7    C     C_R   0.058419 0.609707 0.977945 -0.188638
C8    C     C_R   0.941581 0.390294 0.022055 -0.188639
C9    C     C_R   0.035497 0.509676 0.082933 -0.187693
C10   C     C_R   0.964504 0.490324 0.917066 -0.187692
C11   C     C_R   0.178833 0.461064 0.133197 -0.141209
C12   C     C_R   0.821168 0.538936 0.866802 -0.141209
C13   C     C_R   0.342025 0.490657 0.071138 0.042052
C14   C     C_R   0.657975 0.509344 0.928861 0.042053
C15   C     C_R   0.359826 0.564178 0.954079 -0.028887
C16   C     C_R   0.640174 0.435823 0.045921 -0.028887
C17   C     C_R   0.488206 0.450097 0.124231 -0.130345
C18   C     C_R   0.511794 0.549904 0.875769 -0.130347
H3    H     H_    0.992530 0.717817 0.994405 0.204469
H4    H     H_    0.007470 0.282184 0.005595 0.204472
H5    H     H_    0.158272 0.381569 0.211938 0.188894
H6    H     H_    0.841729 0.618430 0.788061 0.188895
C19   C     C_2   0.568884 0.958011 0.494523 -0.278105
C20   C     C_2   0.431116 0.041988 0.505477 -0.278104
H7    H     H_    0.699083 0.008927 0.483944 0.195838
H8    H     H_    0.300917 0.991073 0.516056 0.195839
N1    N     N_2   0.950330 0.457950 0.466250 -0.178463
N2    N     N_2   0.049670 0.542050 0.533750 -0.178460
H9    H     H_    0.010435 0.372769 0.411793 0.208519
H10   H     H_    0.989565 0.627231 0.588207 0.208523
N3    N     N_R   0.252624 0.778510 0.834743 0.210786
O9    O     O_R   0.401016 0.854440 0.819008 -0.407932
O10   O     O_R   0.126693 0.830488 0.781002 -0.431464
N4    N     N_R   0.747376 0.221490 0.165256 0.210787
O11   O     O_R   0.873310 0.169502 0.218988 -0.431461
O12   O     O_R   0.598982 0.145564 0.180996 -0.407933

loop_
_geom_bond_atom_site_label_1
_geom_bond_atom_site_label_2
_geom_bond_distance
_ccdc_geom_bond_type
O7    Zn2   1.976486 S    
C5    N3    1.443308 S    
H2    C9    1.092460 S    
C4    C17   1.463081 S    
C13   C15   1.393909 A    
N3    O10   1.301448 A    
C14   C16   1.393910 A    
C19   C20   1.335536 D    
O6    C4    1.310773 A    
N3    O9    1.301622 A    
C7    H3    1.091133 S    
C20   H8    1.087802 S    
N1    H9    1.027753 S    
C15   C18   1.399221 A    
O5    C3    1.310774 A    
O7    C3    1.303986 A    
O2    C2    1.288661 A    
O3    Zn2   1.973705 S    
O8    C4    1.303986 A    
O1    C1    1.288661 A    
C1    C19   1.401827 S    
N2    H10   1.027752 S    
C16   C17   1.399221 A    
C19   H7    1.087802 S    
C2    C20   1.401827 S    
C14   C18   1.400500 A    
N4    O12   1.301622 A    
C11   C13   1.398397 A    
C9    C11   1.389437 A    
C13   C17   1.400499 A    
O2    Zn2   1.956220 S    
C10   C12   1.389437 A    
O1    Zn1   1.956220 S    
C8    C10   1.409488 A    
C5    C15   1.410623 A    
C6    N4    1.443309 S    
O5    Zn1   1.978601 S    
C7    C10   1.405592 A    
C6    C16   1.410624 A    
C8    C9    1.405592 A    
C11   H5    1.081720 S    
C6    C8    1.409917 A    
O4    C2    1.297303 A    
C8    H4    1.091132 S    
N1    N2    1.288306 D    
N4    O11   1.301443 A    
Zn1   N2    2.045684 S    
O6    Zn2   1.978601 S    
C5    C7    1.409916 A    
Zn2   N1    2.045684 S    
C7    C9    1.409489 A    
H1    C10   1.092460 S    
C12   H6    1.081721 S    
O4    Zn1   1.973705 S    
C3    C18   1.463081 S    
C12   C14   1.398398 A    
O3    C1    1.297302 A    
O8    Zn1   1.976487 S    
