data_mof_unit_38660.cif
_audit_creation_date              2012-12-11T15:55:39-0500
_audit_creation_method            fapswitch 2.2
_symmetry_space_group_name_H-M    P1
_symmetry_Int_Tables_number       1
_space_group_crystal_system       triclinic
_cell_length_a                    6.958405
_cell_length_b                    14.543226
_cell_length_c                    16.121231
_cell_angle_alpha                 89.936193
_cell_angle_beta                  89.861045
_cell_angle_gamma                 89.931772
_cell_volume                      1631.42383643

loop_
_atom_site_label
_atom_site_type_symbol
_atom_type_description
_atom_site_fract_x
_atom_site_fract_y
_atom_site_fract_z
_atom_type_partial_charge
O1    O     O_R   0.505680 0.583900 0.413320 -0.548029
O2    O     O_R   0.176010 0.594950 0.586080 -0.511531
O3    O     O_R   0.005680 0.416100 0.586680 -0.535548
C1    C     C_R   0.344068 0.616184 0.615623 0.772544
O4    O     O_R   0.175960 0.594930 0.413930 -0.511126
O5    O     O_R   0.005640 0.416080 0.413300 -0.547013
C2    C     C_R   0.344658 0.617778 0.385460 0.702300
O6    O     O_R   0.505720 0.583920 0.586700 -0.542761
O7    O     O_3   0.339190 0.441320 0.500000 -0.378407
V1    V     V_3+5 0.064350 0.510890 0.500000 1.494480
O8    O     O_R   0.675920 0.405050 0.413920 -0.550189
C3    C     C_R   0.845195 0.382699 0.385283 0.694145
O9    O     O_R   0.675960 0.405070 0.586070 -0.529313
C4    C     C_R   0.844691 0.383675 0.615260 0.698349
V2    V     V_3+5 0.564340 0.489110 0.500000 1.441140
O10   O     O_3   0.839370 0.558680 0.500000 -0.358802
C5    C     C_R   0.013170 0.315065 0.738907 -0.034066
C6    C     C_R   0.853361 0.318583 0.686075 -0.130049
C7    C     C_R   0.701893 0.256944 0.702108 -0.124263
C8    C     C_R   0.714051 0.191912 0.766724 -0.216742
H1    H     H_    0.600039 0.142775 0.774895 0.183433
C9    C     C_R   0.878631 0.185135 0.816580 -0.062785
C10   C     C_R   0.027873 0.247015 0.800380 -0.049070
C11   C     C_3   0.233428 0.226716 0.779824 0.252375
C12   C     C_3   0.220459 0.305626 0.715134 0.260790
C13   C     C_R   0.040833 0.231416 0.211762 -0.231696
C14   C     C_R   0.031549 0.294874 0.276922 -0.155505
C15   C     C_R   0.856349 0.313655 0.317228 -0.107022
C16   C     C_R   0.691313 0.266340 0.291415 -0.243552
C17   C     C_R   0.700058 0.200468 0.227732 0.476039
C18   C     C_R   0.876078 0.183725 0.185519 -0.149550
C19   C     C_R   0.183267 0.714560 0.725790 0.387071
C20   C     C_R   0.193806 0.785493 0.785009 0.392716
C21   C     C_R   0.374344 0.814082 0.816345 -0.221143
C22   C     C_R   0.540267 0.776789 0.780363 -0.233971
H2    H     H_    0.679289 0.795066 0.803607 0.223915
C23   C     C_R   0.528941 0.716513 0.713159 -0.234738
C24   C     C_R   0.351530 0.683404 0.685356 -0.228242
C25   C     C_R   0.189914 0.737702 0.291791 0.474497
C26   C     C_R   0.203110 0.799519 0.224951 -0.239849
C27   C     C_R   0.379043 0.815946 0.184638 -0.119789
C28   C     C_R   0.542735 0.768116 0.211789 -0.154332
C29   C     C_R   0.529929 0.704249 0.276590 -0.216931
C30   C     C_R   0.354129 0.687411 0.317297 -0.154138
O11   O     O_R   0.229200 0.915950 0.913350 -0.507283
O12   O     O_R   0.559090 0.905000 0.086080 -0.546855
O13   O     O_R   0.729280 0.083880 0.086680 -0.508358
C31   C     C_R   0.390174 0.883137 0.115126 0.698631
O14   O     O_R   0.558920 0.904980 0.913920 -0.547934
O15   O     O_R   0.729110 0.083860 0.913300 -0.548746
C32   C     C_R   0.389309 0.882746 0.885027 0.750229
O16   O     O_R   0.229360 0.915970 0.086730 -0.546107
O17   O     O_3   0.395680 0.058580 0.000030 -0.361474
V3    V     V_3+5 0.670570 0.989070 0.999990 1.461555
O18   O     O_R   0.058820 0.094950 0.913870 -0.526045
C33   C     C_R   0.890275 0.116013 0.884330 0.698617
O19   O     O_R   0.058990 0.094970 0.086020 -0.547794
C34   C     C_R   0.889369 0.116506 0.115512 0.699580
V4    V     V_3+5 0.170560 0.010930 0.999930 1.483087
O20   O     O_3   0.895590 0.941310 0.999960 -0.366217
H3    H     H_    0.578539 0.255670 0.661702 0.141261
O21   O     O_3   0.532569 0.157079 0.203695 -0.552988
C35   C     C_3   0.493148 0.085225 0.259998 -0.254146
H4    H     H_    0.613008 0.034437 0.261948 0.117661
H5    H     H_    0.362784 0.048388 0.238682 0.153730
H6    H     H_    0.462510 0.112176 0.323229 0.118275
O22   O     O_3   0.005752 0.678585 0.706121 -0.552182
C36   C     C_3   0.971309 0.602576 0.758658 -0.225841
H7    H     H_    0.961409 0.624226 0.824732 0.138887
H8    H     H_    0.083079 0.548642 0.750859 0.147437
H9    H     H_    0.832265 0.570690 0.741575 0.149906
O23   O     O_3   0.024869 0.823804 0.813834 -0.546500
C37   C     C_3   0.981092 0.900446 0.763385 -0.216783
H10   H     H_    0.952162 0.879220 0.698285 0.123994
H11   H     H_    0.097399 0.952534 0.765389 0.152255
H12   H     H_    0.849773 0.934341 0.787706 0.146940
H13   H     H_    0.659530 0.695099 0.682932 0.217440
O24   O     O_3   0.012907 0.722588 0.328379 -0.555395
C38   C     C_3   0.972144 0.796039 0.382686 -0.257518
H14   H     H_    0.951174 0.861507 0.348098 0.116393
H15   H     H_    0.086557 0.804028 0.430349 0.119351
H16   H     H_    0.835944 0.780732 0.415827 0.164555
H17   H     H_    0.074189 0.835033 0.205132 0.131621
H18   H     H_    0.680801 0.778992 0.182236 0.145268
H19   H     H_    0.658245 0.667068 0.294225 0.193515
O25   O     O_3   0.258614 0.133722 0.752691 -0.556493
C39   C     C_3   0.211461 0.116500 0.668942 -0.328518
H20   H     H_    0.324474 0.143739 0.626945 0.127973
H21   H     H_    0.066490 0.142839 0.652630 0.148142
H22   H     H_    0.209655 0.041249 0.658705 0.151760
H23   H     H_    0.326035 0.240127 0.834195 0.084422
H24   H     H_    0.233903 0.286223 0.649052 0.079165
O26   O     O_3   0.330724 0.387040 0.728818 -0.543576
C40   C     C_3   0.346257 0.415278 0.812438 -0.290668
H25   H     H_    0.463957 0.377286 0.843786 0.148999
H26   H     H_    0.209268 0.409331 0.847513 0.123297
H27   H     H_    0.387465 0.488941 0.813151 0.156898
H28   H     H_    0.177551 0.220454 0.181263 0.194328
H29   H     H_    0.161852 0.330215 0.294894 0.136442
H30   H     H_    0.554010 0.279834 0.320817 0.132167

loop_
_geom_bond_atom_site_label_1
_geom_bond_atom_site_label_2
_ccdc_geom_bond_type
C39   H20   S    
C35   H5    S    
C12   O26   S    
O26   C40   S    
O18   V4    S    
C37   H10   S    
C4    C6    S    
C22   H2    S    
C1    O6    A    
O17   V4    S    
V3    O20   S    
O17   V3    S    
C14   H29   S    
C13   C14   A    
O21   C35   S    
C3    C15   S    
C18   C34   S    
C15   C16   A    
C22   C23   A    
C23   C24   A    
C21   C22   A    
O13   V3    S    
C17   O21   S    
O5    C3    A    
C17   C18   A    
O19   V4    S    
O11   C32   A    
O14   V3    S    
C6    C7    A    
C27   C28   A    
C20   O23   S    
O8    V2    S    
C7    C8    A    
C36   H7    S    
O14   C32   A    
C10   C11   S    
O1    V2    S    
C19   C24   A    
O7    V1    S    
C35   H6    S    
V4    O20   S    
O9    C4    A    
C37   H11   S    
C26   H17   S    
C5    C6    A    
O12   C31   A    
O22   C36   S    
C29   H19   S    
C25   O24   S    
C28   H18   S    
C11   C12   S    
C25   C26   A    
O4    C2    A    
O25   C39   S    
C9    C33   S    
C40   H27   S    
C23   H13   S    
O15   C33   A    
C38   H14   S    
O2    C1    A    
C29   C30   A    
C16   C17   A    
O16   V4    S    
C31   O16   A    
O12   V3    S    
O18   C33   A    
C20   C21   A    
C21   C32   S    
C5    C10   A    
C2    C30   S    
C40   H26   S    
O3    C4    A    
C13   H28   S    
C19   O22   S    
C26   C27   A    
C8    C9    A    
O6    V2    S    
C39   H21   S    
C37   H12   S    
C28   C29   A    
O2    V1    S    
C11   H23   S    
C38   H15   S    
O11   V4    S    
C12   H24   S    
C16   H30   S    
O1    C2    A    
C1    C24   S    
O23   C37   S    
O5    V1    S    
C38   H16   S    
O8    C3    A    
C25   C30   A    
C5    C12   S    
C19   C20   A    
O9    V2    S    
O7    V2    S    
O4    V1    S    
O15   V3    S    
O3    V1    S    
V1    O10   S    
O13   C34   A    
O24   C38   S    
O19   C34   A    
C7    H3    S    
C36   H9    S    
C27   C31   S    
C40   H25   S    
C35   H4    S    
C13   C18   A    
C8    H1    S    
C36   H8    S    
C39   H22   S    
C14   C15   A    
C9    C10   A    
C11   O25   S    
V2    O10   S    
