data_mof_unit_46409.cif
_audit_creation_date              2012-10-26T18:32:43-0400
_audit_creation_method            fapswitch 2.2
_symmetry_space_group_name_H-M    P1
_symmetry_Int_Tables_number       1
_space_group_crystal_system       triclinic
_cell_length_a                    13.814722
_cell_length_b                    13.793347
_cell_length_c                    15.041289
_cell_angle_alpha                 91.488482
_cell_angle_beta                  88.778988
_cell_angle_gamma                 86.09419
_cell_volume                      2857.74923492

loop_
_atom_site_label
_atom_site_type_symbol
_atom_type_description
_atom_site_fract_x
_atom_site_fract_y
_atom_site_fract_z
_atom_type_partial_charge
C1    C     C_R   0.501153 0.494348 0.329187 0.552096
C2    C     C_R   0.544896 0.327178 0.938752 0.212555
C3    C     C_R   0.791961 0.558720 0.442621 0.115976
C4    C     C_R   0.207924 0.442170 0.558120 0.116345
C5    C     C_R   0.795364 0.443367 0.557455 0.023132
C6    C     C_R   0.204514 0.557952 0.443618 0.023614
C7    C     C_R   0.897956 0.443871 0.561241 -0.022567
C8    C     C_R   0.101542 0.561460 0.443198 -0.022767
C9    C     C_R   0.948104 0.502167 0.501933 0.027688
C10   C     C_R   0.051479 0.502244 0.501766 0.027734
C11   C     C_R   0.894948 0.560414 0.442597 -0.037109
C12   C     C_R   0.498905 0.505164 0.670808 0.550698
C13   C     C_R   0.104726 0.442628 0.559977 -0.036810
C14   C     C_R   0.951912 0.386780 0.621879 -0.024106
C15   C     C_R   0.047226 0.621502 0.385063 -0.024775
C16   C     C_R   0.514794 0.317460 0.503480 0.560027
C17   C     C_R   0.485183 0.682583 0.496853 0.559048
C18   C     C_R   0.053614 0.385311 0.619432 -0.150677
C19   C     C_R   0.945826 0.619653 0.384786 -0.150108
C20   C     C_1   0.477425 0.785050 0.489268 -0.027785
C21   C     C_1   0.522443 0.215120 0.512087 -0.020859
C22   C     C_2   0.464143 0.976018 0.483253 0.253443
C23   C     C_R   0.498186 0.501858 0.953253 -0.031099
C24   C     C_2   0.535226 0.024267 0.519599 0.255489
C25   C     C_1   0.529088 0.128558 0.517552 -0.021029
C26   C     C_1   0.470578 0.871689 0.484626 -0.026361
C27   C     C_R   0.528027 0.423406 0.808301 -0.116894
C28   C     C_R   0.471494 0.575431 0.191656 -0.135913
C29   C     C_R   0.497998 0.508284 0.767357 -0.027618
C30   C     C_R   0.501901 0.490720 0.232531 -0.013663
C31   C     C_R   0.469140 0.593266 0.817421 -0.044913
C32   C     C_R   0.528920 0.405030 0.182654 -0.039318
C33   C     C_R   0.474268 0.592578 0.912125 -0.046772
C34   C     C_R   0.497113 0.495416 0.046800 -0.021761
C35   C     C_R   0.522770 0.404920 0.087813 -0.028126
C36   C     C_R   0.427025 0.678014 0.769670 0.037165
C37   C     C_R   0.325905 0.694017 0.764283 -0.081525
C38   C     C_R   0.285807 0.777096 0.723785 -0.110754
C39   C     C_R   0.346366 0.845319 0.690269 -0.104092
C40   C     C_R   0.447080 0.829177 0.695172 -0.103650
C41   C     C_R   0.487542 0.744000 0.731586 -0.080178
C42   C     C_R   0.570065 0.320464 0.231168 0.040894
C43   C     C_R   0.508803 0.254544 0.268332 -0.073924
C44   C     C_R   0.548551 0.170278 0.306827 -0.103126
C45   C     C_R   0.524487 0.417580 0.900484 0.036726
C46   C     C_R   0.649076 0.155045 0.314644 -0.103092
C47   C     C_R   0.710187 0.223335 0.282137 -0.106004
C48   C     C_R   0.670932 0.305513 0.239682 -0.077985
C49   C     C_R   0.454433 0.778389 0.935499 0.096880
C50   C     C_R   0.542848 0.819929 0.918686 -0.090207
C51   C     C_R   0.543664 0.917608 0.896066 -0.109970
C52   C     C_R   0.456489 0.974758 0.891550 -0.096067
C53   C     C_R   0.368395 0.934578 0.910423 -0.113268
C54   C     C_R   0.367249 0.836958 0.933148 -0.041959
C55   C     C_R   0.538778 0.219416 0.066630 0.043673
C56   C     C_R   0.469698 0.579866 0.099485 0.004181
C57   C     C_R   0.625314 0.161373 0.077025 -0.102713
C58   C     C_R   0.622066 0.064461 0.101490 -0.115710
C59   C     C_R   0.532708 0.024714 0.115219 -0.087794
C60   C     C_R   0.446416 0.081589 0.103866 -0.105005
C61   C     C_R   0.449289 0.178357 0.078866 -0.093628
C62   C     C_R   0.738716 0.620761 0.378255 0.085149
C63   C     C_R   0.732913 0.588183 0.289267 -0.083676
C64   C     C_R   0.693486 0.650166 0.225295 -0.119837
C65   C     C_R   0.662494 0.746088 0.248902 -0.113002
C66   C     C_R   0.673159 0.780796 0.336007 -0.125804
C67   C     C_R   0.455005 0.677601 0.967649 0.018286
C68   C     C_R   0.712933 0.719007 0.400052 -0.076865
C69   C     C_R   0.261365 0.377616 0.620368 0.084648
C70   C     C_R   0.284403 0.279452 0.596276 -0.079331
C71   C     C_R   0.323556 0.215037 0.658507 -0.127405
C72   C     C_R   0.336574 0.247153 0.746033 -0.106036
C73   C     C_R   0.308590 0.343159 0.771897 -0.116659
C74   C     C_R   0.269695 0.407749 0.709780 -0.084258
C75   C     C_R   0.904457 0.329678 0.690567 0.016081
C76   C     C_R   0.843212 0.376809 0.756507 -0.109590
C77   C     C_R   0.798722 0.322928 0.821330 -0.099162
C78   C     C_R   0.540815 0.319194 0.032218 -0.017703
C79   C     C_R   0.815626 0.221879 0.821275 -0.086627
C80   C     C_R   0.877207 0.174588 0.756493 -0.114728
C81   C     C_R   0.921824 0.228204 0.691482 -0.099505
C82   C     C_R   0.093625 0.688022 0.323916 0.018299
C83   C     C_R   0.142652 0.766466 0.357803 -0.104785
C84   C     C_R   0.185495 0.829556 0.299830 -0.113117
C85   C     C_R   0.179024 0.815297 0.207872 -0.111702
C86   C     C_R   0.129956 0.737732 0.173698 -0.118176
C87   C     C_R   0.086978 0.674455 0.231433 -0.096916
C88   C     C_R   0.446041 0.669417 0.059790 0.215749
Cu1   Cu    Cu3+1 0.597420 0.500010 0.499990 0.949812
Cu2   Cu    Cu3+1 0.402580 0.499990 0.500010 0.949958
H1    H     H_    0.550294 0.360147 0.766514 0.179869
H2    H     H_    0.207828 0.789628 0.720166 0.099787
H3    H     H_    0.315372 0.910832 0.660879 0.110729
H4    H     H_    0.493956 0.882715 0.670837 0.157472
H5    H     H_    0.565687 0.732009 0.734569 0.110769
H6    H     H_    0.430794 0.265978 0.263282 0.112225
H7    H     H_    0.501284 0.116807 0.330627 0.157305
H8    H     H_    0.679497 0.090220 0.345586 0.113722
H9    H     H_    0.787998 0.211555 0.288109 0.103060
H10   H     H_    0.718911 0.356291 0.211910 0.089748
H11   H     H_    0.610886 0.776665 0.923328 0.093166
H12   H     H_    0.454091 0.639399 0.233793 0.133946
H13   H     H_    0.611891 0.949197 0.882660 0.108609
H14   H     H_    0.457308 0.050419 0.874412 0.130964
H15   H     H_    0.301046 0.979233 0.907944 0.095003
H16   H     H_    0.298755 0.806911 0.949028 0.098764
H17   H     H_    0.694880 0.191053 0.065149 0.095133
H18   H     H_    0.688816 0.020110 0.109603 0.101424
H19   H     H_    0.530302 0.949666 0.133972 0.142392
H20   H     H_    0.377304 0.050375 0.113566 0.115899
H21   H     H_    0.382008 0.221237 0.068665 0.101641
H22   H     H_    0.368507 0.736522 0.153202 0.318475
H23   H     H_    0.755662 0.397372 0.600023 0.147210
H24   H     H_    0.597411 0.193061 0.912031 0.324297
H25   H     H_    0.758941 0.514788 0.269752 0.098276
H26   H     H_    0.687406 0.623934 0.157325 0.116547
H27   H     H_    0.631798 0.793934 0.199355 0.130448
H28   H     H_    0.651550 0.855854 0.353699 0.128578
H29   H     H_    0.723487 0.747511 0.466673 0.134631
H30   H     H_    0.272074 0.253014 0.529301 0.133117
H31   H     H_    0.342844 0.139966 0.639095 0.132266
H32   H     H_    0.366704 0.197251 0.794181 0.135149
H33   H     H_    0.316382 0.367392 0.840236 0.120492
H34   H     H_    0.244487 0.600959 0.398514 0.144335
H35   H     H_    0.245876 0.481219 0.731111 0.101550
H36   H     H_    0.829857 0.455134 0.757478 0.107487
H37   H     H_    0.751396 0.359549 0.871736 0.122210
H38   H     H_    0.781342 0.180257 0.871608 0.105050
H39   H     H_    0.890419 0.096346 0.756679 0.102553
H40   H     H_    0.969277 0.190723 0.641571 0.106604
H41   H     H_    0.147693 0.778540 0.428957 0.107518
H42   H     H_    0.223495 0.889641 0.326166 0.104928
H43   H     H_    0.212198 0.864227 0.163083 0.119035
H44   H     H_    0.125174 0.726699 0.102460 0.102551
H45   H     H_    0.092016 0.339624 0.666362 0.123557
H46   H     H_    0.049027 0.614669 0.204199 0.103718
H47   H     H_    0.907269 0.666737 0.339035 0.125151
H48   H     H_    0.658525 0.022328 0.578851 0.322062
H49   H     H_    0.340617 0.978044 0.424446 0.313955
H50   H     H_    0.278431 0.643305 0.792959 0.090788
N1    N     N_R   0.743820 0.499960 0.499930 -0.246927
N2    N     N_R   0.256180 0.500040 0.500070 -0.246365
O1    O     O_R   0.582280 0.500030 0.370250 -0.488750
O2    O     O_3   0.385007 0.026175 0.446948 -0.757730
O3    O     O_3   0.420017 0.752585 0.110342 -0.734579
O4    O     O_3   0.561949 0.246722 0.881791 -0.747400
O5    O     O_R   0.417720 0.499970 0.629750 -0.487634
O6    O     O_R   0.417740 0.500020 0.370270 -0.511745
O7    O     O_R   0.582260 0.499980 0.629730 -0.513918
O8    O     O_R   0.593900 0.362160 0.500010 -0.498164
O9    O     O_R   0.406100 0.637840 0.499990 -0.500051
O10   O     O_R   0.429360 0.362150 0.500030 -0.492990
O11   O     O_R   0.570640 0.637850 0.499970 -0.493129
O12   O     O_3   0.614250 0.974161 0.556150 -0.753562

loop_
_geom_bond_atom_site_label_1
_geom_bond_atom_site_label_2
_ccdc_geom_bond_type
C66   C68   A    
C79   H38   S    
C34   C56   A    
C16   C21   S    
C23   C45   A    
C12   C29   S    
C27   C29   A    
C76   H36   S    
C73   C74   A    
C14   C18   A    
C3    N1    A    
C6    H34   S    
C43   C44   A    
C17   O11   A    
C28   C56   A    
C53   C54   A    
C15   C19   A    
C11   C19   A    
C67   C88   A    
C37   C38   A    
C13   C18   A    
C64   H26   S    
C12   O5    A    
C36   C37   A    
C68   H29   S    
C4    N2    A    
C38   C39   A    
C56   C88   A    
C74   H35   S    
C51   H13   S    
C82   C87   A    
C38   H2    S    
C17   C20   S    
C47   H9    S    
H22   O3    S    
C34   C35   A    
C44   H7    S    
C4    C13   A    
C49   C50   A    
C39   H3    S    
Cu2   O6    S    
Cu1   O11   S    
C86   H44   S    
C7    C14   A    
C52   H14   S    
C83   C84   A    
C70   H30   S    
C73   H33   S    
C37   H50   S    
C88   O3    S    
C31   C33   A    
C24   C25   S    
C27   H1    S    
C70   C71   A    
C6    N2    A    
C9    C10   A    
C77   H37   S    
C63   H25   S    
H48   O12   S    
Cu1   O7    S    
C46   H8    S    
C59   C60   A    
C36   C41   A    
C17   O9    A    
C12   O7    A    
C4    C69   S    
C44   C46   A    
C50   C51   A    
C15   C82   S    
C77   C79   A    
C2    C45   A    
C48   H10   S    
C54   H16   S    
C63   C64   A    
C51   C52   A    
C32   C35   A    
C69   C74   A    
C3    C11   A    
C84   C85   A    
H24   O4    S    
Cu2   O10   S    
C39   C40   A    
C5    C7    A    
C55   C78   S    
C86   C87   A    
C80   C81   A    
C6    C8    A    
C24   O12   S    
C23   C33   A    
C58   C59   A    
Cu1   O1    S    
C84   H42   S    
Cu2   O9    S    
C60   C61   A    
C75   C76   A    
C83   H41   S    
Cu2   O5    S    
C2    C78   A    
C28   H12   S    
H49   O2    S    
C5    N1    A    
C47   C48   A    
C19   H47   S    
C23   C34   A    
C62   C63   A    
C43   H6    S    
C18   H45   S    
C16   O10   A    
C5    H23   S    
C42   C48   A    
C76   C77   A    
C9    C11   A    
C85   C86   A    
Cu2   N2    S    
C40   C41   A    
C57   H17   S    
C65   C66   A    
C8    C15   A    
C55   C57   A    
C22   C26   S    
C22   C24   D    
C42   C43   A    
C61   H21   S    
C52   C53   A    
C33   C67   A    
C3    C62   S    
C7    C9    A    
C21   C25   T    
C46   C47   A    
Cu1   O8    S    
C65   H27   S    
C80   H39   S    
C49   C67   S    
C72   H32   S    
C87   H46   S    
C71   H31   S    
C75   C81   A    
C40   H4    S    
C72   C73   A    
C10   C13   A    
C1    O1    A    
C2    O4    S    
C35   C78   A    
C62   C68   A    
C64   C65   A    
C28   C30   A    
C71   C72   A    
C29   C31   A    
C14   C75   S    
C30   C32   A    
C27   C45   A    
C57   C58   A    
C41   H5    S    
C20   C26   T    
Cu1   N1    S    
C55   C61   A    
C1    C30   S    
C59   H19   S    
C58   H18   S    
C69   C70   A    
C60   H20   S    
C81   H40   S    
C79   C80   A    
C53   H15   S    
C50   H11   S    
C8    C10   A    
C82   C83   A    
C66   H28   S    
C22   O2    S    
C32   C42   S    
C31   C36   S    
C1    O6    A    
C16   O8    A    
Cu1   Cu2   S    
C49   C54   A    
C85   H43   S    
