data_mof_unit_66323.cif
_audit_creation_date              2013-03-05T16:08:03-0500
_audit_creation_method            fapswitch 2.2
_symmetry_space_group_name_H-M    P1
_symmetry_Int_Tables_number       1
_space_group_crystal_system       triclinic
_cell_length_a                    16.011864
_cell_length_b                    14.434863
_cell_length_c                    13.148702
_cell_angle_alpha                 89.998733
_cell_angle_beta                  89.969723
_cell_angle_gamma                 90.001448
_cell_volume                      3039.04674972

loop_
_atom_site_label
_atom_site_type_symbol
_atom_site_description
_atom_site_fract_x
_atom_site_fract_y
_atom_site_fract_z
_atom_type_partial_charge
O1    O     O_R   0.499990 0.376050 0.578280 -0.556063
O2    O     O_R   0.500010 0.623950 0.421720 -0.556064
O3    O     O_R   0.500010 0.376050 0.421720 -0.555780
O4    O     O_R   0.499990 0.623950 0.578280 -0.555780
C1    C     C_1   0.500000 0.227124 0.500002 -0.178967
C2    C     C_1   0.500000 0.772876 0.499997 -0.178967
C3    C     C_R   0.500000 0.328709 0.500001 0.844903
C4    C     C_R   0.500000 0.671291 0.499999 0.844904
O5    O     O_R   0.379070 0.500000 0.578250 -0.558321
O6    O     O_R   0.620930 0.500000 0.421750 -0.558322
O7    O     O_R   0.379080 0.500000 0.421720 -0.563075
O8    O     O_R   0.620920 0.500000 0.578280 -0.563074
C5    C     C_R   0.337934 0.499989 0.500005 0.849347
C6    C     C_R   0.662066 0.500011 0.499994 0.849347
Cu1   Cu    Cu3+1 0.499990 0.500000 0.592680 1.017929
Cu2   Cu    Cu3+1 0.500010 0.500000 0.407320 1.017929
C7    C     C_1   0.500000 0.142314 0.500002 0.025014
C8    C     C_1   0.500000 0.857686 0.499998 0.025014
N1    N     N_1   0.500020 0.500000 0.268070 -0.121270
N2    N     N_1   0.499980 0.500000 0.731930 -0.121270
C9    C     C_1   0.500015 0.500000 0.173628 0.188407
C10   C     C_1   0.499985 0.500000 0.826372 0.188407
C11   C     C_1   0.500000 0.042402 0.500001 0.035861
C12   C     C_1   0.500000 0.957598 0.499999 0.035861
C13   C     C_3   0.971725 0.426572 0.551051 0.245624
C14   C     C_3   0.028275 0.573427 0.448949 0.245624
C15   C     C_3   0.028259 0.422788 0.456184 0.245166
C16   C     C_3   0.971741 0.577212 0.543816 0.245166
C17   C     C_1   0.500005 0.500000 0.050682 -0.024908
C18   C     C_1   0.499995 0.500000 0.949318 -0.024908
C19   C     C_1   0.249266 0.499997 0.500100 -0.134779
C20   C     C_1   0.750734 0.500003 0.499899 -0.134779
C21   C     C_3   0.026680 0.503825 0.596051 0.160332
C22   C     C_3   0.973319 0.496175 0.403949 0.160332
C23   C     C_3   0.083905 0.500044 0.501263 -0.123957
C24   C     C_3   0.916095 0.499956 0.498737 -0.123957
C25   C     C_1   0.174530 0.500012 0.500467 0.210609
C26   C     C_1   0.825470 0.499988 0.499533 0.210609
O9    O     O_3   0.058206 0.341833 0.410652 -0.653661
H1    H     H_    0.007754 0.306761 0.390086 0.360710
O10   O     O_3   0.941793 0.658167 0.589348 -0.653661
H2    H     H_    0.992246 0.693239 0.609914 0.360710
O11   O     O_3   0.941759 0.349557 0.604178 -0.652896
H3    H     H_    0.992206 0.316204 0.627956 0.361081
O12   O     O_3   0.058241 0.650442 0.395822 -0.652896
H4    H     H_    0.007793 0.683795 0.372044 0.361081
N3    N     N_R   0.946757 0.491962 0.298123 0.164364
O13   O     O_R   0.002316 0.489097 0.226042 -0.251112
O14   O     O_R   0.867811 0.491009 0.275072 -0.334559
N4    N     N_R   0.053242 0.508038 0.701877 0.164364
O15   O     O_R   0.997684 0.510903 0.773958 -0.251112
O16   O     O_R   0.132189 0.508991 0.724928 -0.334559

loop_
_geom_bond_atom_site_label_1
_geom_bond_atom_site_label_2
_geom_bond_distance
_ccdc_geom_bond_type
N4    O16   1.300144 A    
C11   C12   1.224144 T    
O10   H2    0.991083 S    
C17   C18   1.332796 T    
O1    Cu1   1.799196 S    
C20   C26   1.196663 T    
C13   C15   1.541799 S    
O2    Cu2   1.799196 S    
O7    Cu2   1.945452 S    
C14   C23   1.545744 S    
C14   C16   1.541799 S    
N3    O13   1.300187 A    
O8    Cu1   1.945450 S    
C13   C21   1.538970 S    
O4    C4    1.235471 A    
C15   C23   1.545760 S    
C13   O11   1.397734 S    
O4    Cu1   1.799188 S    
C24   C26   1.451109 S    
N4    O15   1.300187 A    
O5    Cu1   1.945527 S    
N3    O14   1.300144 A    
O6    Cu2   1.945527 S    
O12   H4    0.991109 S    
C5    C19   1.419749 S    
O7    C5    1.221840 A    
C7    C11   1.442216 S    
O11   H3    0.991109 S    
Cu2   N1    1.830957 S    
C8    C12   1.442216 S    
C23   C25   1.451109 S    
O8    C6    1.221841 A    
C16   C21   1.538969 S    
O3    C3    1.235472 A    
C22   C24   1.547484 S    
C15   C22   1.538969 S    
Cu1   N2    1.830957 S    
C2    C8    1.224209 T    
C1    C7    1.224209 T    
C13   C24   1.545744 S    
Cu1   Cu2   2.437245 S    
C16   O10   1.397739 S    
C6    C20   1.419749 S    
C16   C24   1.545760 S    
O6    C6    1.221885 A    
C15   O9    1.397739 S    
O9    H1    0.991083 S    
C1    C3    1.466377 S    
O5    C5    1.221886 A    
C2    C4    1.466377 S    
C22   N3    1.456500 S    
C10   C18   1.616582 S    
C14   O12   1.397734 S    
C21   C23   1.547484 S    
C21   N4    1.456500 S    
O1    C3    1.235476 A    
C9    C17   1.616582 S    
C14   C22   1.538970 S    
O2    C4    1.235475 A    
O3    Cu2   1.799188 S    
C19   C25   1.196663 T    
N2    C10   1.241792 T    
N1    C9    1.241792 T    
