data_mof_unit_13577.cif
_audit_creation_date              2012-12-11T15:06:40-0500
_audit_creation_method            fapswitch 2.2
_symmetry_space_group_name_H-M    P1
_symmetry_Int_Tables_number       1
_space_group_crystal_system       triclinic
_cell_length_a                    7.239084
_cell_length_b                    14.8136
_cell_length_c                    22.50275
_cell_angle_alpha                 90.00044
_cell_angle_beta                  89.997097
_cell_angle_gamma                 88.939002
_cell_volume                      2412.71129591

loop_
_atom_site_label
_atom_site_type_symbol
_atom_type_description
_atom_site_fract_x
_atom_site_fract_y
_atom_site_fract_z
_atom_type_partial_charge
O1    O     O_R   0.390810 0.844810 0.447340 -0.534071
O2    O     O_R   0.109190 0.155190 0.947340 -0.534073
O3    O     O_R   0.890810 0.655190 0.552660 -0.535367
O4    O     O_R   0.609190 0.344810 0.052660 -0.535376
O5    O     O_R   0.720550 0.655820 0.440420 -0.539181
O6    O     O_R   0.779450 0.344180 0.940420 -0.539172
O7    O     O_R   0.220550 0.844180 0.559580 -0.534584
O8    O     O_R   0.279450 0.155820 0.059580 -0.534597
C1    C     C_R   0.553688 0.626146 0.426437 0.658707
C2    C     C_R   0.946320 0.373850 0.926436 0.658712
C3    C     C_R   0.050808 0.873563 0.573627 0.659839
C4    C     C_R   0.449185 0.126438 0.073628 0.659859
O9    O     O_R   0.720530 0.844130 0.440420 -0.535403
O10   O     O_R   0.779470 0.155870 0.940420 -0.535398
O11   O     O_R   0.220530 0.655870 0.559580 -0.535892
O12   O     O_R   0.279470 0.344130 0.059580 -0.535890
O13   O     O_R   0.890830 0.844810 0.552660 -0.535584
O14   O     O_R   0.609170 0.155190 0.052660 -0.535569
O15   O     O_R   0.390830 0.655190 0.447340 -0.530513
O16   O     O_R   0.109170 0.344810 0.947340 -0.530520
C5    C     C_R   0.550823 0.873547 0.426366 0.678006
C6    C     C_R   0.949185 0.126450 0.926367 0.678000
C7    C     C_R   0.053619 0.626663 0.573913 0.675799
C8    C     C_R   0.446373 0.373337 0.073914 0.675768
O17   O     O_3   0.557310 0.749980 0.536820 -0.373201
O18   O     O_3   0.942690 0.250020 0.036820 -0.373206
O19   O     O_3   0.057310 0.750020 0.463180 -0.372175
O20   O     O_3   0.442690 0.249980 0.963180 -0.372169
V1    V     V_3+5 0.832160 0.749980 0.493170 1.428003
V2    V     V_3+5 0.667840 0.250020 0.993170 1.427969
V3    V     V_3+5 0.332160 0.750020 0.506830 1.430308
V4    V     V_3+5 0.167840 0.249980 0.006830 1.430301
C9    C     C_R   0.864719 0.605294 0.858797 -0.139360
C10   C     C_R   0.635796 0.394774 0.358756 -0.139426
C11   C     C_R   0.521863 0.890839 0.135431 -0.138864
C12   C     C_R   0.977772 0.109128 0.635434 -0.138956
H1    H     H_    0.833914 0.724689 0.771799 0.128532
H2    H     H_    0.666799 0.275417 0.271739 0.128533
H3    H     H_    0.588461 0.768737 0.218808 0.129055
H4    H     H_    0.910922 0.231201 0.718814 0.129052
H5    H     H_    0.813327 0.671635 0.871826 0.162003
H6    H     H_    0.687442 0.328471 0.371764 0.162008
H7    H     H_    0.544006 0.822345 0.119565 0.164102
H8    H     H_    0.955458 0.177605 0.619569 0.164093
C13   C     C_R   0.946932 0.450469 0.884208 -0.116569
C14   C     C_R   0.553120 0.549526 0.384209 -0.116590
C15   C     C_R   0.463736 0.049722 0.115442 -0.114039
C16   C     C_R   0.036221 0.950281 0.615440 -0.114032
C17   C     C_R   0.122895 0.467830 0.598132 -0.123319
C18   C     C_R   0.376810 0.532135 0.098162 -0.123322
C19   C     C_R   0.507025 0.035835 0.406831 -0.134774
C20   C     C_R   0.993364 0.964185 0.906835 -0.134739
C21   C     C_R   0.145711 0.396665 0.637836 -0.096888
C22   C     C_R   0.353856 0.603280 0.137880 -0.096900
C23   C     C_R   0.475407 0.108989 0.369270 -0.085311
C24   C     C_R   0.025159 0.891049 0.869273 -0.085352
C25   C     C_R   0.101842 0.407745 0.697699 -0.182382
C26   C     C_R   0.397819 0.592209 0.197733 -0.182379
C27   C     C_R   0.470182 0.097087 0.307863 -0.180060
C28   C     C_R   0.030232 0.902947 0.807863 -0.180128
C29   C     C_R   0.028760 0.490576 0.719450 0.086557
C30   C     C_R   0.471147 0.509411 0.219460 0.086578
C31   C     C_R   0.500563 0.010998 0.282021 0.084193
C32   C     C_R   0.999537 0.989006 0.782023 0.084218
C33   C     C_R   0.004114 0.563470 0.678127 0.073606
C34   C     C_R   0.495947 0.436542 0.178123 0.073613
C35   C     C_R   0.534853 0.936093 0.321019 0.074316
C36   C     C_R   0.965082 0.063890 0.821023 0.074333
C37   C     C_R   0.981843 0.503830 0.780883 0.079685
C38   C     C_R   0.518177 0.496169 0.280884 0.079682
C39   C     C_R   0.496092 0.996578 0.218942 0.080335
C40   C     C_R   0.003895 0.003420 0.718943 0.080344
C41   C     C_R   0.912393 0.589568 0.799222 0.098238
C42   C     C_R   0.587937 0.410476 0.299196 0.098263
C43   C     C_R   0.526089 0.907858 0.196746 0.096400
C44   C     C_R   0.973659 0.092116 0.696750 0.096417
C45   C     C_R   0.889165 0.659523 0.757993 -0.202227
C46   C     C_R   0.611306 0.340546 0.257953 -0.202251
C47   C     C_R   0.561728 0.836143 0.235749 -0.199999
C48   C     C_R   0.937875 0.163812 0.735755 -0.200040
C49   C     C_R   0.934717 0.646983 0.698572 -0.194060
C50   C     C_R   0.565605 0.353067 0.198545 -0.194122
C51   C     C_R   0.565264 0.849742 0.296788 -0.189219
C52   C     C_R   0.934438 0.150217 0.796795 -0.189273
C53   C     C_R   0.998537 0.434948 0.824712 -0.210030
C54   C     C_R   0.501321 0.565021 0.324727 -0.210048
C55   C     C_R   0.465223 0.066914 0.176933 -0.209577
C56   C     C_R   0.034871 0.933097 0.676931 -0.209588
C57   C     C_R   0.880324 0.536700 0.901584 -0.027758
C58   C     C_R   0.620065 0.463346 0.401555 -0.027706
C59   C     C_R   0.491295 0.960775 0.094363 -0.032377
C60   C     C_R   0.008430 0.039207 0.594362 -0.032351
C61   C     C_R   0.053326 0.551565 0.617335 -0.097496
C62   C     C_R   0.446622 0.448433 0.117340 -0.097487
C63   C     C_R   0.536135 0.949181 0.383644 -0.095065
C64   C     C_R   0.963918 0.050814 0.883648 -0.095061
H9    H     H_    0.045722 0.367559 0.813816 0.103298
H10   H     H_    0.453882 0.632373 0.313850 0.103339
H11   H     H_    0.445900 0.136267 0.190352 0.100477
H12   H     H_    0.054353 0.863755 0.690349 0.100480
H13   H     H_    0.162821 0.457996 0.552126 0.125364
H14   H     H_    0.336790 0.541958 0.052166 0.125266
H15   H     H_    0.506032 0.046641 0.454470 0.123246
H16   H     H_    0.994507 0.953388 0.954475 0.123219
H17   H     H_    0.129350 0.350444 0.725924 0.112878
H18   H     H_    0.370198 0.649488 0.225967 0.112857
H19   H     H_    0.440054 0.156560 0.281928 0.114245
H20   H     H_    0.060532 0.843494 0.781928 0.114248
H21   H     H_    0.201296 0.332550 0.622273 0.139232
H22   H     H_    0.298084 0.667370 0.122336 0.139237
H23   H     H_    0.451814 0.175569 0.387970 0.143491
H24   H     H_    0.049035 0.824492 0.887973 0.143545
H25   H     H_    0.914420 0.703525 0.668665 0.117072
H26   H     H_    0.586013 0.296543 0.168627 0.117163
H27   H     H_    0.593126 0.791812 0.324939 0.108523
H28   H     H_    0.906466 0.208131 0.824948 0.108568
C65   C     C_2   0.826948 0.556001 0.964247 0.380439
H29   H     H_    0.844848 0.504972 0.998435 0.041042
O21   O     O_2   0.762566 0.629592 0.978659 -0.510655
C66   C     C_2   0.673674 0.444075 0.464198 0.380443
H30   H     H_    0.655457 0.495046 0.498412 0.041043
O22   O     O_2   0.738632 0.370578 0.478564 -0.510667
C67   C     C_2   0.489668 0.940227 0.029640 0.379139
H31   H     H_    0.461980 0.993107 0.997325 0.039255
O23   O     O_2   0.518998 0.863610 0.011447 -0.509268
C68   C     C_2   0.009897 0.059744 0.529638 0.379091
H32   H     H_    0.037642 0.006878 0.497319 0.039304
O24   O     O_2   0.980367 0.136337 0.511449 -0.509272

loop_
_geom_bond_atom_site_label_1
_geom_bond_atom_site_label_2
_ccdc_geom_bond_type
O17   V3    S    
C25   H17   S    
C26   C30   A    
C68   H32   S    
C23   C27   A    
O19   V1    S    
O13   V1    S    
O3    C7    A    
C10   H6    S    
C48   C52   A    
O15   V3    S    
C36   C52   A    
C67   H31   S    
O1    C5    A    
C11   C43   A    
O5    C1    A    
C36   C64   A    
C32   C36   A    
O9    V1    S    
C9    C57   A    
C65   O21   D    
C17   H13   S    
O4    C8    A    
C67   O23   D    
C19   H15   S    
O1    V3    S    
C30   C38   A    
O2    V4    S    
O3    V1    S    
C12   C44   A    
C1    O15   A    
C20   H16   S    
C2    O16   A    
C19   C63   A    
C38   C42   A    
C16   C56   A    
C37   C41   A    
O14   V2    S    
C11   H7    S    
O5    V1    S    
C28   H20   S    
O16   V4    S    
C40   C44   A    
C34   C62   A    
C12   C60   A    
O11   C7    A    
C1    C14   S    
O12   C8    A    
C59   C67   S    
C35   C63   A    
C3    C16   S    
C15   C59   A    
O10   V2    S    
C4    C15   S    
C40   C56   A    
C66   O22   D    
C55   H11   S    
C31   C35   A    
C39   C43   A    
O7    V3    S    
C30   C34   A    
O8    V4    S    
C51   H27   S    
C50   H26   S    
C21   C25   A    
O18   V4    S    
C18   C62   A    
H2    C46   S    
H1    C45   S    
C27   H19   S    
C7    C61   S    
C26   H18   S    
C22   H22   S    
C15   C55   A    
O7    C3    A    
C10   C58   A    
O2    C6    A    
C8    C62   S    
C34   C50   A    
C46   C50   A    
C33   C49   A    
C45   C49   A    
O8    C4    A    
C2    C13   S    
H4    C48   S    
O9    C5    A    
C18   C22   A    
C35   C51   A    
C25   C29   A    
C56   H12   S    
C10   C42   A    
C39   C55   A    
C9    C41   A    
O6    V2    S    
C31   C39   A    
C18   H14   S    
C16   C60   A    
C12   H8    S    
C4    O14   A    
C38   C54   A    
C37   C53   A    
C66   H30   S    
C22   C26   A    
C29   C37   A    
C58   C66   S    
C3    O13   A    
C68   O24   D    
C13   C57   A    
C23   H23   S    
C6    C64   S    
C44   C48   A    
C57   C65   S    
C60   C68   S    
O6    C2    A    
O11   V3    S    
C14   C58   A    
O12   V4    S    
C5    C63   S    
C27   C31   A    
C13   C53   A    
C28   C32   A    
C9    H5    S    
O10   C6    A    
O20   V2    S    
C65   H29   S    
C47   C51   A    
C17   C21   A    
C33   C61   A    
C20   C64   A    
C19   C23   A    
C32   C40   A    
C54   H10   S    
C53   H9    S    
C29   C33   A    
C24   C28   A    
C52   H28   S    
C42   C46   A    
C49   H25   S    
C41   C45   A    
C21   H21   S    
C17   C61   A    
C43   C47   A    
C24   H24   S    
O4    V2    S    
C20   C24   A    
H3    C47   S    
C14   C54   A    
C11   C59   A    
