data_mof_unit_63499.cif
_audit_creation_date              2012-12-10T18:09:55-0500
_audit_creation_method            fapswitch 2.2
_symmetry_space_group_name_H-M    P1
_symmetry_Int_Tables_number       1
_space_group_crystal_system       tetragonal
_cell_length_a                    21.642738
_cell_length_b                    21.642738
_cell_length_c                    32.076266
_cell_angle_alpha                 90.0
_cell_angle_beta                  90.0
_cell_angle_gamma                 90.0
_cell_volume                      15024.7830731

loop_
_atom_site_label
_atom_site_type_symbol
_atom_type_description
_atom_site_fract_x
_atom_site_fract_y
_atom_site_fract_z
_atom_type_partial_charge
C1    C     C_R   0.313706 0.500000 0.000000 -0.094997
C2    C     C_R   0.548460 0.217993 0.980725 -0.210968
C3    C     C_1   0.500000 1.000000 0.662148 -0.064062
C4    C     C_1   0.500000 1.000000 0.837852 -0.064036
C5    C     C_1   1.000000 0.500000 0.837852 -0.064034
C6    C     C_1   0.500000 0.000000 0.162148 -0.064035
C7    C     C_1   0.000000 0.500000 0.162148 -0.064035
C8    C     C_1   0.000000 0.500000 0.124805 -0.173120
C9    C     C_1   0.500000 1.000000 0.124805 -0.173120
C10   C     C_1   1.000000 0.500000 0.875195 -0.173120
C11   C     C_1   0.500000 1.000000 0.875195 -0.173120
C12   C     C_1   0.500000 1.000000 0.624805 -0.173153
C13   C     C_R   0.782007 0.548460 0.980724 -0.210973
C14   C     C_1   1.000000 0.500000 0.624805 -0.173154
C15   C     C_1   0.500000 1.000000 0.375195 -0.173154
C16   C     C_1   1.000000 0.500000 0.375195 -0.173154
C17   C     C_1   0.313602 0.400749 0.960157 0.176412
C18   C     C_1   0.599251 0.313602 0.960157 0.176415
C19   C     C_1   0.686398 0.599251 0.960157 0.176412
C20   C     C_1   0.400749 0.686398 0.960157 0.176415
C21   C     C_1   0.313602 0.599251 0.039843 0.176412
C22   C     C_1   0.599251 0.686398 0.039843 0.176412
C23   C     C_1   0.686398 0.400749 0.039843 0.176412
C24   C     C_R   0.451540 0.782007 0.980725 -0.210967
C25   C     C_1   0.400749 0.313602 0.039843 0.176413
C26   C     C_1   0.813602 0.900748 0.460157 0.176447
C27   C     C_1   0.099252 0.813602 0.460157 0.176447
C28   C     C_1   0.186398 0.099251 0.460157 0.176447
C29   C     C_1   0.900748 0.186398 0.460157 0.176447
C30   C     C_1   0.813602 0.099251 0.539843 0.176445
C31   C     C_1   0.099252 0.186398 0.539843 0.176448
C32   C     C_1   0.186398 0.900748 0.539843 0.176445
C33   C     C_1   0.900748 0.813602 0.539843 0.176447
C34   C     C_R   0.217993 0.548460 0.019275 -0.210972
C35   C     C_R   0.548460 0.782007 0.019275 -0.210972
C36   C     C_R   0.782007 0.451540 0.019275 -0.210972
C37   C     C_R   0.451540 0.217993 0.019275 -0.210972
C38   C     C_R   0.717993 0.951540 0.480725 -0.210916
C39   C     C_R   0.048460 0.717993 0.480725 -0.210916
C40   C     C_R   0.282007 0.048460 0.480725 -0.210916
C41   C     C_R   0.500000 0.313706 0.000000 -0.094997
C42   C     C_R   0.951540 0.282007 0.480725 -0.210915
C43   C     C_R   0.717993 0.048460 0.519275 -0.210920
C44   C     C_R   0.048460 0.282007 0.519275 -0.210915
C45   C     C_R   0.282007 0.951540 0.519275 -0.210919
C46   C     C_R   0.951540 0.717993 0.519275 -0.210914
C47   C     C_R   0.281847 0.451490 0.980234 -0.008089
C48   C     C_R   0.548510 0.281847 0.980234 -0.008089
C49   C     C_R   0.718152 0.548510 0.980234 -0.008089
C50   C     C_R   0.451490 0.718152 0.980234 -0.008089
C51   C     C_R   0.281847 0.548510 0.019766 -0.008089
C52   C     C_R   0.686294 0.500000 0.000000 -0.094997
C53   C     C_R   0.548510 0.718152 0.019766 -0.008089
C54   C     C_R   0.718152 0.451490 0.019766 -0.008089
C55   C     C_R   0.451490 0.281847 0.019766 -0.008089
C56   C     C_R   0.781847 0.951490 0.480234 -0.008074
C57   C     C_R   0.048510 0.781847 0.480234 -0.008073
C58   C     C_R   0.218152 0.048510 0.480234 -0.008073
C59   C     C_R   0.951490 0.218152 0.480234 -0.008074
C60   C     C_R   0.781847 0.048510 0.519766 -0.008074
C61   C     C_R   0.048510 0.218152 0.519766 -0.008073
C62   C     C_R   0.218152 0.951490 0.519766 -0.008074
C63   C     C_R   0.500000 0.686294 0.000000 -0.094997
C64   C     C_R   0.951490 0.781847 0.519766 -0.008073
C65   C     C_R   0.120288 0.500000 0.000000 0.881829
C66   C     C_R   0.500000 0.120288 0.000000 0.881832
C67   C     C_R   0.879712 0.500000 0.000000 0.881830
C68   C     C_R   0.500000 0.879712 0.000000 0.881833
C69   C     C_R   0.620288 0.000000 0.500000 0.881928
C70   C     C_R   0.000000 0.620288 0.500000 0.881931
C71   C     C_R   0.379712 0.000000 0.500000 0.881929
C72   C     C_R   1.000000 0.379712 0.500000 0.881932
C73   C     C_R   0.000000 0.500000 0.080503 0.905608
C74   C     C_R   0.813706 0.000000 0.500000 -0.094973
C75   C     C_R   0.500000 0.000000 0.080503 0.905608
C76   C     C_R   0.000000 0.500000 0.919497 0.905606
C77   C     C_R   0.500000 0.000000 0.919497 0.905613
C78   C     C_R   0.500000 0.000000 0.580503 0.905717
C79   C     C_R   0.000000 0.500000 0.580503 0.905723
C80   C     C_R   0.500000 1.000000 0.419496 0.905722
C81   C     C_R   0.000000 0.500000 0.419496 0.905722
C82   C     C_R   0.040780 0.461455 0.271728 -0.176496
C83   C     C_R   0.538542 0.040782 0.271728 -0.176495
C84   C     C_R   0.959220 0.538545 0.271728 -0.176495
C85   C     C_R   0.000000 0.813706 0.500000 -0.094973
C86   C     C_R   0.461457 0.959218 0.271728 -0.176496
C87   C     C_R   0.040838 0.538484 0.728272 -0.176493
C88   C     C_R   0.538665 0.959334 0.728272 -0.176498
C89   C     C_R   0.959162 0.461516 0.728272 -0.176494
C90   C     C_R   0.461335 0.040666 0.728272 -0.176498
C91   C     C_R   0.538664 0.959333 0.771728 -0.176537
C92   C     C_R   0.040839 0.538482 0.771728 -0.176541
C93   C     C_R   0.461336 0.040667 0.771728 -0.176537
C94   C     C_R   0.959161 0.461518 0.771728 -0.176542
C95   C     C_R   0.538541 0.040784 0.228272 -0.176540
C96   C     C_R   0.186294 0.000000 0.500000 -0.094973
C97   C     C_R   0.040781 0.461456 0.228272 -0.176539
C98   C     C_R   0.461459 0.959216 0.228272 -0.176539
C99   C     C_R   0.959219 0.538544 0.228272 -0.176539
C100  C     C_R   0.000000 0.500000 0.293382 0.164421
C101  C     C_R   0.500000 0.000000 0.293382 0.164420
C102  C     C_R   1.000000 0.500000 0.706618 0.164418
C103  C     C_R   0.500000 1.000000 0.706618 0.164425
C104  C     C_R   0.500000 1.000000 0.793382 0.164503
C105  C     C_R   1.000000 0.500000 0.793382 0.164511
C106  C     C_R   0.500000 0.000000 0.206618 0.164509
C107  C     C_R   0.000000 0.186294 0.500000 -0.094973
C108  C     C_R   1.000000 0.500000 0.206618 0.164508
C109  C     C_R   0.186441 0.500000 0.000000 -0.054321
C110  C     C_R   0.500000 0.186441 0.000000 -0.054321
C111  C     C_R   0.813559 0.500000 0.000000 -0.054321
C112  C     C_R   0.500000 0.813559 0.000000 -0.054321
C113  C     C_R   0.686441 0.000000 0.500000 -0.054311
C114  C     C_R   0.000000 0.686441 0.500000 -0.054311
C115  C     C_R   0.313559 0.000000 0.500000 -0.054311
C116  C     C_R   0.000000 0.313559 0.500000 -0.054311
C117  C     C_R   0.500000 0.620208 0.000000 0.882269
C118  C     C_R   0.217993 0.451540 0.980725 -0.210973
C119  C     C_R   0.379791 0.500000 0.000000 0.882269
C120  C     C_R   0.500000 0.379791 0.000000 0.882269
C121  C     C_R   0.620208 0.500000 0.000000 0.882269
C122  C     C_R   1.000000 0.120208 0.500000 0.882203
C123  C     C_R   0.879791 0.000000 0.500000 0.882203
C124  C     C_R   1.000000 0.879791 0.500000 0.882203
C125  C     C_R   0.120208 1.000000 0.500000 0.882203
C126  C     C_1   1.000000 0.500000 0.337852 -0.064063
C127  C     C_1   0.500000 1.000000 0.337852 -0.064063
C128  C     C_1   1.000000 0.500000 0.662148 -0.064064
H1    H     H_    0.072428 0.431547 0.211598 0.145442
H2    H     H_    0.072527 0.568348 0.711598 0.145497
H3    H     H_    0.431329 0.072222 0.711598 0.145493
H4    H     H_    0.927472 0.431652 0.711598 0.145497
H5    H     H_    0.568452 0.072429 0.288402 0.145495
H6    H     H_    0.072425 0.431543 0.288402 0.145496
H7    H     H_    0.431548 0.927571 0.288402 0.145496
H8    H     H_    0.927575 0.568457 0.288402 0.145495
H9    H     H_    0.192847 0.414329 0.965688 0.158899
H10   H     H_    0.585671 0.192847 0.965688 0.158899
H11   H     H_    0.807153 0.585671 0.965687 0.158899
H12   H     H_    0.568449 0.072433 0.211598 0.145442
H13   H     H_    0.414329 0.807153 0.965688 0.158899
H14   H     H_    0.192847 0.585671 0.034312 0.158899
H15   H     H_    0.585671 0.807153 0.034312 0.158899
H16   H     H_    0.807153 0.414329 0.034313 0.158899
H17   H     H_    0.414329 0.192847 0.034312 0.158899
H18   H     H_    0.692847 0.914329 0.465688 0.158882
H19   H     H_    0.085671 0.692847 0.465688 0.158881
H20   H     H_    0.307153 0.085671 0.465688 0.158882
H21   H     H_    0.914329 0.307153 0.465688 0.158881
H22   H     H_    0.692847 0.085671 0.534312 0.158882
H23   H     H_    0.927572 0.568453 0.211598 0.145442
H24   H     H_    0.085671 0.307153 0.534312 0.158881
H25   H     H_    0.307153 0.914329 0.534312 0.158882
H26   H     H_    0.914329 0.692847 0.534312 0.158881
H27   H     H_    0.431551 0.927567 0.211598 0.145442
H28   H     H_    0.072531 0.568344 0.788402 0.145441
H29   H     H_    0.568667 0.927774 0.788402 0.145446
H30   H     H_    0.927469 0.431656 0.788402 0.145441
H31   H     H_    0.431333 0.072225 0.788402 0.145446
H32   H     H_    0.568670 0.927778 0.711598 0.145493
N1    N     N_1   0.339034 0.360177 0.944093 -0.194305
N2    N     N_1   0.139823 0.839034 0.444094 -0.194246
N3    N     N_1   0.160966 0.139823 0.444094 -0.194246
N4    N     N_1   0.860177 0.160966 0.444094 -0.194246
N5    N     N_1   0.839034 0.139823 0.555906 -0.194246
N6    N     N_1   0.139823 0.160966 0.555906 -0.194249
N7    N     N_1   0.160966 0.860177 0.555906 -0.194246
N8    N     N_1   0.860177 0.839034 0.555906 -0.194249
N9    N     N_1   0.639823 0.339034 0.944093 -0.194307
N10   N     N_1   0.660966 0.639822 0.944093 -0.194305
N11   N     N_1   0.360177 0.660966 0.944093 -0.194307
N12   N     N_1   0.339034 0.639822 0.055907 -0.194308
N13   N     N_1   0.639823 0.660966 0.055906 -0.194307
N14   N     N_1   0.660966 0.360177 0.055907 -0.194308
N15   N     N_1   0.360177 0.339034 0.055906 -0.194307
N16   N     N_1   0.839034 0.860177 0.444094 -0.194246
O1    O     O_R   0.091640 0.551640 0.999920 -0.623864
O2    O     O_R   0.948360 0.591640 0.499920 -0.623879
O3    O     O_R   0.408360 0.948360 0.499920 -0.623878
O4    O     O_R   0.051640 0.408360 0.499920 -0.623879
O5    O     O_R   0.591640 0.948360 0.500080 -0.623879
O6    O     O_R   0.948360 0.408360 0.500080 -0.623878
O7    O     O_R   0.408360 0.051640 0.500080 -0.623879
O8    O     O_R   0.051640 0.591640 0.500080 -0.623879
O9    O     O_R   0.000010 0.551640 0.060910 -0.614289
O10   O     O_R   0.448360 0.000010 0.060910 -0.614288
O11   O     O_R   0.999990 0.448360 0.060910 -0.614288
O12   O     O_R   0.448360 0.091640 0.999920 -0.623863
O13   O     O_R   0.551640 0.999990 0.060910 -0.614289
O14   O     O_R   0.000010 0.448360 0.939090 -0.614287
O15   O     O_R   0.448360 0.999990 0.939090 -0.614291
O16   O     O_R   0.999990 0.551640 0.939090 -0.614287
O17   O     O_R   0.551640 0.000010 0.939090 -0.614292
O18   O     O_R   0.500010 0.051640 0.560910 -0.614356
O19   O     O_R   0.948360 0.500010 0.560910 -0.614360
O20   O     O_R   0.499990 0.948360 0.560910 -0.614355
O21   O     O_R   0.051640 0.499990 0.560910 -0.614360
O22   O     O_R   0.500010 0.948360 0.439090 -0.614358
O23   O     O_R   0.908360 0.448360 0.999920 -0.623863
O24   O     O_R   0.948360 0.499990 0.439090 -0.614358
O25   O     O_R   0.499990 0.051640 0.439090 -0.614359
O26   O     O_R   0.051640 0.500010 0.439090 -0.614359
O27   O     O_R   0.500000 0.591640 0.965510 -0.615063
O28   O     O_R   0.408360 0.500000 0.965510 -0.615065
O29   O     O_R   0.500000 0.408360 0.965510 -0.615064
O30   O     O_R   0.591640 0.500000 0.965510 -0.615065
O31   O     O_R   0.500000 0.408360 0.034490 -0.615066
O32   O     O_R   0.408360 0.500000 0.034490 -0.615065
O33   O     O_R   0.500000 0.591640 0.034490 -0.615066
O34   O     O_R   0.551640 0.908360 0.999920 -0.623864
O35   O     O_R   0.591640 0.500000 0.034490 -0.615065
O36   O     O_R   1.000000 0.091640 0.465510 -0.615035
O37   O     O_R   0.908360 1.000000 0.465510 -0.615035
O38   O     O_R   1.000000 0.908360 0.465510 -0.615035
O39   O     O_R   0.091640 1.000000 0.465510 -0.615035
O40   O     O_R   1.000000 0.908360 0.534490 -0.615036
O41   O     O_R   0.908360 1.000000 0.534490 -0.615037
O42   O     O_R   1.000000 0.091640 0.534490 -0.615036
O43   O     O_R   0.091640 1.000000 0.534490 -0.615037
O44   O     O_R   0.091640 0.448360 0.000080 -0.623863
O45   O     O_R   0.448360 0.908360 0.000080 -0.623864
O46   O     O_R   0.908360 0.551640 0.000080 -0.623864
O47   O     O_R   0.551640 0.091640 0.000080 -0.623864
O48   O     O_R   0.591640 0.051640 0.499920 -0.623879
Zn1   Zn    Zn3+2 1.000000 0.568980 0.000000 0.972628
Zn2   Zn    Zn3+2 0.500000 0.500000 0.046050 1.008410
Zn3   Zn    Zn3+2 1.000000 1.000000 0.453950 1.008635
Zn4   Zn    Zn3+2 0.000000 0.000000 0.546050 1.008632
Zn5   Zn    Zn3+2 0.431020 0.000000 0.000000 0.972625
Zn6   Zn    Zn3+2 1.000000 0.431020 0.000000 0.972628
Zn7   Zn    Zn3+2 0.568980 0.000000 0.000000 0.972624
Zn8   Zn    Zn3+2 0.500000 0.068980 0.500000 0.972435
Zn9   Zn    Zn3+2 0.931020 0.500000 0.500000 0.972432
Zn10  Zn    Zn3+2 0.500000 0.931020 0.500000 0.972435
Zn11  Zn    Zn3+2 0.068980 0.500000 0.500000 0.972431
Zn12  Zn    Zn3+2 0.500000 0.500000 0.953950 1.008413

loop_
_geom_bond_atom_site_label_1
_geom_bond_atom_site_label_2
_ccdc_geom_bond_type
C94   C105  A    
C79   O21   A    
C66   O12   A    
C89   C102  A    
C35   C53   A    
C125  O39   A    
C31   C61   S    
C68   O45   A    
C24   C112  A    
C19   N10   T    
C91   C104  A    
C37   C55   A    
C68   O34   A    
C88   C103  A    
C6    C9    T    
O21   Zn11  S    
C14   C128  T    
C7    C8    T    
O10   Zn5   S    
C5    C105  S    
C70   C114  S    
C99   C108  A    
C34   C51   A    
C69   C113  S    
C95   H12   S    
C44   H24   S    
C89   H4    S    
C65   O1    A    
C23   C54   S    
C100  C126  S    
C120  O29   A    
C13   H11   S    
C87   H2    S    
C75   O13   A    
O23   Zn6   S    
C62   C96   A    
O48   Zn8   S    
C27   N2    T    
C78   O18   A    
C63   C117  S    
C40   C115  A    
C3    C103  S    
C39   C57   A    
C4    C104  S    
C45   C62   A    
C79   O19   A    
C85   C124  S    
O30   Zn12  S    
C1    C119  S    
C71   O3    A    
C89   C94   A    
C93   H31   S    
C42   H21   S    
C58   C96   A    
C38   H18   S    
C20   C50   S    
C3    C12   T    
C11   C77   S    
O6    Zn9   S    
O32   Zn2   S    
O26   Zn11  S    
C97   C108  A    
C10   C76   S    
O5    Zn10  S    
C47   C118  A    
C84   H8    S    
C29   C59   S    
O4    Zn11  S    
O47   Zn7   S    
O35   Zn2   S    
C12   C78   S    
O34   Zn7   S    
C88   C91   A    
C83   H5    S    
O43   Zn4   S    
C97   H1    S    
C118  H9    S    
C83   C101  A    
C49   C52   A    
O1    Zn1   S    
C121  O35   A    
C74   C123  S    
C123  O41   A    
C83   C95   A    
C94   H30   S    
C15   C127  T    
C87   C92   A    
C50   C63   A    
O36   Zn3   S    
C29   N4    T    
C121  O30   A    
C81   O24   A    
O3    Zn10  S    
C61   C107  A    
C93   C104  A    
O42   Zn4   S    
C69   O5    A    
C73   O11   A    
C52   C54   A    
C109  C118  A    
C78   O20   A    
C22   C53   S    
C25   N15   T    
O25   Zn8   S    
C24   C50   A    
C46   H26   S    
C19   C49   S    
C56   C74   A    
C46   C114  A    
C2    H10   S    
C71   O7    A    
C40   C58   A    
O24   Zn9   S    
C27   C57   S    
C23   N14   T    
C38   C113  A    
C40   H20   S    
C70   O2    A    
C124  O38   A    
O46   Zn1   S    
C2    C48   A    
C99   H23   S    
C59   C107  A    
C46   C64   A    
O14   Zn6   S    
C77   O15   A    
C82   H6    S    
C67   O46   A    
O8    Zn11  S    
O37   Zn3   S    
C95   C106  A    
O18   Zn8   S    
C65   O44   A    
C87   C102  A    
C52   C121  S    
C45   C115  A    
O31   Zn2   S    
C73   O9    A    
C15   C80   S    
O11   Zn6   S    
C31   N6    T    
C26   N16   T    
C24   H13   S    
O15   Zn5   S    
C39   C114  A    
C80   O22   A    
C36   C111  A    
C6    C106  S    
C71   C115  S    
C92   H28   S    
O40   Zn4   S    
C14   C79   S    
C66   C110  S    
C4    C11   T    
O38   Zn3   S    
C1    C51   A    
C65   C109  S    
C37   C110  A    
C43   H22   S    
C17   N1    T    
C43   C60   A    
C13   C49   A    
C90   H3    S    
C125  O43   A    
C67   C111  S    
O16   Zn1   S    
C84   C100  A    
C123  O37   A    
O22   Zn10  S    
O9    Zn1   S    
C82   C97   A    
C122  O36   A    
C33   N8    T    
C45   H25   S    
O33   Zn2   S    
C72   O4    A    
O45   Zn5   S    
C76   O16   A    
C64   C85   A    
C21   C51   S    
C22   N13   T    
C30   C60   S    
C90   C93   A    
C124  O40   A    
C18   N9    T    
C70   O8    A    
C80   O25   A    
C98   H27   S    
C34   H14   S    
C122  O42   A    
O13   Zn7   S    
C77   O17   A    
C120  O31   A    
C82   C100  A    
O29   Zn12  S    
C1    C47   A    
C119  O28   A    
C17   C47   S    
C30   N5    T    
C66   O47   A    
C26   C56   S    
C42   C59   A    
O2    Zn9   S    
C18   C48   S    
C81   O26   A    
C28   C58   S    
C44   C61   A    
C21   N12   T    
C72   C116  S    
C102  C128  S    
C98   C106  A    
C84   C99   A    
C69   O48   A    
C37   H17   S    
O7    Zn8   S    
C117  O33   A    
C36   H16   S    
C72   O6    A    
C5    C10   T    
C13   C111  A    
C43   C113  A    
C53   C63   A    
O20   Zn10  S    
C33   C64   S    
C41   C55   A    
C42   C116  A    
C60   C74   A    
C8    C73   S    
C101  C127  S    
C41   C48   A    
C25   C55   S    
C96   C125  S    
C67   O23   A    
O39   Zn3   S    
C88   H32   S    
C41   C120  S    
C86   C98   A    
C90   C103  A    
C91   H29   S    
C36   C54   A    
O41   Zn4   S    
C32   C62   S    
C16   C81   S    
C75   O10   A    
C92   C105  A    
O27   Zn12  S    
C20   N11   T    
C38   C56   A    
C44   C116  A    
O28   Zn12  S    
C32   N7    T    
C39   H19   S    
O44   Zn6   S    
C34   C109  A    
O17   Zn7   S    
C7    C108  S    
O19   Zn9   S    
C119  O32   A    
C9    C75   S    
C107  C122  S    
C76   O14   A    
C117  O27   A    
C86   C101  A    
C16   C126  T    
C86   H7    S    
C57   C85   A    
C68   C112  S    
C35   C112  A    
O12   Zn5   S    
C28   N3    T    
C35   H15   S    
C2    C110  A    
