data_mof_unit_21262.cif
_audit_creation_date              2012-12-11T15:47:04-0500
_audit_creation_method            fapswitch 2.2
_symmetry_space_group_name_H-M    P1
_symmetry_Int_Tables_number       1
_space_group_crystal_system       triclinic
_cell_length_a                    20.039687
_cell_length_b                    7.304789
_cell_length_c                    13.698076
_cell_angle_alpha                 89.892155
_cell_angle_beta                  102.531728
_cell_angle_gamma                 90.05525
_cell_volume                      1957.42652216

loop_
_atom_site_label
_atom_site_type_symbol
_atom_type_description
_atom_site_fract_x
_atom_site_fract_y
_atom_site_fract_z
_atom_type_partial_charge
O1    O     O_R   0.449560 0.506810 0.599700 -0.528441
O2    O     O_R   0.550440 0.006810 0.400300 -0.528394
O3    O     O_R   0.587960 0.180060 0.595760 -0.537699
O4    O     O_R   0.412040 0.680060 0.404240 -0.537528
C1    C     C_R   0.615958 0.342181 0.614987 0.705704
C2    C     C_R   0.384033 0.842184 0.385035 0.704951
O5    O     O_R   0.452380 0.177430 0.611700 -0.538324
O6    O     O_R   0.547620 0.677430 0.388300 -0.537815
O7    O     O_R   0.413900 0.001890 0.416350 -0.546985
O8    O     O_R   0.586100 0.501890 0.583650 -0.547043
C3    C     C_R   0.435919 0.346098 0.636601 0.691652
C4    C     C_R   0.564344 0.846353 0.363721 0.692063
O9    O     O_3   0.487530 0.337490 0.435890 -0.385335
O10   O     O_3   0.512470 0.837490 0.564110 -0.385611
V1    V     V_3+5 0.502310 0.064660 0.511890 1.428548
V2    V     V_3+5 0.497690 0.564660 0.488110 1.428918
C5    C     C_R   0.611105 0.975156 0.123670 -0.090566
C6    C     C_R   0.389393 0.476791 0.876270 -0.091269
H1    H     H_    0.517200 0.945083 0.172657 0.129665
H2    H     H_    0.483255 0.447933 0.827083 0.129343
H3    H     H_    0.583708 0.011779 0.049321 0.168764
H4    H     H_    0.416784 0.515157 0.950270 0.168810
C7    C     C_R   0.603953 0.863063 0.286651 -0.039270
C8    C     C_R   0.396616 0.362123 0.714025 -0.037703
C9    C     C_R   0.931401 0.820009 0.317667 -0.072234
C10   C     C_R   0.069052 0.320526 0.682528 -0.093267
C11   C     C_R   0.895982 0.839313 0.395873 -0.087908
C12   C     C_R   0.104867 0.336061 0.604531 -0.084830
C13   C     C_R   0.826867 0.896891 0.373943 0.008480
C14   C     C_R   0.174099 0.392697 0.626351 0.011018
C15   C     C_R   0.789123 0.897655 0.272895 0.053315
C16   C     C_R   0.211512 0.395722 0.727534 0.051321
C17   C     C_R   0.825069 0.887777 0.194262 -0.055108
C18   C     C_R   0.175274 0.389090 0.805955 -0.057677
C19   C     C_R   0.716119 0.904443 0.246520 0.087458
C20   C     C_R   0.284494 0.402570 0.754145 0.086533
C21   C     C_R   0.683118 0.964407 0.149261 0.095305
C22   C     C_R   0.317389 0.464815 0.850884 0.095651
C23   C     C_R   0.722659 0.997526 0.077674 -0.049746
C24   C     C_R   0.277764 0.499335 0.922154 -0.048360
C25   C     C_R   0.788181 0.918890 0.094464 -0.094126
C26   C     C_R   0.212128 0.421141 0.905648 -0.095766
C27   C     C_R   0.675064 0.845685 0.312520 -0.125408
C28   C     C_R   0.325614 0.342560 0.688671 -0.128381
C29   C     C_R   0.572268 0.929450 0.192702 -0.181763
C30   C     C_R   0.428240 0.430731 0.807394 -0.181267
C31   C     C_R   0.896965 0.855193 0.217614 -0.100273
C32   C     C_R   0.103225 0.358100 0.782486 -0.114355
H5    H     H_    0.697628 0.787302 0.384765 0.105396
H6    H     H_    0.303172 0.282089 0.617031 0.102112
C33   C     C_R   0.217203 0.018605 0.224721 -0.137685
C34   C     C_R   0.782629 0.518688 0.775506 -0.124441
H7    H     H_    0.196896 0.151722 0.199696 0.169061
H8    H     H_    0.802978 0.651786 0.800322 0.164455
C35   C     C_R   0.281470 0.008367 0.289670 -0.196491
C36   C     C_R   0.718461 0.508432 0.710320 -0.195653
H9    H     H_    0.308172 0.130628 0.315806 0.146348
H10   H     H_    0.691873 0.630696 0.683775 0.145891
C37   C     C_R   0.312578 0.841417 0.321118 -0.051820
C38   C     C_R   0.687354 0.341458 0.679021 -0.051946
C39   C     C_R   0.273299 0.679149 0.292158 0.141722
C40   C     C_R   0.726588 0.179244 0.708225 0.143203
C41   C     C_R   0.206753 0.692263 0.232852 -0.112028
C42   C     C_R   0.793026 0.192397 0.767828 -0.119159
H11   H     H_    0.176176 0.569860 0.215754 0.186506
H12   H     H_    0.823576 0.070052 0.785097 0.176011
C43   C     C_R   0.179834 0.858987 0.193019 -0.068118
C44   C     C_R   0.819901 0.359093 0.807580 -0.043289
O11   O     O_R   0.913920 0.203370 0.916260 -0.520719
O12   O     O_R   0.086080 0.703370 0.083740 -0.509261
O13   O     O_R   0.047620 0.535540 0.888290 -0.527797
O14   O     O_R   0.952380 0.035540 0.111710 -0.538005
C45   C     C_R   0.063298 0.368007 0.861566 0.790778
C46   C     C_R   0.937167 0.867456 0.138917 0.766529
O15   O     O_R   0.912040 0.532780 0.904220 -0.544740
O16   O     O_R   0.087960 0.032780 0.095780 -0.550460
O17   O     O_R   0.949550 0.708160 0.099720 -0.527601
O18   O     O_R   0.050450 0.208160 0.900280 -0.553936
C47   C     C_R   0.886528 0.365090 0.881225 0.735173
C48   C     C_R   0.113249 0.864991 0.119273 0.703428
O19   O     O_3   0.012480 0.375300 0.064060 -0.365032
O20   O     O_3   0.987520 0.875300 0.935940 -0.380232
V3    V     V_3+5 0.997690 0.648180 0.988110 1.580092
V4    V     V_3+5 0.002310 0.148180 0.011890 1.546229
C49   C     C_3   0.300095 0.488459 0.316726 -0.339134
C50   C     C_3   0.348022 0.432603 0.248122 -0.676524
H13   H     H_    0.376689 0.551091 0.226951 0.226825
H14   H     H_    0.386018 0.331108 0.285867 0.222764
H15   H     H_    0.317994 0.369111 0.178839 0.207695
H16   H     H_    0.324231 0.473414 0.397207 0.193868
H17   H     H_    0.256553 0.391615 0.306007 0.153572
C51   C     C_3   0.699901 0.988555 0.683414 -0.338589
C52   C     C_3   0.651867 0.931464 0.751761 -0.678471
H18   H     H_    0.623145 0.049467 0.773011 0.227599
H19   H     H_    0.613924 0.830141 0.713775 0.223099
H20   H     H_    0.681821 0.867285 0.820991 0.206816
H21   H     H_    0.675886 0.974142 0.602877 0.194383
H22   H     H_    0.743494 0.892027 0.694164 0.153778
C53   C     C_2   0.698519 0.115976 0.988098 0.322043
H23   H     H_    0.725243 0.118070 0.927720 0.124067
O21   O     O_2   0.651931 0.225177 0.984069 -0.543432
C54   C     C_2   0.301915 0.618831 0.011110 0.322448
H24   H     H_    0.275334 0.621324 0.071653 0.125739
O22   O     O_2   0.348357 0.728448 0.014394 -0.543359
C55   C     C_2   0.005332 0.769419 0.341664 0.329579
H25   H     H_    0.039569 0.824791 0.407187 0.079081
O23   O     O_2   0.028542 0.661746 0.289641 -0.522215
C56   C     C_2   0.995349 0.267009 0.657383 0.383919
H26   H     H_    0.976805 0.172528 0.596543 0.031933
O24   O     O_2   0.954174 0.331973 0.701406 -0.527760
C57   C     C_2   0.799589 0.988970 0.454570 0.334927
H27   H     H_    0.816754 0.950568 0.532354 0.103824
O25   O     O_2   0.759542 0.116598 0.435022 -0.525664
C58   C     C_2   0.201945 0.482776 0.545487 0.328740
H28   H     H_    0.186649 0.439477 0.468331 0.114181
O26   O     O_2   0.240735 0.613319 0.564170 -0.529710
C59   C     C_2   0.931507 0.798732 0.500904 0.321514
H29   H     H_    0.983517 0.843992 0.529882 0.040335
O27   O     O_2   0.903307 0.708395 0.555338 -0.510989
C60   C     C_2   0.067658 0.306774 0.499151 0.304943
H30   H     H_    0.015865 0.357344 0.473774 0.086564
O28   O     O_2   0.093547 0.219348 0.441108 -0.534975
C61   C     C_2   0.808569 0.825700 0.009813 0.288330
H31   H     H_    0.816844 0.678846 0.013204 0.070136
O29   O     O_2   0.819209 0.911209 0.938534 -0.565102
C62   C     C_2   0.191714 0.328518 0.990657 0.285253
H32   H     H_    0.183029 0.181807 0.987571 0.071852
O30   O     O_2   0.181553 0.414315 0.061944 -0.563451

loop_
_geom_bond_atom_site_label_1
_geom_bond_atom_site_label_2
_ccdc_geom_bond_type
C14   C16   A    
C41   H11   S    
C52   H18   S    
C7    C29   A    
C35   C37   A    
C11   C13   A    
C57   H27   S    
O1    C3    A    
O2    C4    A    
O16   V4    S    
C2    O7    A    
C58   H28   S    
C49   H17   S    
C51   H22   S    
C61   H31   S    
C23   C25   A    
C49   C50   S    
O5    C3    A    
C55   O23   D    
C4    C7    S    
C62   H32   S    
C42   C44   A    
C19   C21   A    
C5    C29   A    
C59   O27   D    
C50   H14   S    
C61   O29   D    
O17   V3    S    
C3    C8    S    
C7    C27   A    
C56   H26   S    
C38   C40   A    
O6    V2    S    
C39   C41   A    
C40   C42   A    
C60   O28   D    
C18   C26   A    
C46   O17   A    
C40   C51   S    
C45   O18   A    
C15   C17   A    
C19   C27   A    
C9    C31   A    
C34   C44   A    
C10   C32   A    
C44   C47   S    
C24   C26   A    
C52   H19   S    
C6    C30   A    
C34   H8    S    
C51   H21   S    
O13   V3    S    
C11   C59   S    
C41   C43   A    
C37   C39   A    
C9    C55   S    
O14   C46   A    
C12   C60   S    
C10   C56   S    
O13   C45   A    
C50   H13   S    
C27   H5    S    
C33   C43   A    
O5    V1    S    
O12   C48   A    
C5    H3    S    
C36   C38   A    
C33   H7    S    
C42   H12   S    
O4    V2    S    
O12   V3    S    
C23   C53   S    
C53   H23   S    
O6    C4    A    
C57   O25   D    
O1    V2    S    
C5    C21   A    
C54   O22   D    
O2    V1    S    
O14   V4    S    
C39   C49   S    
O4    C2    A    
C53   O21   D    
C52   H20   S    
C35   H9    S    
C17   C31   A    
C15   C19   A    
O11   C47   A    
C18   C32   A    
C16   C20   A    
O19   V4    S    
O3    V1    S    
C60   H30   S    
C14   C58   S    
C28   H6    S    
C62   O30   D    
C1    C38   S    
C6    H4    S    
C2    C37   S    
C13   C57   S    
C43   C48   S    
O16   C48   A    
C31   C46   S    
C32   C45   S    
O3    C1    A    
C50   H15   S    
C58   O26   D    
C49   H16   S    
H1    C29   S    
C9    C11   A    
C55   H25   S    
C10   C12   A    
C8    C30   A    
C25   C61   S    
C20   C22   A    
C6    C22   A    
C17   C25   A    
C1    O8    A    
C21   C23   A    
O11   V4    S    
O8    V2    S    
C59   H29   S    
C22   C24   A    
O15   V3    S    
C56   O24   D    
C8    C28   A    
C12   C14   A    
C51   C52   S    
C36   H10   S    
C33   C35   A    
O7    V1    S    
C54   H24   S    
C20   C28   A    
C26   C62   S    
C24   C54   S    
O18   V4    S    
C13   C15   A    
O20   V3    S    
O9    V2    S    
O10   V1    S    
O15   C47   A    
H2    C30   S    
C34   C36   A    
C16   C18   A    
