data_mof_unit_10397.cif
_audit_creation_date              2012-12-11T17:23:12-0500
_audit_creation_method            fapswitch 2.2
_symmetry_space_group_name_H-M    P1
_symmetry_Int_Tables_number       1
_space_group_crystal_system       triclinic
_cell_length_a                    22.375436
_cell_length_b                    7.087936
_cell_length_c                    19.412609
_cell_angle_alpha                 90.832489
_cell_angle_beta                  99.489267
_cell_angle_gamma                 90.805725
_cell_volume                      3035.88403869

loop_
_atom_site_label
_atom_site_type_symbol
_atom_type_description
_atom_site_fract_x
_atom_site_fract_y
_atom_site_fract_z
_atom_type_partial_charge
O1    O     O_R   0.443980 0.494320 0.557430 -0.535118
O2    O     O_R   0.556020 0.994320 0.442570 -0.532286
O3    O     O_R   0.441210 0.822520 0.414610 -0.539279
O4    O     O_R   0.558790 0.322520 0.585390 -0.549357
C1    C     C_R   0.427830 0.652616 0.388213 0.761416
C2    C     C_R   0.572625 0.157935 0.612472 0.731346
O5    O     O_R   0.436920 0.823940 0.555180 -0.537313
O6    O     O_R   0.563080 0.323940 0.444820 -0.540572
O7    O     O_R   0.551700 0.995760 0.584140 -0.520904
O8    O     O_R   0.448300 0.495760 0.415860 -0.536202
C3    C     C_R   0.420984 0.654887 0.574013 0.743038
C4    C     C_R   0.578207 0.155488 0.424928 0.721667
O9    O     O_3   0.537660 0.661290 0.509340 -0.373309
O10   O     O_3   0.462340 0.161290 0.490660 -0.369758
V1    V     V_3+5 0.493010 0.935560 0.498270 1.425545
V2    V     V_3+5 0.506990 0.435560 0.501730 1.409343
H1    H     H_    0.670651 0.854283 0.253485 0.135526
H2    H     H_    0.321748 0.352435 0.739383 0.129987
C5    C     C_R   0.746237 0.939209 0.204269 0.058571
C6    C     C_R   0.244353 0.435030 0.785485 0.072741
C7    C     C_R   0.791682 0.081948 0.202660 0.060778
C8    C     C_R   0.199328 0.575752 0.786244 0.058392
C9    C     C_R   0.794006 0.241102 0.248347 0.145876
C10   C     C_R   0.196860 0.727520 0.738935 0.136138
C11   C     C_R   0.750452 0.264099 0.293051 0.085238
C12   C     C_R   0.241204 0.748827 0.695034 0.086178
C13   C     C_R   0.705853 0.122182 0.294511 0.047124
C14   C     C_R   0.287030 0.613235 0.696495 0.046917
C15   C     C_R   0.704823 0.962719 0.251073 -0.246671
C16   C     C_R   0.287174 0.457908 0.740240 -0.245934
C17   C     C_1   0.837019 0.072573 0.156563 -0.070578
C18   C     C_1   0.155726 0.572435 0.834564 -0.059504
C19   C     C_1   0.660789 0.135750 0.340762 -0.037847
C20   C     C_1   0.334291 0.629671 0.652983 -0.043891
C21   C     C_1   0.623310 0.145999 0.379311 -0.196428
C22   C     C_1   0.373647 0.643033 0.616848 -0.195060
C23   C     C_1   0.875521 0.068842 0.119134 -0.219194
C24   C     C_1   0.119866 0.569768 0.875278 -0.218691
C25   C     C_R   0.639889 0.263939 0.803684 0.177237
C26   C     C_R   0.367001 0.465182 0.208421 0.184210
C27   C     C_R   0.614752 0.160320 0.681134 -0.130335
C28   C     C_R   0.386692 0.628921 0.320608 -0.115271
C29   C     C_R   0.908537 0.065480 0.757199 0.081734
C30   C     C_R   0.090096 0.680933 0.235463 0.091335
C31   C     C_R   0.869064 0.072903 0.693430 -0.151135
C32   C     C_R   0.130469 0.768855 0.289780 -0.130088
C33   C     C_R   0.806782 0.083581 0.690607 -0.201810
C34   C     C_R   0.192586 0.757263 0.293018 -0.206908
C35   C     C_R   0.780429 0.080327 0.751584 0.093715
C36   C     C_R   0.218124 0.644023 0.245855 0.098215
C37   C     C_R   0.820235 0.077517 0.817128 0.028916
C38   C     C_R   0.178513 0.576533 0.184889 0.026174
C39   C     C_R   0.716319 0.102802 0.749191 -0.024673
C40   C     C_R   0.282166 0.608730 0.254758 -0.016848
C41   C     C_R   0.696010 0.166822 0.811064 0.008899
C42   C     C_R   0.305750 0.525191 0.197715 0.004784
C43   C     C_R   0.734078 0.137067 0.876869 0.091134
C44   C     C_R   0.267306 0.500108 0.132027 0.081750
C45   C     C_R   0.795111 0.092015 0.878290 -0.215546
C46   C     C_R   0.204388 0.510914 0.128133 -0.203971
C47   C     C_R   0.671873 0.073131 0.687242 0.119549
C48   C     C_R   0.323577 0.643023 0.319052 0.130052
C49   C     C_R   0.600745 0.266479 0.738589 0.012898
C50   C     C_R   0.408718 0.541604 0.264177 0.032050
C51   C     C_R   0.884524 0.065329 0.820312 -0.103779
C52   C     C_R   0.114118 0.593631 0.179652 -0.124666
H3    H     H_    0.780362 0.107109 0.639991 0.126984
H4    H     H_    0.219776 0.844807 0.331994 0.132673
H5    H     H_    0.887014 0.077150 0.644907 0.120486
H6    H     H_    0.114868 0.852510 0.330027 0.111990
H7    H     H_    0.823861 0.075136 0.928372 0.101129
H8    H     H_    0.175942 0.476351 0.078727 0.117145
O11   O     O_R   0.051730 0.724670 0.084120 -0.535656
O12   O     O_R   0.948270 0.224670 0.915880 -0.531472
O13   O     O_R   0.063080 0.393540 0.944820 -0.537766
O14   O     O_R   0.936920 0.893540 0.055180 -0.541736
C53   C     C_R   0.077077 0.561860 0.923666 0.718743
C54   C     C_R   0.921654 0.061788 0.074869 0.722459
O15   O     O_R   0.058800 0.395030 0.085390 -0.536064
O16   O     O_R   0.941200 0.895030 0.914610 -0.539203
O17   O     O_R   0.943980 0.223310 0.057440 -0.530796
O18   O     O_R   0.056020 0.723310 0.942560 -0.531926
C55   C     C_R   0.072574 0.566684 0.111691 0.676448
C56   C     C_R   0.926889 0.061797 0.888403 0.680725
O19   O     O_3   0.962360 0.556290 0.990650 -0.368470
O20   O     O_3   0.037640 0.056290 0.009350 -0.367714
V3    V     V_3+5 0.006980 0.281990 0.001730 1.405276
V4    V     V_3+5 0.993020 0.781990 0.998270 1.400706
C57   C     C_3   0.737232 0.755881 0.160889 -0.363163
C58   C     C_3   0.775415 0.723643 0.103155 -0.280888
C59   C     C_3   0.755227 0.543489 0.061228 -0.810719
H9    H     H_    0.759257 0.419178 0.095749 0.238356
H10   H     H_    0.707397 0.555139 0.035139 0.227312
H11   H     H_    0.784159 0.521696 0.020574 0.223503
H12   H     H_    0.770004 0.842927 0.066453 0.205561
H13   H     H_    0.823809 0.709064 0.126598 0.203350
H14   H     H_    0.744703 0.636200 0.197374 0.187453
H15   H     H_    0.688780 0.746986 0.136065 0.178453
C60   C     C_3   0.250787 0.253439 0.827897 -0.359479
C61   C     C_3   0.211400 0.226125 0.884862 -0.298217
C62   C     C_3   0.227470 0.048257 0.926246 -0.819619
H16   H     H_    0.217711 0.922615 0.891420 0.242228
H17   H     H_    0.276036 0.052405 0.950494 0.234112
H18   H     H_    0.199521 0.037531 0.968344 0.225671
H19   H     H_    0.218244 0.346606 0.922172 0.217055
H20   H     H_    0.163032 0.212760 0.861097 0.204527
H21   H     H_    0.242014 0.132200 0.790558 0.186349
H22   H     H_    0.298966 0.244054 0.853239 0.169925
N1    N     N_3   0.842057 0.378673 0.251394 -0.705971
H23   H     H_    0.883316 0.310702 0.265752 0.234311
H24   H     H_    0.841171 0.434593 0.201777 0.241894
N2    N     N_3   0.148074 0.858868 0.733519 -0.698851
H25   H     H_    0.107194 0.784168 0.719075 0.233043
H26   H     H_    0.147920 0.921633 0.782455 0.236788
C63   C     C_3   0.752018 0.439449 0.339374 -0.327643
C64   C     C_3   0.784222 0.401263 0.413716 -0.293315
C65   C     C_3   0.784716 0.576089 0.460664 -0.776513
H27   H     H_    0.808860 0.695069 0.439890 0.230547
H28   H     H_    0.737619 0.618285 0.463954 0.233666
H29   H     H_    0.808396 0.544670 0.514044 0.215685
H30   H     H_    0.760991 0.283701 0.436524 0.192551
H31   H     H_    0.831750 0.359820 0.412264 0.202448
H32   H     H_    0.775507 0.558748 0.317988 0.204467
H33   H     H_    0.705089 0.487704 0.340344 0.162824
C66   C     C_3   0.239244 0.915413 0.646299 -0.327443
C67   C     C_3   0.210283 0.857375 0.571677 -0.291540
C68   C     C_3   0.211029 0.021100 0.521618 -0.778198
H34   H     H_    0.185389 0.141782 0.538397 0.231995
H35   H     H_    0.258406 0.067507 0.520000 0.233809
H36   H     H_    0.189570 0.975050 0.468207 0.210965
H37   H     H_    0.235173 0.737870 0.552714 0.200251
H38   H     H_    0.162579 0.810635 0.571273 0.201151
H39   H     H_    0.213375 0.033772 0.664366 0.204566
H40   H     H_    0.285876 0.972407 0.646883 0.165053
C69   C     C_3   0.543530 0.383661 0.733094 -0.312204
C70   C     C_3   0.558037 0.593969 0.723098 -0.228157
C71   C     C_3   0.513501 0.722774 0.751688 -0.791716
H41   H     H_    0.466223 0.682625 0.729126 0.224043
H42   H     H_    0.519335 0.712465 0.809449 0.236873
H43   H     H_    0.522147 0.871361 0.738231 0.213776
H44   H     H_    0.604428 0.632927 0.750104 0.212375
H45   H     H_    0.556377 0.621509 0.666650 0.207227
H46   H     H_    0.507499 0.333490 0.690264 0.139615
H47   H     H_    0.523118 0.364585 0.781088 0.193455
C72   C     C_3   0.476312 0.509793 0.265378 -0.326224
C73   C     C_3   0.500367 0.628325 0.210015 -0.315925
C74   C     C_3   0.566152 0.581416 0.206204 -0.784300
H48   H     H_    0.595026 0.604484 0.258015 0.224005
H49   H     H_    0.569582 0.431938 0.189488 0.234490
H50   H     H_    0.583097 0.673642 0.167631 0.213893
H51   H     H_    0.472676 0.602963 0.157668 0.195030
H52   H     H_    0.497633 0.780575 0.223599 0.197154
H53   H     H_    0.504266 0.548272 0.316312 0.159962
H54   H     H_    0.484352 0.357475 0.256833 0.201259
C75   C     C_3   0.711584 0.133336 0.946697 -0.360282
C76   C     C_3   0.663987 0.975909 0.948402 -0.296593
C77   C     C_3   0.633290 0.997020 0.012656 -0.786728
H55   H     H_    0.667626 0.012087 0.060706 0.240925
H56   H     H_    0.604441 0.123921 0.008054 0.224575
H57   H     H_    0.604318 0.870791 0.017154 0.218811
H58   H     H_    0.628586 0.977308 0.901033 0.201069
H59   H     H_    0.686509 0.836929 0.949542 0.197993
H60   H     H_    0.749517 0.106830 0.989992 0.162192
H61   H     H_    0.695401 0.272134 0.960968 0.179242
C78   C     C_3   0.291975 0.475265 0.064034 -0.394986
C79   C     C_3   0.276020 0.639388 0.013929 -0.303306
C80   C     C_3   0.316574 0.638053 0.957486 -0.775613
H62   H     H_    0.362874 0.689662 0.980034 0.220944
H63   H     H_    0.320015 0.493412 0.936298 0.236585
H64   H     H_    0.298379 0.729523 0.913571 0.228125
H65   H     H_    0.227686 0.628220 0.989168 0.189192
H66   H     H_    0.283009 0.776112 0.043194 0.204954
H67   H     H_    0.341743 0.471792 0.073192 0.194964
H68   H     H_    0.274795 0.339541 0.038490 0.174796
N3    N     N_3   0.625214 0.386222 0.857859 -0.694183
H69   H     H_    0.607791 0.308680 0.895477 0.238505
H70   H     H_    0.662480 0.472038 0.878348 0.228472
N4    N     N_3   0.384318 0.295685 0.175142 -0.690330
H71   H     H_    0.346709 0.216959 0.150697 0.235059
H72   H     H_    0.412945 0.328290 0.139462 0.218321
N5    N     N_3   0.680626 0.939193 0.633521 -0.667831
H73   H     H_    0.715860 0.847324 0.650756 0.238545
H74   H     H_    0.689074 0.011630 0.589514 0.209695
N6    N     N_3   0.303931 0.654723 0.385923 -0.699498
H75   H     H_    0.263981 0.577316 0.386743 0.243319
H76   H     H_    0.301687 0.795470 0.401909 0.226654
C81   C     C_3   0.975973 0.068644 0.754889 -0.368536
C82   C     C_3   0.996715 0.266325 0.736051 -0.307391
C83   C     C_3   0.060320 0.264218 0.717587 -0.744012
H77   H     H_    0.092928 0.213773 0.762309 0.235618
H78   H     H_    0.061565 0.170566 0.671486 0.236956
H79   H     H_    0.074023 0.409143 0.704948 0.214396
H80   H     H_    0.965547 0.321108 0.690429 0.193347
H81   H     H_    0.996104 0.364820 0.781033 0.195890
H82   H     H_    0.003298 0.026852 0.805204 0.164703
H83   H     H_    0.985189 0.963040 0.715152 0.172612
C84   C     C_3   0.021496 0.685582 0.234438 -0.361420
C85   C     C_3   0.001004 0.790575 0.296373 -0.342867
C86   C     C_3   0.932582 0.775368 0.293577 -0.746258
H84   H     H_    0.908169 0.807535 0.240682 0.238281
H85   H     H_    0.920188 0.631055 0.307832 0.249651
H86   H     H_    0.918310 0.876402 0.331761 0.215349
H87   H     H_    0.023087 0.730179 0.346566 0.197681
H88   H     H_    0.013834 0.942479 0.295062 0.195093
H89   H     H_    0.999418 0.754886 0.186197 0.187167
H90   H     H_    0.004260 0.537400 0.232903 0.167705

loop_
_geom_bond_atom_site_label_1
_geom_bond_atom_site_label_2
_ccdc_geom_bond_type
C66   H40   S    
C1    C28   S    
C35   C39   A    
C79   H66   S    
C67   C68   S    
C81   H83   S    
C13   C15   A    
H1    C15   S    
C39   C41   A    
C30   C52   A    
C74   H48   S    
O1    C3    A    
C27   C47   A    
O16   C56   A    
O2    C4    A    
C26   N4    S    
C2    O7    A    
O15   V3    S    
C72   C73   S    
C38   C52   A    
C69   C70   S    
C80   H63   S    
C6    C16   A    
N5    H73   S    
C64   C65   S    
O5    C3    A    
C60   H22   S    
C43   C75   S    
C61   H19   S    
C78   C79   S    
C64   H31   S    
C53   O18   A    
C76   C77   S    
C74   H49   S    
O14   C54   A    
C25   C49   A    
C65   H28   S    
C50   C72   S    
O20   V4    S    
C43   C45   A    
C46   H8    S    
C44   C46   A    
C63   C64   S    
N6    H75   S    
C37   C51   A    
C33   H3    S    
C83   H78   S    
C44   C78   S    
C61   C62   S    
C70   H45   S    
C38   C46   A    
N1    H24   S    
C1    O8    A    
C52   C55   S    
C39   C47   A    
C77   H55   S    
C25   C41   A    
N3    H69   S    
N6    H76   S    
C26   C42   A    
C2    C27   S    
C10   N2    S    
C86   H86   S    
C36   C38   A    
C85   C86   S    
H2    C16   S    
C18   C24   T    
O12   V3    S    
C28   C48   A    
C29   C51   A    
C72   H53   S    
O5    V1    S    
C14   C20   S    
C86   H84   S    
O6    V2    S    
O16   V4    S    
C82   H81   S    
C84   H90   S    
C83   H77   S    
N2    H26   S    
N2    H25   S    
C30   C32   A    
N4    H71   S    
C80   H64   S    
C40   C42   A    
C31   C33   A    
C7    C9    A    
C9    N1    S    
C71   H43   S    
C32   C34   A    
C75   C76   S    
C63   H32   S    
C64   H30   S    
O19   V3    S    
C31   H5    S    
C62   H16   S    
C58   H12   S    
C74   H50   S    
N3    H70   S    
C84   H89   S    
C65   H29   S    
O12   C56   A    
C80   H62   S    
O20   V3    S    
C51   C56   S    
C40   C48   A    
C35   C37   A    
C78   H68   S    
C48   N6    S    
C13   C19   S    
C17   C23   T    
C57   H14   S    
C82   C83   S    
C12   C66   S    
C49   C69   S    
O4    V2    S    
C83   H79   S    
C68   H35   S    
O11   V4    S    
C70   H44   S    
C5    C57   S    
C59   H10   S    
C7    C17   S    
C60   C61   S    
C29   C81   S    
O6    C4    A    
O1    V2    S    
C36   C40   A    
C34   H4    S    
C4    C21   S    
O2    V1    S    
O13   C53   A    
O17   V3    S    
C8    C18   S    
C73   H52   S    
C72   H54   S    
C25   N3    S    
C69   H47   S    
C6    C8    A    
C76   H58   S    
C77   H57   S    
C41   C43   A    
C85   H88   S    
C79   C80   S    
C8    C10   A    
O4    C2    A    
C37   C45   A    
C27   C49   A    
C77   H56   S    
C68   H34   S    
C5    C15   A    
C28   C50   A    
C59   H9    S    
O3    V1    S    
C73   C74   S    
C23   C54   S    
O19   V4    S    
C66   H39   S    
O14   V4    S    
C3    C22   S    
C63   H33   S    
C81   H82   S    
C71   H42   S    
C12   C14   A    
C10   C12   A    
C70   C71   S    
O3    C1    A    
C26   C50   A    
C82   H80   S    
N4    H72   S    
C58   H13   S    
C24   C53   S    
C75   H61   S    
C33   C35   A    
C60   H21   S    
C71   H41   S    
C47   N5    S    
C61   H20   S    
C57   H15   S    
C75   H60   S    
C11   C63   S    
O7    V1    S    
C68   H36   S    
C14   C16   A    
C29   C31   A    
O8    V2    S    
C65   H27   S    
C59   H11   S    
O15   C55   A    
C54   O17   A    
C58   C59   S    
C66   C67   S    
C6    C60   S    
C67   H37   S    
O18   V4    S    
C34   C36   A    
C69   H46   S    
C19   C21   T    
C42   C44   A    
C20   C22   T    
C9    C11   A    
C84   C85   S    
C32   H6    S    
C79   H65   S    
C67   H38   S    
C76   H59   S    
C73   H51   S    
C30   C84   S    
C62   H17   S    
O9    V2    S    
C85   H87   S    
C86   H85   S    
O10   V1    S    
C81   C82   S    
C62   H18   S    
C57   C58   S    
N1    H23   S    
C78   H67   S    
O11   C55   A    
O13   V3    S    
N5    H74   S    
C45   H7    S    
C5    C7    A    
C11   C13   A    
