data_mof_unit_28796.cif
_audit_creation_date              2012-12-10T19:24:04-0500
_audit_creation_method            fapswitch 2.2
_symmetry_space_group_name_H-M    P1
_symmetry_Int_Tables_number       1
_space_group_crystal_system       triclinic
_cell_length_a                    10.49897
_cell_length_b                    10.480057
_cell_length_c                    9.787274
_cell_angle_alpha                 90.413829
_cell_angle_beta                  90.888925
_cell_angle_gamma                 89.57684
_cell_volume                      1076.70566095

loop_
_atom_site_label
_atom_site_type_symbol
_atom_type_description
_atom_site_fract_x
_atom_site_fract_y
_atom_site_fract_z
_atom_type_partial_charge
C1    C     C_R   0.501156 0.257777 0.499524 0.859994
C2    C     C_R   0.498844 0.742223 0.500476 0.860009
C3    C     C_3   0.496695 0.960185 0.630919 -0.184924
C4    C     C_3   0.503306 0.039815 0.369081 -0.184885
C5    C     C_3   0.505753 0.384147 0.048036 -0.218007
C6    C     C_3   0.494251 0.615854 0.951966 -0.217659
C7    C     C_3   0.602831 0.445991 0.952343 -0.234222
C8    C     C_3   0.397171 0.554008 0.047657 -0.233872
C9    C     C_3   0.405129 0.439573 0.950984 0.574529
C10   C     C_3   0.594875 0.560428 0.049020 0.574524
C11   C     C_R   0.257738 0.498016 0.498772 0.861174
C12   C     C_R   0.742262 0.501979 0.501228 0.861188
C13   C     C_3   0.044784 0.415991 0.593404 -0.202527
C14   C     C_3   0.955217 0.583996 0.406595 -0.202566
C15   C     C_3   0.955394 0.382289 0.471241 -0.247070
C16   C     C_3   0.044607 0.617699 0.528759 -0.247053
C17   C     C_3   0.877240 0.502455 0.503666 -0.059503
C18   C     C_3   0.122761 0.497534 0.496334 -0.059506
C19   C     C_3   0.964687 0.535950 0.624652 0.254537
C20   C     C_3   0.035315 0.464038 0.375348 0.254441
C21   C     C_3   0.603027 0.039891 0.567995 0.210807
C22   C     C_3   0.396974 0.960109 0.432004 0.210826
C23   C     C_3   0.605955 0.954842 0.439184 -0.210772
C24   C     C_3   0.394045 0.045158 0.560816 -0.210828
C25   C     C_3   0.498492 0.877152 0.501238 -0.062785
C26   C     C_3   0.501508 0.122847 0.498762 -0.062782
H1    H     H_    0.915464 0.286885 0.447088 0.134712
H2    H     H_    0.084537 0.713103 0.552912 0.134702
H3    H     H_    0.085127 0.347950 0.669315 0.171807
H4    H     H_    0.914875 0.652037 0.330683 0.171802
H5    H     H_    0.691989 0.913555 0.390658 0.151463
H6    H     H_    0.308010 0.086445 0.609339 0.151434
H7    H     H_    0.494642 0.924271 0.737312 0.148247
H8    H     H_    0.505359 0.075729 0.262688 0.148235
H9    H     H_    0.688643 0.400497 0.908042 0.132129
H10   H     H_    0.311356 0.599499 0.091957 0.132112
H11   H     H_    0.508467 0.287087 0.092712 0.138360
H12   H     H_    0.491533 0.712913 0.907289 0.138375
N1    N     N_3   0.499910 0.500030 0.863290 -0.088669
N2    N     N_3   0.500090 0.499970 0.136710 -0.088673
O1    O     O_R   0.500010 0.313960 0.616610 -0.596718
O2    O     O_R   0.499990 0.686040 0.383390 -0.596692
O3    O     O_R   0.500060 0.313950 0.383350 -0.633904
O4    O     O_R   0.499940 0.686050 0.616650 -0.633905
O5    O     O_R   0.313930 0.499970 0.616610 -0.562030
O6    O     O_R   0.686070 0.500030 0.383390 -0.562042
O7    O     O_R   0.313980 0.499960 0.383350 -0.648774
O8    O     O_R   0.686020 0.500040 0.616650 -0.648758
Zn1   Zn    Zn3+2 0.499970 0.500010 0.655740 0.967112
Zn2   Zn    Zn3+2 0.500030 0.499990 0.344260 0.967113
C27   C     C_3   0.922539 0.578146 0.767019 -0.408174
C28   C     C_3   0.036033 0.614016 0.858233 -0.871875
H13   H     H_    0.101784 0.531354 0.869896 0.294367
H14   H     H_    0.088361 0.695240 0.814054 0.261120
H15   H     H_    0.001980 0.642637 0.960907 0.246217
H16   H     H_    0.857363 0.661716 0.757486 0.207392
H17   H     H_    0.870624 0.498853 0.815085 0.208290
C29   C     C_3   0.077475 0.421839 0.232986 -0.407958
C30   C     C_3   0.963993 0.385930 0.141773 -0.871961
H18   H     H_    0.911694 0.304687 0.185952 0.261114
H19   H     H_    0.898213 0.468569 0.130112 0.294186
H20   H     H_    0.998057 0.357321 0.039099 0.246311
H21   H     H_    0.129372 0.501140 0.184912 0.208341
H22   H     H_    0.142672 0.338285 0.242529 0.207361
C31   C     C_3   0.720040 0.089987 0.645480 -0.406291
C32   C     C_3   0.804222 0.980755 0.697344 -0.885189
H23   H     H_    0.750097 0.918811 0.767082 0.257216
H24   H     H_    0.839485 0.922384 0.610410 0.255502
H25   H     H_    0.887490 0.020206 0.754287 0.251945
H26   H     H_    0.775760 0.150908 0.576417 0.188559
H27   H     H_    0.688600 0.149118 0.733551 0.217832
C33   C     C_3   0.279960 0.910014 0.354520 -0.406292
C34   C     C_3   0.195809 0.019251 0.302610 -0.885233
H28   H     H_    0.160572 0.077669 0.389521 0.255516
H29   H     H_    0.249950 0.081147 0.232838 0.257165
H30   H     H_    0.112525 0.979802 0.245693 0.251955
H31   H     H_    0.311398 0.850852 0.266470 0.217832
H32   H     H_    0.224218 0.849125 0.423593 0.188560
O9    O     O_3   0.302848 0.373054 0.892586 -0.773390
H33   H     H_    0.253518 0.341248 0.970705 0.301198
O10   O     O_3   0.697146 0.626959 0.107435 -0.773310
H34   H     H_    0.746865 0.658174 0.029332 0.301193

loop_
_geom_bond_atom_site_label_1
_geom_bond_atom_site_label_2
_ccdc_geom_bond_type
O4    Zn1   S    
C16   H2    S    
C7    C10   S    
C32   H24   S    
C21   C26   S    
C11   C18   S    
C5    H11   S    
C34   H28   S    
C11   O7    A    
C12   O8    A    
O10   H34   S    
C13   C18   S    
C13   H3    S    
C24   C26   S    
C9    O9    S    
C32   H25   S    
C3    H7    S    
C31   H26   S    
C9    N1    S    
C10   N2    S    
C27   H16   S    
C8    H10   S    
O1    Zn1   S    
C33   H32   S    
C1    O3    A    
C2    O4    A    
C8    C9    S    
C22   C25   S    
C12   C17   S    
C6    H12   S    
C27   H17   S    
C18   C20   S    
C28   H15   S    
C32   H23   S    
C30   H18   S    
C34   H29   S    
C14   C17   S    
C3    C24   S    
C14   H4    S    
C22   C33   S    
C28   H14   S    
O7    Zn2   S    
C29   H22   S    
C15   C20   S    
C4    H8    S    
C30   H19   S    
C13   C19   S    
C27   C28   S    
C14   C20   S    
C3    C25   S    
C12   O6    A    
C5    C7    S    
C4    C23   S    
C6    C8    S    
C29   C30   S    
C31   H27   S    
C23   H5    S    
C24   H6    S    
C5    C9    S    
C33   H31   S    
C4    C22   S    
C15   H1    S    
O5    Zn1   S    
O2    Zn2   S    
C1    O1    A    
O8    Zn1   S    
N1    Zn1   S    
C13   C15   S    
C1    C26   S    
C34   H30   S    
C14   C16   S    
C3    C21   S    
C20   C29   S    
C28   H13   S    
C29   H21   S    
C15   C17   S    
C30   H20   S    
C21   C31   S    
C7    H9    S    
C33   C34   S    
C6    C10   S    
C4    C26   S    
O3    Zn2   S    
O6    Zn2   S    
C10   O10   S    
C21   C23   S    
C2    O2    A    
C16   C19   S    
N2    Zn2   S    
C17   C19   S    
C2    C25   S    
C22   C24   S    
C23   C25   S    
C11   O5    A    
O9    H33   S    
C19   C27   S    
C16   C18   S    
C31   C32   S    
C5    N2    S    
C7    N1    S    
C6    N1    S    
C8    N2    S    
