data_mof_unit_63077.cif
_audit_creation_date              2012-12-10T19:48:57-0500
_audit_creation_method            fapswitch 2.2
_symmetry_space_group_name_H-M    P1
_symmetry_Int_Tables_number       1
_space_group_crystal_system       triclinic
_cell_length_a                    25.992264
_cell_length_b                    26.053761
_cell_length_c                    22.21532
_cell_angle_alpha                 89.999898
_cell_angle_beta                  54.196868
_cell_angle_gamma                 89.999867
_cell_volume                      12201.2693087

loop_
_atom_site_label
_atom_site_type_symbol
_atom_type_description
_atom_site_fract_x
_atom_site_fract_y
_atom_site_fract_z
_atom_type_partial_charge
C1    C     C_R   0.849480 0.750046 0.301077 0.814300
C2    C     C_R   0.849480 0.249954 0.301077 0.814194
C3    C     C_R   0.349462 0.250032 0.301078 0.810971
C4    C     C_R   0.349462 0.749968 0.301078 0.811311
C5    C     C_R   0.466101 0.700290 0.513326 0.033067
C6    C     C_R   0.466072 0.299706 0.513383 0.033043
C7    C     C_R   0.936971 0.239750 0.571580 0.053448
C8    C     C_R   0.936978 0.760274 0.571568 0.053427
C9    C     C_R   0.449293 0.745458 0.493183 -0.044249
C10   C     C_R   0.449296 0.254550 0.493177 -0.044336
C11   C     C_R   0.942510 0.254697 0.506715 -0.157637
C12   C     C_R   0.942511 0.745306 0.506714 -0.157696
C13   C     C_R   0.492095 0.786178 0.462839 -0.071623
C14   C     C_R   0.492135 0.213856 0.462761 -0.071647
C15   C     C_R   0.999233 0.276575 0.448540 0.010756
C16   C     C_R   0.999230 0.723418 0.448544 0.010834
C17   C     C_3   0.481497 0.842530 0.477825 0.503321
C18   C     C_3   0.481600 0.157489 0.477620 0.503399
C19   C     C_3   0.036420 0.268260 0.366673 0.511385
C20   C     C_3   0.036419 0.731747 0.366677 0.511326
C21   C     C_3   0.540463 0.842711 0.477108 -0.186718
C22   C     C_3   0.540567 0.157308 0.476902 -0.186713
C23   C     C_3   0.095581 0.267224 0.365610 -0.167767
C24   C     C_3   0.095579 0.732788 0.365612 -0.168095
C25   C     C_3   0.468667 0.732769 0.957001 -0.449571
C26   C     C_3   0.468135 0.265532 0.957001 -0.449507
C27   C     C_3   0.967918 0.235268 0.957014 -0.451364
C28   C     C_3   0.968063 0.765240 0.957014 -0.451321
C29   C     C_3   0.533414 0.807288 0.956826 -0.150913
C30   C     C_3   0.535272 0.193145 0.956825 -0.150930
C31   C     C_3   0.036173 0.306612 0.956830 -0.151140
C32   C     C_3   0.035625 0.693245 0.956831 -0.151113
C33   C     C_3   0.488723 0.807378 0.044205 0.518920
C34   C     C_3   0.490583 0.193021 0.044204 0.518927
C35   C     C_3   0.991508 0.306741 0.044210 0.513992
C36   C     C_3   0.990959 0.693126 0.044210 0.514030
C37   C     C_1   0.388978 0.750220 0.221745 -0.063318
C38   C     C_1   0.388987 0.249786 0.221745 -0.063300
C39   C     C_1   0.889036 0.250181 0.221743 -0.056670
C40   C     C_1   0.889033 0.749816 0.221743 -0.056658
C41   C     C_3   0.536294 0.752127 0.926634 0.051187
C42   C     C_3   0.536364 0.247881 0.926634 0.051193
C43   C     C_3   0.036416 0.252101 0.926632 0.050113
C44   C     C_3   0.036395 0.747895 0.926632 0.050060
C45   C     C_R   0.650595 0.749990 0.698929 0.815863
C46   C     C_R   0.650595 0.250010 0.698929 0.815889
C47   C     C_R   0.150586 0.249998 0.698928 0.823627
C48   C     C_R   0.150586 0.750002 0.698928 0.823625
C49   C     C_3   0.424907 0.734758 0.043018 0.540289
C50   C     C_3   0.424442 0.263520 0.043018 0.539842
C51   C     C_3   0.924274 0.237280 0.043031 0.536190
C52   C     C_3   0.924399 0.763234 0.043031 0.536341
C53   C     C_3   0.463312 0.751672 0.073306 -0.075059
C54   C     C_3   0.463368 0.248347 0.073305 -0.075082
C55   C     C_3   0.963444 0.251614 0.073303 -0.075126
C56   C     C_3   0.963427 0.748380 0.073303 -0.075163
C57   C     C_3   0.520155 0.714035 0.042453 0.466554
C58   C     C_3   0.518966 0.287303 0.042453 0.467053
C59   C     C_3   0.018439 0.212045 0.042429 0.464822
C60   C     C_3   0.018801 0.787566 0.042429 0.464715
C61   C     C_3   0.563682 0.715378 0.956361 -0.499397
C62   C     C_3   0.562536 0.285978 0.956360 -0.499375
C63   C     C_3   0.062010 0.213371 0.956335 -0.493459
C64   C     C_3   0.062360 0.786235 0.956335 -0.493460
C65   C     C_1   0.422337 0.750715 0.154990 0.137887
C66   C     C_1   0.422362 0.249297 0.154990 0.137876
C67   C     C_1   0.922431 0.250663 0.154988 0.141034
C68   C     C_1   0.922423 0.749333 0.154988 0.141064
C69   C     C_1   0.577192 0.750976 0.845024 -0.012057
C70   C     C_1   0.577225 0.249033 0.845024 -0.012071
C71   C     C_1   0.077239 0.250958 0.845023 -0.009773
C72   C     C_1   0.077230 0.749038 0.845023 -0.009746
C73   C     C_1   0.610706 0.750332 0.778267 -0.143968
C74   C     C_1   0.610717 0.249675 0.778267 -0.143983
C75   C     C_1   0.110713 0.250325 0.778266 -0.141833
C76   C     C_1   0.110709 0.749673 0.778266 -0.141812
C77   C     C_R   0.737543 0.974082 0.457942 -0.068855
C78   C     C_R   0.737544 0.025919 0.457942 -0.068874
C79   C     C_R   0.240391 0.474082 0.455447 -0.079246
C80   C     C_R   0.240391 0.525918 0.455447 -0.079185
C81   C     C_R   0.750832 0.945556 0.500066 -0.044843
C82   C     C_R   0.750833 0.054445 0.500066 -0.044850
C83   C     C_R   0.250382 0.445556 0.500498 -0.039943
C84   C     C_R   0.250382 0.554443 0.500498 -0.039936
C85   C     C_R   0.765170 0.973008 0.543391 -0.194290
C86   C     C_R   0.765170 0.026992 0.543392 -0.194308
C87   C     C_R   0.260913 0.473010 0.547227 -0.197352
C88   C     C_R   0.260913 0.526989 0.547227 -0.197343
C89   C     C_R   0.749938 0.610011 0.500023 0.807068
C90   C     C_R   0.749938 0.389989 0.500023 0.807033
C91   C     C_R   0.249954 0.110011 0.500064 0.822929
C92   C     C_R   0.249954 0.889989 0.500064 0.822941
C93   C     C_3   0.718264 0.029578 0.406778 0.483098
C94   C     C_3   0.718262 0.970426 0.406778 0.483099
C95   C     C_3   0.227484 0.529583 0.398499 0.488352
C96   C     C_3   0.227484 0.470418 0.398499 0.488399
C97   C     C_R   0.804190 0.525898 0.455647 0.110996
C98   C     C_R   0.804190 0.474102 0.455647 0.110979
C99   C     C_R   0.304489 0.025900 0.457487 0.134468
C100  C     C_R   0.304489 0.974100 0.457487 0.134485
C101  C     C_R   0.749133 0.554452 0.500445 -0.072934
C102  C     C_R   0.749133 0.445548 0.500445 -0.072937
C103  C     C_R   0.249168 0.054452 0.500385 -0.077080
C104  C     C_R   0.249168 0.945548 0.500386 -0.077075
C105  C     C_R   0.691817 0.526995 0.546862 -0.212768
C106  C     C_R   0.691817 0.473005 0.546862 -0.212780
C107  C     C_R   0.191600 0.026994 0.544793 -0.209749
C108  C     C_R   0.191600 0.973006 0.544793 -0.209735
C109  C     C_3   0.874121 0.470431 0.399301 -0.428898
C110  C     C_3   0.874121 0.529569 0.399301 -0.428972
C111  C     C_3   0.374793 0.970428 0.404312 -0.454373
C112  C     C_3   0.374793 0.029571 0.404312 -0.454191
C113  C     C_R   0.750043 0.890021 0.500041 0.817701
C114  C     C_R   0.750044 0.109979 0.500041 0.817697
C115  C     C_R   0.250072 0.390020 0.500025 0.818869
C116  C     C_R   0.250072 0.609980 0.500026 0.818959
C117  C     C_R   0.889666 0.749416 0.500962 0.832865
C118  C     C_R   0.889667 0.250584 0.500962 0.832831
C119  C     C_R   0.390580 0.250667 0.499141 0.890639
C120  C     C_R   0.390580 0.749334 0.499142 0.890751
C121  C     C_R   0.610274 0.749452 0.499208 0.824686
C122  C     C_R   0.610274 0.250549 0.499207 0.824690
C123  C     C_R   0.109437 0.250564 0.500937 0.821793
C124  C     C_R   0.109437 0.749435 0.500938 0.821811
C125  C     C_R   0.545425 0.786107 0.462081 -0.048354
C126  C     C_R   0.545464 0.213928 0.462002 -0.048404
C127  C     C_R   0.052369 0.275838 0.448028 -0.049617
C128  C     C_R   0.052370 0.724158 0.448029 -0.049463
C129  C     C_R   0.557584 0.745579 0.493094 -0.060184
C130  C     C_R   0.557587 0.254429 0.493088 -0.060211
C131  C     C_R   0.050956 0.254303 0.506413 -0.087109
C132  C     C_R   0.050955 0.745699 0.506413 -0.087145
C133  C     C_R   0.520605 0.700373 0.513412 0.049633
C134  C     C_R   0.520576 0.299623 0.513470 0.049624
C135  C     C_R   0.991575 0.239691 0.571499 0.036970
C136  C     C_R   0.991580 0.760333 0.571487 0.036944
H1    H     H_    0.568694 0.675996 0.934051 0.250168
H2    H     H_    0.566269 0.325140 0.934052 0.250345
H3    H     H_    0.065133 0.174329 0.934023 0.252872
H4    H     H_    0.065861 0.825351 0.934022 0.252870
H5    H     H_    0.612042 0.728159 0.936703 0.144101
H6    H     H_    0.611291 0.274450 0.936702 0.144088
H7    H     H_    0.110943 0.224298 0.936662 0.150680
H8    H     H_    0.111185 0.774933 0.936663 0.150642
H9    H     H_    0.471614 0.692580 0.938172 0.243720
H10   H     H_    0.469779 0.305490 0.938172 0.243655
H11   H     H_    0.968943 0.195436 0.938178 0.242541
H12   H     H_    0.969472 0.805150 0.938177 0.242606
H13   H     H_    0.548252 0.724497 0.063701 0.075405
H14   H     H_    0.547383 0.278099 0.063700 0.075410
H15   H     H_    0.047006 0.220645 0.063662 0.082859
H16   H     H_    0.047282 0.778591 0.063662 0.082910
H17   H     H_    0.776214 0.953055 0.577292 0.172225
H18   H     H_    0.776215 0.046945 0.577293 0.172223
H19   H     H_    0.269101 0.453065 0.583681 0.172586
H20   H     H_    0.269101 0.546935 0.583681 0.172583
H21   H     H_    0.670807 0.047271 0.432763 -0.001832
H22   H     H_    0.670805 0.952735 0.432764 -0.001854
H23   H     H_    0.180926 0.547396 0.419686 0.008751
H24   H     H_    0.180926 0.452605 0.419686 0.008803
H25   H     H_    0.647142 0.546944 0.583086 0.181795
H26   H     H_    0.647142 0.453056 0.583086 0.181804
H27   H     H_    0.146724 0.046945 0.579443 0.181369
H28   H     H_    0.146724 0.953055 0.579444 0.181367
H29   H     H_    0.898270 0.453378 0.422502 0.221854
H30   H     H_    0.898271 0.546622 0.422502 0.221851
H31   H     H_    0.396761 0.953382 0.430143 0.222481
H32   H     H_    0.396761 0.046618 0.430143 0.222528
H33   H     H_    0.886964 0.453362 0.346303 0.225932
H34   H     H_    0.886964 0.546637 0.346303 0.225892
H35   H     H_    0.390020 0.953349 0.350376 0.216176
H36   H     H_    0.390020 0.046651 0.350376 0.216289
H37   H     H_    0.485553 0.864427 0.432255 0.088991
H38   H     H_    0.485683 0.135642 0.431999 0.089038
H39   H     H_    0.024829 0.231727 0.351133 0.067772
H40   H     H_    0.024818 0.768284 0.351151 0.067865
H41   H     H_    0.531534 0.852678 0.531199 0.194951
H42   H     H_    0.531649 0.147282 0.530971 0.194963
H43   H     H_    0.129001 0.299527 0.334556 0.232704
H44   H     H_    0.129010 0.700493 0.334542 0.232494
H45   H     H_    0.385790 0.762463 0.061182 0.128695
H46   H     H_    0.386240 0.234859 0.061183 0.128609
H47   H     H_    0.886515 0.266385 0.061213 0.125045
H48   H     H_    0.886361 0.734405 0.061213 0.125098
H49   H     H_    0.447600 0.755576 0.934209 0.144729
H50   H     H_    0.447826 0.241687 0.934211 0.144648
H51   H     H_    0.947968 0.259602 0.934241 0.139479
H52   H     H_    0.947880 0.741208 0.934241 0.139543
H53   H     H_    0.582520 0.817294 0.937622 0.136511
H54   H     H_    0.584682 0.184423 0.937622 0.136437
H55   H     H_    0.085718 0.314722 0.937610 0.138921
H56   H     H_    0.085090 0.684751 0.937610 0.138884
O1    O     O_3   0.750020 0.750020 0.500000 -0.502036
O2    O     O_3   0.750020 0.249980 0.500000 -0.502037
O3    O     O_3   0.250020 0.250020 0.500000 -0.500787
O4    O     O_3   0.250020 0.749980 0.500000 -0.500762
O5    O     O_R   0.698170 0.634220 0.542990 -0.645584
O6    O     O_R   0.698170 0.365780 0.542990 -0.645593
O7    O     O_R   0.198170 0.134220 0.542990 -0.648132
O8    O     O_R   0.198170 0.865780 0.542990 -0.648117
O9    O     O_R   0.741140 0.865830 0.457020 -0.614968
O10   O     O_R   0.741140 0.134170 0.457020 -0.614969
O11   O     O_R   0.241140 0.365830 0.457020 -0.609778
O12   O     O_R   0.241140 0.634170 0.457020 -0.609765
O13   O     O_R   0.862350 0.719680 0.336040 -0.624692
O14   O     O_R   0.862350 0.280320 0.336040 -0.624635
O15   O     O_R   0.362350 0.219680 0.336040 -0.645367
O16   O     O_R   0.362350 0.780320 0.336040 -0.645516
O17   O     O_R   0.698420 0.780360 0.663960 -0.637397
O18   O     O_R   0.698420 0.219640 0.663960 -0.637489
O19   O     O_R   0.198420 0.280360 0.663960 -0.637634
O20   O     O_R   0.198420 0.719640 0.663960 -0.637620
O21   O     O_R   0.801620 0.780400 0.336040 -0.603155
O22   O     O_R   0.801620 0.219600 0.336040 -0.603140
O23   O     O_R   0.301620 0.280400 0.336040 -0.600402
O24   O     O_R   0.301620 0.719600 0.336040 -0.600552
O25   O     O_R   0.637700 0.719640 0.663960 -0.633119
O26   O     O_R   0.637700 0.280360 0.663960 -0.633042
O27   O     O_R   0.137700 0.219640 0.663960 -0.629125
O28   O     O_R   0.137700 0.780360 0.663960 -0.629143
O29   O     O_R   0.801870 0.634220 0.457010 -0.634307
O30   O     O_R   0.801870 0.365780 0.457010 -0.634293
O31   O     O_R   0.301870 0.134220 0.457010 -0.635999
O32   O     O_R   0.301870 0.865780 0.457010 -0.636069
O33   O     O_R   0.758890 0.865820 0.542980 -0.657261
O34   O     O_R   0.758890 0.134180 0.542980 -0.657266
O35   O     O_R   0.258890 0.365820 0.542980 -0.656741
O36   O     O_R   0.258890 0.634180 0.542980 -0.656739
O37   O     O_R   0.887320 0.719660 0.457000 -0.614008
O38   O     O_R   0.887320 0.280340 0.457000 -0.613995
O39   O     O_R   0.387320 0.219660 0.457000 -0.648915
O40   O     O_R   0.387320 0.780340 0.457000 -0.648956
O41   O     O_R   0.655700 0.780400 0.457020 -0.657322
O42   O     O_R   0.655700 0.219600 0.457020 -0.657347
O43   O     O_R   0.155700 0.280400 0.457020 -0.647177
O44   O     O_R   0.155700 0.719600 0.457020 -0.647236
O45   O     O_R   0.844340 0.780370 0.542980 -0.620678
O46   O     O_R   0.844340 0.219630 0.542980 -0.620696
O47   O     O_R   0.344340 0.280370 0.542980 -0.619024
O48   O     O_R   0.344340 0.719630 0.542980 -0.619007
O49   O     O_R   0.612730 0.719670 0.543000 -0.618549
O50   O     O_R   0.612730 0.280330 0.543000 -0.618514
O51   O     O_R   0.112730 0.219670 0.543000 -0.623494
O52   O     O_R   0.112730 0.780330 0.543000 -0.623484
Zn1   Zn    Zn3+2 0.675940 0.706640 0.561420 0.979789
Zn2   Zn    Zn3+2 0.675940 0.293360 0.561420 0.979837
Zn3   Zn    Zn3+2 0.175940 0.206640 0.561420 0.982270
Zn4   Zn    Zn3+2 0.175940 0.793360 0.561420 0.982278
Zn5   Zn    Zn3+2 0.824100 0.706650 0.438580 1.018941
Zn6   Zn    Zn3+2 0.824100 0.293350 0.438580 1.018948
Zn7   Zn    Zn3+2 0.324100 0.206650 0.438580 0.992732
Zn8   Zn    Zn3+2 0.324100 0.793350 0.438580 0.992690
Zn9   Zn    Zn3+2 0.762700 0.793390 0.561410 0.974993
Zn10  Zn    Zn3+2 0.762700 0.206610 0.561410 0.974932
Zn11  Zn    Zn3+2 0.262700 0.293390 0.561410 0.991053
Zn12  Zn    Zn3+2 0.262700 0.706610 0.561410 0.991148
Zn13  Zn    Zn3+2 0.737340 0.793410 0.438590 1.013591
Zn14  Zn    Zn3+2 0.737340 0.206590 0.438590 1.013556
Zn15  Zn    Zn3+2 0.237340 0.293410 0.438590 1.021187
Zn16  Zn    Zn3+2 0.237340 0.706590 0.438590 1.021154
N1    N     N_3   0.537943 0.655250 0.534772 -0.424977
H57   H     H_    0.545728 0.625194 0.499191 0.177443
H58   H     H_    0.500570 0.645321 0.588973 0.192079
N2    N     N_3   0.537880 0.344733 0.534895 -0.424926
H59   H     H_    0.545644 0.374814 0.499354 0.177397
H60   H     H_    0.500499 0.354625 0.589112 0.192118
N3    N     N_3   0.987089 0.224337 0.636477 -0.422115
H61   H     H_    0.969987 0.186728 0.650128 0.189900
H62   H     H_    0.955110 0.248555 0.680387 0.176621
N4    N     N_3   0.987100 0.775717 0.636450 -0.422101
H63   H     H_    0.970023 0.813333 0.650057 0.189890
H64   H     H_    0.955106 0.751524 0.680385 0.176651
N5    N     N_3   0.513994 0.846980 0.926809 -0.372574
H65   H     H_    0.470672 0.837537 0.936585 0.233564
H66   H     H_    0.547915 0.849952 0.869445 0.185116
N6    N     N_3   0.517161 0.152360 0.926808 -0.372825
H67   H     H_    0.473554 0.160554 0.936581 0.233541
H68   H     H_    0.551178 0.149557 0.869444 0.185248
N7    N     N_3   0.018677 0.347908 0.926839 -0.373337
H69   H     H_    0.974939 0.340310 0.936631 0.230510
H70   H     H_    0.052723 0.350633 0.869473 0.183973
N8    N     N_3   0.017732 0.652264 0.926840 -0.373338
H71   H     H_    0.974069 0.660234 0.936633 0.230524
H72   H     H_    0.051750 0.649488 0.869474 0.183893
F1    F     F_    0.436882 0.839272 0.069496 -0.647986
F2    F     F_    0.439800 0.159877 0.069494 -0.648116
F3    F     F_    0.941237 0.340470 0.069526 -0.647998
F4    F     F_    0.940365 0.659760 0.069527 -0.648022
N9    N     N_3   0.522149 0.827375 0.074490 -0.440713
H73   H     H_    0.566119 0.809375 0.049483 0.113962
H74   H     H_    0.531558 0.866336 0.060997 0.234452
N10   N     N_3   0.524633 0.174606 0.074489 -0.440676
H75   H     H_    0.568001 0.193614 0.049484 0.113949
H76   H     H_    0.535308 0.135751 0.060994 0.234284
N11   N     N_3   0.025855 0.324389 0.074477 -0.425146
H77   H     H_    0.068929 0.304909 0.049452 0.122426
H78   H     H_    0.037123 0.363181 0.060995 0.239787
N12   N     N_3   0.025133 0.675005 0.074477 -0.425320
H79   H     H_    0.068394 0.694189 0.049452 0.122379
H80   H     H_    0.036027 0.636172 0.060996 0.239704
F5    F     F_    0.498495 0.664385 0.066548 -0.557800
F6    F     F_    0.495697 0.336617 0.066549 -0.556995
F7    F     F_    0.994414 0.162908 0.066522 -0.555692
F8    F     F_    0.995251 0.836816 0.066521 -0.555854
F9    F     F_    0.397045 0.687134 0.071101 -0.569353
F10   F     F_    0.395039 0.310672 0.071101 -0.569998
F11   F     F_    0.894152 0.190366 0.071108 -0.576672
F12   F     F_    0.894730 0.810299 0.071107 -0.576395
N13   N     N_3   0.427579 0.655079 0.534465 -0.428065
H81   H     H_    0.455526 0.625099 0.498819 0.179999
H82   H     H_    0.410700 0.645089 0.588664 0.193171
N14   N     N_3   0.427520 0.344904 0.534586 -0.428036
H83   H     H_    0.455446 0.374908 0.498979 0.179929
H84   H     H_    0.410633 0.354859 0.588799 0.193202
N15   N     N_3   0.876542 0.224241 0.636518 -0.418916
H85   H     H_    0.880078 0.186563 0.649870 0.187769
H86   H     H_    0.864643 0.248283 0.680579 0.176835
N16   N     N_3   0.876559 0.775815 0.636489 -0.418866
H87   H     H_    0.880114 0.813500 0.649797 0.187761
H88   H     H_    0.864648 0.751798 0.680575 0.176907
F13   F     F_    0.765888 0.050516 0.338985 -0.542916
F14   F     F_    0.765885 0.949487 0.338985 -0.542907
F15   F     F_    0.278406 0.550473 0.332835 -0.535567
F16   F     F_    0.278406 0.449527 0.332835 -0.535575
F17   F     F_    0.426809 0.852918 0.547593 -0.656098
F18   F     F_    0.426924 0.147024 0.547362 -0.656094
F19   F     F_    0.034451 0.311068 0.331184 -0.618033
F20   F     F_    0.034463 0.688945 0.331165 -0.618169
N17   N     N_3   0.592727 0.871957 0.414651 -0.450862
H89   H     H_    0.632757 0.866878 0.414343 0.243976
H90   H     H_    0.603925 0.857311 0.364402 0.209226
N18   N     N_3   0.592863 0.128128 0.414379 -0.450773
H91   H     H_    0.632880 0.133187 0.414100 0.244072
H92   H     H_    0.604061 0.142841 0.364162 0.209259
N19   N     N_3   0.126569 0.216854 0.344351 -0.451762
H93   H     H_    0.163981 0.217991 0.349584 0.206403
H94   H     H_    0.094898 0.188518 0.380638 0.178410
N20   N     N_3   0.126551 0.783167 0.344375 -0.451727
H95   H     H_    0.163969 0.782030 0.349597 0.206396
H96   H     H_    0.094871 0.811493 0.380687 0.178498

loop_
_geom_bond_atom_site_label_1
_geom_bond_atom_site_label_2
_ccdc_geom_bond_type
C99   C103  A    
C110  H30   S    
C55   C59   S    
C35   N11   S    
C41   C61   S    
O8    Zn4   S    
C43   C63   S    
C44   C64   S    
C108  H28   S    
N8    H71   S    
O46   Zn10  S    
O49   Zn1   S    
O25   Zn1   S    
C51   H47   S    
C26   C50   S    
O41   Zn13  S    
C3    O23   A    
C29   C33   S    
C100  C104  A    
C35   F3    S    
C9    C13   A    
O17   Zn9   S    
O36   Zn12  S    
C11   C15   A    
C48   O20   A    
C27   C51   S    
C115  O11   A    
C70   C74   T    
C52   F12   S    
O40   Zn8   S    
C113  O9    A    
C124  O52   A    
C23   H43   S    
C119  O39   A    
C123  C131  S    
C21   H41   S    
O28   Zn4   S    
C117  O45   A    
C98   C109  S    
C15   C127  A    
O4    Zn4   S    
C33   C53   S    
C130  C134  A    
C116  O12   A    
C17   H37   S    
C4    O16   A    
O48   Zn12  S    
C84   C88   A    
C92   O32   A    
C25   C41   S    
N19   H94   S    
C20   F20   S    
C98   C102  A    
O3    Zn3   S    
C28   C44   S    
C17   C21   S    
O1    Zn9   S    
C18   F18   S    
C19   C23   S    
C115  O35   A    
C83   C115  S    
C78   C82   A    
C113  O33   A    
C16   C20   S    
C27   H51   S    
C25   H49   S    
C129  C133  A    
C122  O42   A    
C33   F1    S    
C2    O22   A    
O11   Zn15  S    
O47   Zn11  S    
N4    H64   S    
C111  H31   S    
N12   H79   S    
C36   F4    S    
C41   C69   S    
C64   H4    S    
O42   Zn14  S    
C24   N20   S    
C43   C71   S    
C89   C101  S    
C63   H3    S    
O3    Zn15  S    
C52   H48   S    
C91   C103  S    
C95   F15   S    
C57   C61   S    
C59   C63   S    
C14   C126  A    
C60   C64   S    
C3    O15   A    
N10   H76   S    
C86   H18   S    
C79   C96   S    
C94   F14   S    
C49   C53   S    
C31   C35   S    
O5    Zn1   S    
C44   C72   S    
C51   C55   S    
N7    H70   S    
O14   Zn6   S    
C127  C131  A    
C92   C104  S    
C12   C117  S    
C124  O44   A    
C125  C129  A    
C100  C111  S    
O33   Zn9   S    
O2    Zn2   S    
O19   Zn11  S    
C103  C107  A    
C93   F13   S    
C58   H14   S    
O37   Zn5   S    
C4    O24   A    
C47   O19   A    
O12   Zn16  S    
C48   C76   S    
C111  C112  S    
O39   Zn7   S    
C120  O40   A    
C123  O51   A    
C97   C98   A    
N11   H78   S    
C85   C86   A    
C133  N1    S    
C31   C43   S    
C95   H23   S    
C32   C36   S    
C89   O29   A    
N1    H57   S    
C77   C94   S    
C42   C70   S    
N14   H83   S    
C124  C132  S    
O16   Zn8   S    
O23   Zn15  S    
C26   H10   S    
C90   C102  S    
N16   H88   S    
C10   C119  S    
N2    H59   S    
C37   C65   T    
C24   H44   S    
C107  C108  A    
O2    Zn6   S    
C2    O14   A    
C53   C65   S    
C42   C62   S    
C8    C12   A    
C84   C116  S    
N17   H90   S    
C50   H46   S    
C62   H6    S    
C109  H33   S    
C59   F7    S    
N13   H82   S    
C29   N5    S    
C60   F8    S    
O44   Zn16  S    
C30   C34   S    
C12   C16   A    
N18   H91   S    
C10   C14   A    
C56   C68   S    
C45   O17   A    
N19   H93   S    
C5    C9    A    
C36   N12   S    
C132  C136  A    
O4    Zn8   S    
N9    H73   S    
C5    C133  A    
C80   C95   S    
C49   H45   S    
C18   H38   S    
C61   H5    S    
C107  H27   S    
N20   H96   S    
C105  H25   S    
O30   Zn6   S    
C26   C42   S    
C5    N13   S    
O9    Zn13  S    
C29   C41   S    
C18   C22   S    
N3    H61   S    
C54   C66   S    
C89   O5    A    
N8    H72   S    
C13   C17   S    
C13   C125  A    
C26   H50   S    
C119  O47   A    
C20   H40   S    
C34   F2    S    
C117  O37   A    
N5    H66   S    
C111  H35   S    
C30   H54   S    
C19   H39   S    
O32   Zn8   S    
C56   C60   S    
N6    H67   S    
C24   C128  S    
C9    C120  S    
C63   H7    S    
C92   O8    A    
C11   C118  S    
O15   Zn7   S    
C81   C85   A    
C116  O36   A    
C58   C62   S    
C83   C87   A    
C87   C88   A    
C30   N6    S    
C46   O26   A    
O3    Zn11  S    
C8    C136  A    
C80   C84   A    
O50   Zn2   S    
C77   C78   A    
C15   C19   S    
C50   C54   S    
C88   H20   S    
O45   Zn9   S    
C49   F9    S    
C28   H52   S    
C57   F5    S    
C126  C130  A    
C31   H55   S    
C96   F16   S    
C32   H56   S    
C60   H16   S    
C6    N14   S    
O1    Zn13  S    
N7    H69   S    
C114  O10   A    
C69   C73   T    
C72   C76   T    
C118  O46   A    
N15   H85   S    
C94   H22   S    
N12   H80   S    
C32   N8    S    
C50   F10   S    
C28   H12   S    
N11   H77   S    
C53   C57   S    
C23   N19   S    
C82   C86   A    
O2    Zn10  S    
C8    N16   S    
C121  O49   A    
C17   F17   S    
C36   C56   S    
C114  O34   A    
C19   F19   S    
C77   C81   A    
C62   H2    S    
C58   F6    S    
C109  H29   S    
C120  O48   A    
C123  O43   A    
C110  H34   S    
O29   Zn5   S    
C121  O41   A    
C1    O21   A    
O27   Zn3   S    
C91   O31   A    
O43   Zn15  S    
C104  C108  A    
C23   C127  S    
C48   O28   A    
O31   Zn7   S    
C134  N2    S    
O21   Zn13  S    
C121  C129  S    
C6    C10   A    
C33   N9    S    
C136  N4    S    
C105  C106  A    
O4    Zn12  S    
C46   O18   A    
C109  C110  S    
C79   C83   A    
N3    H62   S    
C61   H1    S    
C112  H36   S    
O6    Zn2   S    
C7    N15   S    
N14   H84   S    
C106  H26   S    
C25   C49   S    
O13   Zn5   S    
C47   C75   S    
C27   C43   S    
C4    C37   S    
N2    H60   S    
C40   C68   T    
C81   C113  S    
O1    Zn1   S    
N4    H63   S    
C30   C42   S    
C93   C94   S    
C45   O25   A    
N17   H89   S    
C14   C18   S    
C95   C96   S    
C22   H42   S    
C122  O50   A    
N13   H81   S    
C7    C11   A    
O26   Zn2   S    
N10   H75   S    
N18   H92   S    
C90   O30   A    
C131  C135  A    
O10   Zn14  S    
C22   C126  S    
C78   C93   S    
C112  H32   S    
C45   C73   S    
O4    Zn16  S    
O18   Zn10  S    
C1    C40   S    
C2    C39   S    
C38   C66   T    
C3    C38   S    
O3    Zn7   S    
O1    Zn5   S    
C31   N7    S    
O7    Zn3   S    
C91   O7    A    
C135  N3    S    
C128  C132  A    
C34   N10   S    
C101  C105  A    
N15   H86   S    
C35   C55   S    
C20   C24   S    
C82   C114  S    
N1    H58   S    
O35   Zn11  S    
C64   H8    S    
C47   O27   A    
C57   H13   S    
O2    Zn14  S    
O20   Zn12  S    
C7    C135  A    
N16   H87   S    
C99   C100  A    
C22   N18   S    
O52   Zn4   S    
N5    H65   S    
C32   C44   S    
C85   H17   S    
C93   H21   S    
C16   C128  A    
C51   F11   S    
C96   H24   S    
N6    H68   S    
C87   H19   S    
O24   Zn16  S    
C21   N17   S    
C46   C74   S    
C1    O13   A    
C54   C58   S    
C39   C67   T    
C55   C67   S    
C34   C54   S    
C90   O6    A    
C59   H15   S    
O51   Zn3   S    
C6    C134  A    
C71   C75   T    
C97   C110  S    
C28   C52   S    
C118  O38   A    
C99   C112  S    
N9    H74   S    
C102  C106  A    
C29   H53   S    
C79   C80   A    
O34   Zn10  S    
C27   H11   S    
N20   H95   S    
O22   Zn14  S    
C25   H9    S    
O38   Zn6   S    
C21   C125  S    
C122  C130  S    
C97   C101  A    
C52   C56   S    
