data_mof_unit_38063.cif
_audit_creation_date              2012-10-26T20:51:12-0400
_audit_creation_method            fapswitch 2.2
_symmetry_space_group_name_H-M    P1
_symmetry_Int_Tables_number       1
_space_group_crystal_system       triclinic
_cell_length_a                    13.069573
_cell_length_b                    10.851973
_cell_length_c                    9.578515
_cell_angle_alpha                 88.713094
_cell_angle_beta                  95.911319
_cell_angle_gamma                 92.212784
_cell_volume                      1350.06195909

loop_
_atom_site_label
_atom_site_type_symbol
_atom_type_description
_atom_site_fract_x
_atom_site_fract_y
_atom_site_fract_z
_atom_type_partial_charge
C1    C     C_R   0.502123 0.262209 0.501058 0.540073
C2    C     C_R   0.519005 0.938960 0.372592 -0.159559
C3    C     C_R   0.515398 0.870814 0.498493 0.009618
C4    C     C_R   0.300723 0.503815 0.474063 0.555749
C5    C     C_R   0.526346 0.933544 0.624892 0.018493
C6    C     C_3   0.465042 0.918569 0.747444 -0.258267
C7    C     C_3   0.463053 0.057715 0.748304 -0.278134
C8    C     C_R   0.541405 0.598208 0.076618 0.153958
C9    C     C_R   0.445007 0.414001 0.071470 0.017968
C10   C     C_R   0.441680 0.414965 0.923040 0.114379
C11   C     C_R   0.541420 0.598294 0.929917 0.152982
C12   C     C_R   0.028000 0.501356 0.570798 0.077368
C13   C     C_3   0.648262 0.652166 0.938063 -0.282576
C14   C     C_3   0.648493 0.651288 0.096901 -0.280323
C15   C     C_R   0.503197 0.737552 0.499087 0.549607
C16   C     C_R   0.699305 0.495400 0.526512 0.578065
C17   C     C_R   0.812160 0.487760 0.543639 0.006053
C18   C     C_R   0.187866 0.507897 0.460334 0.002211
C19   C     C_R   0.024571 0.496794 0.315756 -0.136211
C20   C     C_R   0.131588 0.498118 0.327974 -0.166947
C21   C     C_R   0.135428 0.517917 0.580824 0.243934
C22   C     C_3   0.366588 0.321437 0.854291 -0.361870
C23   C     C_R   0.972409 0.496855 0.436382 -0.047123
C24   C     C_R   0.865403 0.492576 0.423969 -0.192702
C25   C     C_R   0.867066 0.476323 0.678072 0.224945
C26   C     C_R   0.975661 0.483252 0.691738 0.253537
C27   C     C_R   0.525320 0.060530 0.626384 0.030960
C28   C     C_R   0.513416 0.129164 0.501285 0.012996
C29   C     C_R   0.518040 0.067588 0.373989 -0.155227
Cu1   Cu    Cu3+1 0.499990 0.499980 0.640670 0.987361
Cu2   Cu    Cu3+1 0.500010 0.500020 0.359330 0.938053
H1    H     H_    0.823675 0.493968 0.320302 0.134487
H2    H     H_    0.982560 0.491962 0.212243 0.131980
H3    H     H_    0.170191 0.492426 0.233665 0.154707
H4    H     H_    0.515397 0.117708 0.274693 0.135919
H5    H     H_    0.516689 0.893416 0.272781 0.132712
H6    H     H_    0.387950 0.873391 0.720064 0.166301
H7    H     H_    0.358603 0.322064 0.739665 0.190672
H8    H     H_    0.387452 0.229113 0.895709 0.085385
H9    H     H_    0.289259 0.335908 0.887614 0.093890
H10   H     H_    0.855107 0.488529 0.878148 0.320686
H11   H     H_    0.996543 0.397862 0.871771 0.321069
H12   H     H_    0.510046 0.879282 0.841508 0.133858
H13   H     H_    0.206851 0.477797 0.756692 0.350485
H14   H     H_    0.384494 0.091941 0.719398 0.131541
H15   H     H_    0.507291 0.097579 0.843040 0.145412
H16   H     H_    0.401630 0.344181 0.125550 0.120402
H17   H     H_    0.702894 0.588278 0.901978 0.200206
H18   H     H_    0.651950 0.746471 0.890991 0.125011
H19   H     H_    0.703590 0.586192 0.150831 0.149827
H20   H     H_    0.651797 0.745250 0.141383 0.126152
N1    N     N_R   0.500660 0.500930 0.148010 -0.242440
N2    N     N_R   0.500660 0.500890 0.852110 -0.211247
O1    O     O_R   0.500000 0.319640 0.618810 -0.511726
O2    O     O_3   0.031396 0.464916 0.820549 -0.705269
O3    O     O_3   0.187988 0.554872 0.705339 -0.630149
O4    O     O_R   0.500010 0.319680 0.381230 -0.519343
O5    O     O_R   0.348990 0.499960 0.599490 -0.488869
O6    O     O_R   0.349000 0.500000 0.361910 -0.512267
O7    O     O_R   0.499990 0.680320 0.618770 -0.499832
O8    O     O_R   0.500000 0.680360 0.381190 -0.506017
O9    O     O_R   0.651000 0.500000 0.638090 -0.439393
O10   O     O_R   0.651010 0.500040 0.400510 -0.523711
O11   O     O_3   0.813622 0.455770 0.793816 -0.709809

loop_
_geom_bond_atom_site_label_1
_geom_bond_atom_site_label_2
_ccdc_geom_bond_type
C21   O3    S    
C19   C23   A    
C23   C24   A    
C24   H1    S    
C6    C7    S    
C16   O10   A    
C1    O4    A    
H11   O2    S    
C1    C28   S    
C18   C21   A    
C11   C13   S    
C9    C10   A    
C8    N1    A    
C14   H20   S    
C11   N2    A    
C22   H9    S    
Cu2   N1    S    
C1    O1    A    
C4    C18   S    
C26   O2    S    
Cu2   O4    S    
Cu1   O9    S    
C2    C3    A    
C15   O8    A    
C6    H6    S    
C20   H3    S    
Cu2   O8    S    
C5    C27   A    
C13   C14   S    
C10   C22   S    
H13   O3    S    
Cu1   O1    S    
C12   C23   A    
C14   H19   S    
C9    N1    A    
C16   O9    A    
C8    C11   A    
C13   H18   S    
C22   H8    S    
C7    H14   S    
C4    O6    A    
C28   C29   A    
C9    H16   S    
C18   C20   A    
C6    H12   S    
C2    C29   A    
C5    C6    S    
Cu1   N2    S    
C17   C24   A    
C2    H5    S    
C22   H7    S    
C7    H15   S    
Cu2   O10   S    
C7    C27   S    
C19   H2    S    
Cu2   O6    S    
C27   C28   A    
C10   N2    A    
C29   H4    S    
Cu1   Cu2   S    
C16   C17   S    
C3    C15   S    
C8    C14   S    
H10   O11   S    
C4    O5    A    
C25   C26   A    
Cu1   O5    S    
C12   C21   A    
C25   O11   S    
C15   O7    A    
C19   C20   A    
C12   C26   A    
C17   C25   A    
C3    C5    A    
C13   H17   S    
Cu1   O7    S    
