data_mof_unit_27986.cif
_audit_creation_date              2012-12-11T15:57:48-0500
_audit_creation_method            fapswitch 2.2
_symmetry_space_group_name_H-M    P1
_symmetry_Int_Tables_number       1
_space_group_crystal_system       triclinic
_cell_length_a                    10.684022
_cell_length_b                    10.76078
_cell_length_c                    16.932311
_cell_angle_alpha                 99.519394
_cell_angle_beta                  99.561476
_cell_angle_gamma                 61.459416
_cell_volume                      1678.02662981

loop_
_atom_site_label
_atom_site_type_symbol
_atom_type_description
_atom_site_fract_x
_atom_site_fract_y
_atom_site_fract_z
_atom_type_partial_charge
C1    C     C_R   0.354293 0.776611 0.401869 0.592126
C2    C     C_2   0.252977 0.251143 0.792053 0.180186
C3    C     C_2   0.359688 0.159306 0.748010 -0.093154
C4    C     C_R   0.369104 0.346238 0.357329 0.545880
C5    C     C_2   0.366436 0.180854 0.665084 0.248250
C6    C     C_1   0.815392 0.342850 0.709005 0.002987
C7    C     C_1   0.841476 0.314425 0.776832 -0.020218
C8    C     C_1   0.359302 0.762604 0.713737 -0.043479
C9    C     C_1   0.326551 0.810233 0.780711 -0.035642
C10   C     C_R   0.892653 0.309118 0.086415 0.579038
C11   C     C_R   0.319551 0.300101 0.119492 0.564346
C12   C     C_2   0.824462 0.339570 0.159318 -0.044871
C13   C     C_R   0.293421 0.893599 0.085136 0.553871
C14   C     C_R   0.883788 0.297665 0.859106 0.543414
C15   C     C_R   0.270707 0.245702 0.879710 0.572870
C16   C     C_R   0.696186 0.421176 0.394706 0.635206
C17   C     C_R   0.280832 0.880486 0.857352 0.544842
C18   C     C_R   0.381809 0.713116 0.631435 0.549144
C19   C     C_R   0.366203 0.344810 0.580201 0.561099
C20   C     C_R   0.772978 0.381182 0.629701 0.567619
C21   C     C_1   0.343009 0.336421 0.273871 -0.054886
C22   C     C_1   0.332089 0.326868 0.202850 -0.055157
C23   C     C_2   0.751584 0.275675 0.175487 0.186859
C24   C     C_2   0.684400 0.420576 0.307404 0.188363
C25   C     C_3   0.644799 0.890002 0.328786 0.044161
C26   C     C_3   0.750827 0.780295 0.270698 -0.257693
C27   C     C_3   0.848635 0.833743 0.249078 -0.477587
C28   C     C_2   0.711194 0.298957 0.258425 -0.171801
C29   C     C_2   0.326364 0.857617 0.334390 -0.052897
C30   C     C_2   0.340743 0.838845 0.163305 -0.141668
C31   C     C_2   0.404681 0.898984 0.220565 -0.167179
C32   C     C_2   0.430180 0.869249 0.305531 0.274725
C33   C     C_2   0.315548 0.314388 0.645282 -0.001641
Cr1   Cr    Cr6+3 0.608020 0.610770 0.522990 1.087403
Cr2   Cr    Cr6+3 0.289390 0.599570 0.488050 1.030247
Cr3   Cr    Cr6+3 0.602610 0.289690 0.489020 1.030008
Cr4   Cr    Cr6+3 0.053780 0.052210 0.965970 1.075462
Cr5   Cr    Cr6+3 0.060060 0.372530 0.992430 1.028057
Cr6   Cr    Cr6+3 0.372600 0.061970 0.991430 1.028729
H1    H     H_    0.255700 0.406879 0.685426 0.122180
H2    H     H_    0.058945 0.409626 0.793529 0.353962
H3    H     H_    0.594852 0.547671 0.222755 0.313005
H4    H     H_    0.707933 0.909701 0.383957 0.161350
H5    H     H_    0.580253 0.995175 0.304865 0.123881
H6    H     H_    0.817741 0.679877 0.299438 0.212371
H7    H     H_    0.692423 0.756643 0.214578 0.183502
H8    H     H_    0.784258 0.933064 0.219240 0.150359
H9    H     H_    0.924121 0.752159 0.207125 0.168189
H10   H     H_    0.911601 0.854489 0.304005 0.159583
H11   H     H_    0.724455 0.205528 0.282647 0.117895
H12   H     H_    0.846231 0.412682 0.204644 0.106165
H13   H     H_    0.433116 0.975497 0.205053 0.135449
H14   H     H_    0.307626 0.764536 0.177223 0.100586
H15   H     H_    0.221658 0.890951 0.300279 0.055293
H16   H     H_    0.453049 0.072469 0.775332 0.105658
H17   H     H_    0.677883 0.140510 0.142477 0.329375
H18   H     H_    0.477866 0.977982 0.638840 0.336236
O1    O     O_R   0.749250 0.499990 0.439200 -0.457638
O2    O     O_R   0.411120 0.181190 0.091480 -0.513810
O3    O     O_R   0.364220 0.944920 0.062310 -0.501187
O4    O     O_R   0.477870 0.725740 0.440280 -0.424288
O5    O     O_R   0.158740 0.906940 0.874970 -0.494786
O6    O     O_R   0.930920 0.176940 0.885610 -0.486421
O7    O     O_R   0.910730 0.394510 0.895320 -0.531464
O8    O     O_R   0.185840 0.361180 0.920280 -0.499722
O9    O     O_R   0.399210 0.173040 0.915160 -0.509876
O10   O     O_R   0.353170 0.937370 0.898860 -0.522297
O11   O     O_3   0.162150 0.162240 0.983280 -0.294876
O12   O     O_R   0.299400 0.468710 0.556310 -0.522689
O13   O     O_R   0.260770 0.742210 0.412610 -0.529339
O14   O     O_R   0.297990 0.466320 0.394220 -0.492340
O15   O     O_R   0.487720 0.253870 0.385870 -0.538383
O16   O     O_R   0.721940 0.304340 0.422320 -0.537138
O17   O     O_R   0.750770 0.502570 0.614050 -0.502767
O18   O     O_R   0.479280 0.728140 0.602370 -0.501482
O19   O     O_R   0.262290 0.744790 0.587460 -0.487935
O20   O     O_3   0.731155 0.177134 0.118846 -0.665645
O21   O     O_3   0.444884 0.065849 0.612720 -0.659079
O22   O     O_3   0.124663 0.344686 0.753387 -0.736257
O23   O     O_R   0.489240 0.256450 0.560730 -0.445925
O24   O     O_3   0.641411 0.549230 0.278443 -0.708806
O25   O     O_3   0.560905 0.835994 0.352691 -0.493981
O26   O     O_R   0.723350 0.306730 0.584410 -0.498306
O27   O     O_3   0.500010 0.500010 0.500020 -0.324902
O28   O     O_R   0.170650 0.915100 0.051290 -0.494427
O29   O     O_R   0.941960 0.184500 0.049060 -0.434332
O30   O     O_R   0.922640 0.402670 0.071640 -0.532355
O31   O     O_R   0.196880 0.368740 0.083740 -0.489604

loop_
_geom_bond_atom_site_label_1
_geom_bond_atom_site_label_2
_ccdc_geom_bond_type
C27   H9    S    
C18   O18   A    
Cr6   O11   S    
C31   H13   S    
C25   H4    S    
Cr4   O5    S    
C13   O3    A    
C12   C23   D    
C26   C27   S    
Cr4   O28   S    
C29   C32   D    
C30   C31   D    
C29   H15   S    
C14   O6    A    
Cr3   O26   S    
C15   O8    A    
Cr4   O11   S    
C2    O22   S    
C26   H6    S    
C28   H11   S    
C7    C14   S    
Cr2   O13   S    
C8    C9    T    
C5    C33   D    
Cr1   O18   S    
Cr6   O2    S    
C16   C24   S    
C21   C22   T    
H3    O24   S    
Cr1   O27   S    
C11   O2    A    
C25   H5    S    
Cr4   O6    S    
Cr5   O7    S    
Cr2   O19   S    
C30   H14   S    
C10   O30   A    
C17   O10   A    
C33   H1    S    
C16   O16   A    
Cr4   O29   S    
C19   C33   S    
C25   C26   S    
C15   O9    A    
Cr1   O4    S    
C8    C18   S    
H17   O20   S    
Cr5   O31   S    
C24   O24   S    
C17   O5    A    
C13   C30   S    
C31   C32   S    
Cr5   O8    S    
C11   O31   A    
C14   O7    A    
C1    C29   S    
C20   O17   A    
C16   O1    A    
C23   C28   S    
C23   O20   S    
C2    C15   S    
C10   C12   S    
Cr1   O17   S    
C9    C17   S    
Cr5   O11   S    
Cr3   O23   S    
C25   O25   S    
Cr6   O9    S    
C19   O12   A    
C4    O15   A    
C12   H12   S    
C32   O25   S    
C27   H8    S    
C10   O29   A    
C18   O19   A    
Cr6   O10   S    
H18   O21   S    
C24   C28   D    
C3    C5    S    
C1    O4    A    
H2    O22   S    
Cr2   O27   S    
C6    C7    T    
C6    C20   S    
C11   C22   S    
C3    H16   S    
C1    O13   A    
Cr5   O30   S    
C2    C3    D    
C4    C21   S    
Cr3   O27   S    
Cr6   O3    S    
C19   O23   A    
Cr3   O16   S    
C26   H7    S    
Cr2   O14   S    
C27   H10   S    
Cr2   O12   S    
C20   O26   A    
C13   O28   A    
Cr1   O1    S    
C5    O21   S    
C4    O14   A    
Cr3   O15   S    
