data_mof_unit_29079.cif
_audit_creation_date              2013-03-05T16:07:14-0500
_audit_creation_method            fapswitch 2.2
_symmetry_space_group_name_H-M    P1
_symmetry_Int_Tables_number       1
_space_group_crystal_system       triclinic
_cell_length_a                    8.25243
_cell_length_b                    15.199405
_cell_length_c                    19.113173
_cell_angle_alpha                 102.428528
_cell_angle_beta                  92.043206
_cell_angle_gamma                 99.061238
_cell_volume                      2305.9842332

loop_
_atom_site_label
_atom_site_type_symbol
_atom_site_description
_atom_site_fract_x
_atom_site_fract_y
_atom_site_fract_z
_atom_type_partial_charge
P1    P     P_3+3 0.041320 0.408750 0.334280 0.574177
O1    O     O_2   0.873960 0.434960 0.324060 -0.339604
O2    O     O_3   0.122410 0.443310 0.413000 -0.421231
O3    O     O_3   0.662870 0.605890 0.373310 -0.356893
O4    O     O_2   0.735764 0.553251 0.241232 -0.353745
O5    O     O_3   0.998862 0.288874 0.313347 -0.488409
O6    O     O_3   0.704298 0.724881 0.277133 -0.477459
H1    H     H_    0.718830 0.783344 0.385905 0.116434
C1    C     C_3   0.700875 0.883517 0.323303 -0.845119
H2    H     H_    0.836494 0.903042 0.325829 0.298858
H3    H     H_    0.647360 0.887995 0.270405 0.297929
P2    P     P_3+3 0.676030 0.715810 0.563130 0.526861
P3    P     P_3+3 0.124331 0.773642 0.416825 0.478934
O7    O     O_2   0.851800 0.727510 0.542110 -0.325269
O8    O     O_3   0.085000 0.656180 0.410790 -0.369462
O9    O     O_2   0.998532 0.815990 0.465499 -0.381321
O10   O     O_3   0.713279 0.733145 0.656344 -0.566136
O11   O     O_3   0.067641 0.793807 0.333118 -0.496668
C2    C     C_3   0.195766 0.782585 0.287416 0.048779
H4    H     H_    0.230184 0.714190 0.283849 0.035268
H5    H     H_    0.304238 0.836658 0.307599 0.103531
C3    C     C_3   0.137345 0.789566 0.211762 0.544818
H6    H     H_    0.018756 0.741730 0.195777 0.088416
C4    C     C_3   0.086689 0.755486 0.711411 0.002392
H7    H     H_    0.008874 0.775424 0.671057 0.189542
H8    H     H_    0.001251 0.714491 0.740243 0.099210
C5    C     C_3   0.177737 0.840328 0.765351 0.459890
H9    H     H_    0.305232 0.830133 0.776780 0.113831
Ba1   Ba    Ba6+2 0.853890 0.540460 0.466690 1.700160
C6    C     C_3   0.979055 0.257091 0.376830 0.445308
H10   H     H_    0.871941 0.279446 0.403739 -0.021866
H11   H     H_    0.086031 0.284253 0.415135 0.157147
C7    C     C_3   0.958500 0.153266 0.359588 -0.874049
H12   H     H_    0.836305 0.122778 0.331317 0.232670
H13   H     H_    0.967975 0.128267 0.409695 0.203452
H14   H     H_    0.056821 0.130710 0.325372 0.320481
C8    C     C_3   0.596334 0.779895 0.693247 -0.010466
H15   H     H_    0.493425 0.728187 0.702311 0.193762
H16   H     H_    0.544252 0.825195 0.662778 0.127536
C9    C     C_3   0.678696 0.837492 0.766089 0.482989
H17   H     H_    0.811953 0.855392 0.760078 0.097814
P4    P     P_3+3 0.148390 0.591320 0.665730 0.544082
O12   O     O_2   0.315740 0.565070 0.675980 -0.323777
O13   O     O_3   0.067300 0.556760 0.587010 -0.353960
O14   O     O_3   0.526840 0.394190 0.626700 -0.390393
O15   O     O_3   0.203577 0.708952 0.674101 -0.556479
P5    P     P_3+3 0.064715 0.224938 0.584178 0.465294
O16   O     O_3   0.609760 0.386320 0.459970 -0.342033
O17   O     O_3   0.104710 0.343900 0.589220 -0.375443
O18   O     O_2   0.188661 0.179731 0.536105 -0.443286
O19   O     O_3   0.103246 0.199545 0.668503 -0.564881
Ba2   Ba    Ba6+2 0.335940 0.459610 0.533320 1.679371
P6    P     P_3+3 0.624375 0.614142 0.285133 0.525284
C10   C     C_3   0.655142 0.786917 0.334720 0.516143
H18   H     H_    0.520336 0.772280 0.338641 -0.057638
H19   H     H_    0.652781 0.932715 0.365502 0.188952
O20   O     O_3   0.579960 0.613760 0.540040 -0.350803
C11   C     C_3   0.571045 0.249493 0.295636 0.796382
H20   H     H_    0.692959 0.281400 0.321228 -0.006533
C12   C     C_3   0.586081 0.170019 0.231853 -0.191825
H21   H     H_    0.581222 0.106171 0.251914 0.124633
H22   H     H_    0.480391 0.157574 0.191246 0.201331
P7    P     P_3+3 0.517207 0.268247 0.434047 0.468050
O21   O     O_2   0.337900 0.272520 0.457940 -0.352203
O22   O     O_3   0.467078 0.214602 0.342937 -0.621264
C13   C     C_3   0.083397 0.273502 0.724437 0.644349
H23   H     H_    0.161290 0.336692 0.717112 0.055008
C14   C     C_3   0.143106 0.260066 0.798621 -0.210808
H24   H     H_    0.125730 0.320909 0.839964 0.072782
H25   H     H_    0.276475 0.257903 0.800835 0.161217
P8    P     P_3+3 0.547712 0.412078 0.719703 0.488255
C15   C     C_3   0.492589 0.236921 0.674148 0.378134
H26   H     H_    0.603721 0.240441 0.643964 0.145439
O23   O     O_2   0.400054 0.455922 0.747550 -0.440608
O24   O     O_3   0.513953 0.303433 0.739291 -0.526736
H27   H     H_    0.390071 0.246150 0.639601 0.151828
H28   H     H_    0.455724 0.090743 0.637034 0.200274
C16   C     C_3   0.455613 0.141882 0.688156 -0.668037
H29   H     H_    0.332837 0.131989 0.709171 0.282938
H30   H     H_    0.548839 0.132065 0.727749 0.326336
C17   C     C_R   0.073363 0.557441 0.804711 -0.211107
H31   H     H_    0.180621 0.607995 0.823837 0.175326
C18   C     C_R   0.016190 0.549747 0.732757 0.177288
C19   C     C_R   0.812254 0.479078 0.827387 -0.265460
H32   H     H_    0.723001 0.454528 0.861074 0.127582
C20   C     C_R   0.749108 0.480156 0.758244 0.384938
C21   C     C_R   0.341032 0.569637 0.186108 -0.313152
H33   H     H_    0.409811 0.614500 0.156912 0.215124
C22   C     C_R   0.403233 0.573112 0.255765 0.159587
C23   C     C_R   0.122861 0.448230 0.197677 -0.245594
H34   H     H_    0.031945 0.388605 0.175443 0.196634
C24   C     C_R   0.163155 0.468490 0.272593 0.368629
C25   C     C_R   0.983003 0.508375 0.850900 0.095799
C26   C     C_R   0.852648 0.514469 0.711265 -0.253861
H35   H     H_    0.806888 0.510643 0.656705 0.149426
C27   C     C_R   0.202158 0.503756 0.153106 0.044077
C28   C     C_R   0.301272 0.533787 0.301183 -0.285274
H36   H     H_    0.339198 0.546481 0.357740 0.156134
C29   C     C_R   0.833498 0.365288 0.933441 -0.156225
C30   C     C_R   0.714180 0.329915 0.973988 -0.031029
C31   C     C_R   0.719143 0.367573 0.046953 -0.050202
C32   C     C_R   0.854691 0.431895 0.080663 -0.164694
C33   C     C_R   0.988480 0.457025 0.040952 0.086759
C34   C     C_R   0.956827 0.439729 0.964930 0.024855
C35   C     C_R   0.152299 0.490781 0.072272 0.020280
C36   C     C_R   0.273540 0.507100 0.022667 0.147934
C37   C     C_R   0.226880 0.516162 0.951301 0.112741
C38   C     C_R   0.057466 0.490135 0.922663 -0.052177
C39   C     C_R   0.442493 0.510431 0.041325 -0.193290
C40   C     C_R   0.563759 0.544727 0.001368 -0.056992
C41   C     C_R   0.519830 0.563171 0.936506 -0.061640
C42   C     C_R   0.356565 0.541376 0.909615 -0.174262
H37   H     H_    0.827776 0.335192 0.877168 0.200222
H38   H     H_    0.614808 0.275931 0.948365 0.173761
H39   H     H_    0.619700 0.344346 0.077031 0.182437
H40   H     H_    0.853642 0.460227 0.137182 0.190598
H41   H     H_    0.483328 0.487420 0.087462 0.122084
H42   H     H_    0.692244 0.554061 0.019493 0.148223
H43   H     H_    0.613924 0.587558 0.904109 0.182501
H44   H     H_    0.340583 0.537304 0.854318 0.179243
C43   C     C_R   0.333002 0.822541 0.459446 0.169236
H45   H     H_    0.365428 0.692749 0.480477 0.167139
H46   H     H_    0.195305 0.951466 0.413775 0.205859
C44   C     C_R   0.573033 0.795730 0.523571 0.199528
C45   C     C_R   0.761014 0.229803 0.519762 -0.454015
C46   C     C_R   0.855201 0.174511 0.546114 0.332923
C47   C     C_R   0.792266 0.082450 0.541751 -0.271366
C48   C     C_R   0.632621 0.043547 0.509206 0.023144
C49   C     C_R   0.541938 0.100453 0.478243 -0.023358
C50   C     C_R   0.562043 0.949577 0.504041 0.075540
C51   C     C_R   0.402887 0.915397 0.467899 -0.038811
C52   C     C_R   0.317546 0.973948 0.439654 -0.189862
C53   C     C_R   0.387267 0.063335 0.442810 -0.059389
C54   C     C_R   0.643582 0.888086 0.532964 -0.252507
C55   C     C_R   0.419673 0.763800 0.486543 -0.404591
C56   C     C_R   0.608425 0.193570 0.483388 0.132972
H47   H     H_    0.761197 0.909510 0.563168 0.175832
H48   H     H_    0.811207 0.301154 0.524192 0.175439
H49   H     H_    0.871356 0.043308 0.563404 0.179967
H50   H     H_    0.315358 0.103029 0.417738 0.201788
S1    S     S_3+6 0.193286 0.938218 0.726404 0.011636
O25   O     O_2   0.024586 0.949718 0.701257 -0.296157
O26   O     O_2   0.271013 0.021240 0.782175 -0.176320
O27   O     O_3   0.310162 0.922451 0.655773 -0.564025
H51   H     H_    0.261619 0.951651 0.620122 0.364350
N1    N     N_R   0.099369 0.854290 0.833864 0.232349
O28   O     O_R   0.046373 0.930161 0.860359 -0.215141
O29   O     O_R   0.098614 0.793679 0.872840 -0.328301
S2    S     S_3+6 0.657931 0.772476 0.834896 0.010582
O30   O     O_2   0.740510 0.690158 0.814232 -0.343718
O31   O     O_2   0.738522 0.830987 0.905070 -0.140536
O32   O     O_3   0.457759 0.737737 0.844379 -0.572489
H52   H     H_    0.450647 0.737040 0.895899 0.398596
N2    N     N_R   0.615113 0.923826 0.786433 0.237410
O33   O     O_R   0.638765 0.982664 0.745651 -0.333331
O34   O     O_R   0.552719 0.947641 0.848044 -0.250608
S3    S     S_3+6 0.476812 0.333714 0.267347 -0.008474
O35   O     O_2   0.304442 0.292212 0.236900 -0.307869
O36   O     O_2   0.473505 0.407667 0.332916 -0.300952
O37   O     O_3   0.581636 0.377406 0.205984 -0.527335
H53   H     H_    0.501153 0.405453 0.182276 0.341047
N3    N     N_R   0.739929 0.185990 0.197339 0.275582
O38   O     O_R   0.765907 0.249993 0.161676 -0.329963
O39   O     O_R   0.841912 0.128326 0.193630 -0.321422
N4    N     N_R   0.256309 0.762915 0.159839 0.203568
O40   O     O_R   0.410019 0.801700 0.171085 -0.368653
O41   O     O_R   0.205074 0.708835 0.097899 -0.380461
N5    N     N_R   0.912851 0.287326 0.723646 0.190727
O42   O     O_R   0.861935 0.331039 0.678400 -0.515232
O43   O     O_R   0.806230 0.246321 0.759680 -0.404500
N6    N     N_R   0.057617 0.177664 0.818324 0.317037
O44   O     O_R   0.966209 0.112472 0.771391 -0.195505
O45   O     O_R   0.078284 0.167746 0.884081 -0.270327
S4    S     S_3+6 0.099927 0.902304 0.208994 0.051686
O46   O     O_2   0.132613 0.965118 0.282148 -0.363228
O47   O     O_2   0.208306 0.941501 0.157735 -0.162301
O48   O     O_3   0.902198 0.894131 0.180100 -0.466209
H54   H     H_    0.880184 0.957637 0.191378 0.403921

loop_
_geom_bond_atom_site_label_1
_geom_bond_atom_site_label_2
_geom_bond_distance
_ccdc_geom_bond_type
C13   C14   1.549672 S    
N6    O44   1.299711 A    
P7    O22   1.760581 S    
N4    O40   1.301252 A    
P2    Ba1   3.459172 S    
O14   P8    1.737462 S    
C37   C42   1.410706 A    
C2    H4    1.108995 S    
C4    C5    1.535475 S    
C15   H27   1.099483 S    
C48   C49   1.432129 A    
C40   H42   1.081505 S    
C54   H47   1.077477 S    
C28   H36   1.082032 S    
C39   H41   1.078052 S    
P5    O17   1.767031 S    
H28   C16   1.110083 S    
N6    O45   1.306057 A    
S3    O35   1.503438 D    
C47   H49   1.077144 S    
P3    O11   1.753683 S    
P5    C46   1.832776 S    
O1    Ba1   2.874831 S    
C5    S1    1.791030 S    
C41   H43   1.079901 S    
C2    H5    1.110306 S    
C4    H8    1.107339 S    
O11   C2    1.403071 S    
C8    C9    1.545040 S    
S1    O26   1.502435 D    
C25   C38   1.578936 S    
C6    H10   1.101417 S    
H46   C52   1.078033 S    
C14   N6    1.466918 S    
C16   H30   1.109087 S    
O12   Ba2   2.875281 S    
C36   C37   1.444977 A    
C11   C12   1.544294 S    
C49   C56   1.416146 A    
C7    H14   1.110190 S    
P3    C43   1.848684 S    
C12   H22   1.111525 S    
P1    O1    1.513914 D    
P4    O15   1.744972 S    
O2    Ba1   2.946934 S    
S4    O46   1.502221 D    
C15   C16   1.511598 S    
P1    C24   1.866369 S    
C20   C26   1.387195 A    
C3    S4    1.799696 S    
C40   C41   1.377138 A    
C3    N4    1.460988 S    
S2    O30   1.503625 D    
C41   C42   1.387783 A    
C52   C53   1.377165 A    
P2    O10   1.752548 S    
C12   N3    1.462053 S    
C37   C38   1.445251 A    
C4    H7    1.107113 S    
C6    H11   1.093080 S    
C1    H2    1.108307 S    
N3    O39   1.300518 A    
O3    Ba1   2.777888 S    
C6    C7    1.521695 S    
O13   Ba2   2.947771 S    
N5    O43   1.300863 A    
C29   C34   1.406681 A    
S3    O36   1.496854 D    
C9    N2    1.469785 S    
N4    O41   1.300754 A    
C50   C54   1.423341 A    
P4    O13   1.569974 S    
C43   C51   1.410485 A    
C15   O24   1.410570 S    
C17   C18   1.412355 A    
C24   C28   1.395916 A    
O8    Ba1   2.787516 S    
P5    O18   1.542475 D    
N1    O29   1.302931 A    
Ba1   O16   2.815947 S    
P1    O5    1.754363 S    
C31   C32   1.398296 A    
C2    C3    1.538516 S    
C30   H38   1.082611 S    
C19   H32   1.070973 S    
Ba2   O21   2.900867 S    
S2    O32   1.681741 S    
H1    C10   1.109700 S    
C42   H44   1.047674 S    
C16   H29   1.103434 S    
C14   H24   1.111522 S    
O16   P7    1.791120 S    
P5    O19   1.765666 S    
O14   Ba2   2.777203 S    
C11   H20   1.093521 S    
C18   C26   1.383996 A    
C17   H31   1.072066 S    
C22   C28   1.391363 A    
C12   H21   1.113281 S    
P1    O2    1.569973 S    
O19   C13   1.409457 S    
C21   H33   1.078430 S    
C8    H15   1.108058 S    
P8    C20   1.848926 S    
C17   C25   1.430670 A    
C11   O22   1.397538 S    
C23   C24   1.414095 A    
C29   C30   1.387885 A    
P2    C44   1.855928 S    
P3    O8    1.741355 S    
O17   Ba2   2.788016 S    
C21   C27   1.424466 A    
P1    Ba1   3.446531 S    
C7    H12   1.108957 S    
C26   H35   1.082746 S    
C33   C35   1.428583 A    
C1    H19   1.106314 S    
O10   C8    1.408052 S    
C43   C55   1.396692 A    
C1    H3    1.108656 S    
S4    O48   1.680884 S    
N2    O33   1.304371 A    
C49   C53   1.397592 A    
P2    O20   1.588170 S    
C45   C56   1.388025 A    
N5    O42   1.294296 A    
O5    C6    1.404967 S    
P2    O7    1.512657 D    
S3    O37   1.670793 S    
C21   C22   1.396868 A    
Ba1   O13   2.789296 S    
P6    C22   1.858035 S    
C45   C46   1.387134 A    
C31   H39   1.076258 S    
S1    O27   1.684214 S    
P4    O12   1.514187 D    
O6    P6    1.749223 S    
O7    Ba1   2.900745 S    
C5    N1    1.470398 S    
C47   C48   1.417798 A    
C34   C38   1.429400 A    
C27   C35   1.546978 S    
N1    O28   1.304167 A    
O4    P6    1.547355 D    
C10   H18   1.108100 S    
C9    H17   1.106689 S    
C44   C55   1.390304 A    
N2    O34   1.304342 A    
P4    C18   1.860560 S    
Ba1   O20   2.943458 S    
C15   H26   1.101070 S    
C11   S3    1.765577 S    
C48   C50   1.436021 A    
C29   H37   1.070563 S    
P8    O23   1.536743 D    
O2    Ba2   2.789876 S    
C23   C27   1.428806 A    
C13   N5    1.455400 S    
C45   H48   1.082285 S    
N3    O38   1.298873 A    
C35   C36   1.432556 A    
C44   C54   1.402985 A    
O27   H51   0.994226 S    
C4    O15   1.409283 S    
O37   H53   0.989482 S    
S2    O31   1.506268 D    
C50   C51   1.427603 A    
C8    H16   1.116209 S    
S1    O25   1.504947 D    
P7    C56   1.850315 S    
P8    O24   1.753091 S    
C23   H34   1.078019 S    
C46   C47   1.397304 A    
C30   C31   1.385314 A    
C7    H13   1.108314 S    
C9    S2    1.804880 S    
C13   H23   1.106832 S    
C19   C25   1.434178 A    
C32   C33   1.411629 A    
S4    O47   1.503543 D    
H45   C55   1.081770 S    
O3    P6    1.738494 S    
C32   H40   1.074267 S    
Ba2   O20   2.815526 S    
P7    O21   1.570993 D    
O16   Ba2   2.942628 S    
O32   H52   0.990765 S    
C53   H50   1.078300 S    
C14   H25   1.105846 S    
O48   H54   0.989771 S    
P3    O9    1.542428 D    
C33   C34   1.426716 A    
C3    H6    1.112956 S    
C19   C20   1.407540 A    
C1    C10   1.521558 S    
O6    C10   1.403809 S    
C39   C40   1.384916 A    
Ba1   Ba2   4.561721 S    
C51   C52   1.398765 A    
P4    Ba2   3.447095 S    
C5    H9    1.108275 S    
C36   C39   1.417131 A    
