data_mof_unit_54728.cif
_audit_creation_date              2012-12-10T17:38:16-0500
_audit_creation_method            fapswitch 2.2
_symmetry_space_group_name_H-M    P1
_symmetry_Int_Tables_number       1
_space_group_crystal_system       triclinic
_cell_length_a                    12.426503
_cell_length_b                    13.228985
_cell_length_c                    19.329448
_cell_angle_alpha                 75.791068
_cell_angle_beta                  101.158222
_cell_angle_gamma                 117.02512
_cell_volume                      2731.60999411

loop_
_atom_site_label
_atom_site_type_symbol
_atom_type_description
_atom_site_fract_x
_atom_site_fract_y
_atom_site_fract_z
_atom_type_partial_charge
C1    C     C_R   0.854642 0.285718 0.508871 0.818041
C2    C     C_R   0.002016 0.500472 0.708466 -0.072347
C3    C     C_R   0.995237 0.492535 0.070948 0.407162
C4    C     C_R   0.002142 0.495856 0.931044 0.418128
C5    C     C_R   0.063095 0.447165 0.200182 -0.159248
C6    C     C_R   0.064770 0.449496 0.271991 -0.193020
C7    C     C_R   0.998001 0.497633 0.291959 -0.022206
C8    C     C_R   0.928896 0.542840 0.238943 -0.189139
C9    C     C_R   0.927665 0.541027 0.167007 -0.153854
C10   C     C_R   0.994882 0.493263 0.146951 0.059755
C11   C     C_R   0.275973 0.032976 0.419625 -0.180577
C12   C     C_R   0.000165 0.499895 0.632301 0.806994
C13   C     C_R   0.227276 0.836496 0.479882 -0.061891
C14   C     C_R   0.804213 0.081665 0.572812 0.220854
C15   C     C_R   0.715560 0.980134 0.605586 -0.168335
C16   C     C_R   0.593117 0.952647 0.586845 0.191823
C17   C     C_R   0.556380 0.018427 0.525200 0.011029
C18   C     C_R   0.645982 0.125041 0.493221 0.006877
C19   C     C_R   0.433986 0.984000 0.494951 0.108033
C20   C     C_R   0.398697 0.063727 0.444490 0.154684
C21   C     C_R   0.487214 0.168577 0.414675 -0.228417
C22   C     C_R   0.609004 0.194185 0.434510 -0.147893
C23   C     C_R   0.144816 0.713602 0.489794 0.800201
C24   C     C_R   0.348677 0.869052 0.506860 -0.189850
C25   C     C_R   0.189797 0.920035 0.438851 -0.174386
C26   C     C_R   0.769951 0.161259 0.521449 -0.175137
C27   C     C_R   0.351144 0.336675 0.620216 -0.269495
C28   C     C_R   0.753537 0.629567 0.394696 0.093062
C29   C     C_R   0.644828 0.626361 0.358760 -0.263302
C30   C     C_R   0.538887 0.560696 0.392560 -0.201507
C31   C     C_R   0.541326 0.509414 0.466025 0.014307
C32   C     C_R   0.650931 0.499601 0.495668 0.291815
C33   C     C_R   0.439658 0.460557 0.509565 -0.035007
C34   C     C_R   0.999686 0.499744 0.367770 0.761329
C35   C     C_R   0.445489 0.386255 0.575571 0.124655
C36   C     C_R   0.546950 0.363162 0.597730 -0.249644
C37   C     C_R   0.648067 0.419860 0.559238 -0.189712
C38   C     C_R   0.337370 0.488544 0.494414 0.329821
C39   C     C_R   0.252457 0.363785 0.601954 0.091204
C40   C     C_R   0.102180 0.499581 0.756328 -0.137125
C41   C     C_R   0.105882 0.499030 0.829268 0.176427
C42   C     C_R   0.005783 0.498064 0.854876 0.045948
C43   C     C_R   0.906696 0.500743 0.806305 -0.180312
C44   C     C_R   0.904728 0.501930 0.733892 -0.180817
Cu1   Cu    Cu3+1 0.098280 0.475420 0.516260 0.970036
Cu2   Cu    Cu3+1 0.901720 0.524580 0.483740 0.932947
H1    H     H_    0.178526 0.500190 0.736719 0.164459
H2    H     H_    0.462584 0.227292 0.372269 0.143923
H3    H     H_    0.247706 0.094643 0.382774 0.137983
H4    H     H_    0.378206 0.802581 0.532380 0.199073
H5    H     H_    0.742470 0.925946 0.650261 0.207734
H6    H     H_    0.673512 0.269135 0.402944 0.169527
H7    H     H_    0.181216 0.326839 0.637356 0.168530
H8    H     H_    0.550112 0.303443 0.646967 0.164073
H9    H     H_    0.355004 0.278734 0.670192 0.161612
H10   H     H_    0.835131 0.675561 0.367219 0.120978
H11   H     H_    0.456824 0.546746 0.358183 0.157227
H12   H     H_    0.641552 0.669329 0.303486 0.147779
H13   H     H_    0.721040 0.396213 0.580094 0.200350
H14   H     H_    0.829407 0.500357 0.824605 0.163625
H15   H     H_    0.826394 0.502760 0.698027 0.162615
H16   H     H_    0.115856 0.409711 0.186474 0.151890
H17   H     H_    0.117513 0.412591 0.311849 0.150782
H18   H     H_    0.876497 0.580458 0.252929 0.145447
H19   H     H_    0.874003 0.576975 0.127219 0.154924
H20   H     H_    0.096120 0.896379 0.417182 0.154746
N1    N     N_R   0.945346 0.550518 0.949731 -0.228196
N2    N     N_R   0.942148 0.549064 0.018380 -0.235598
N3    N     N_R   0.050335 0.436481 0.052190 -0.242602
N4    N     N_R   0.053272 0.437779 0.983617 -0.233083
N5    N     N_R   0.246290 0.438200 0.540910 -0.180067
N6    N     N_R   0.754310 0.561190 0.459520 -0.207620
O1    O     O_R   0.972510 0.318130 0.520450 -0.522687
O2    O     O_R   0.806530 0.359650 0.492990 -0.603953
O3    O     O_R   0.083010 0.479220 0.613590 -0.577956
O4    O     O_R   0.917030 0.520740 0.586130 -0.597211
O5    O     O_R   0.193470 0.640350 0.507010 -0.591517
O6    O     O_R   0.027490 0.681870 0.479550 -0.577264
O7    O     O_R   0.082970 0.479260 0.413870 -0.586851
O8    O     O_R   0.916990 0.520780 0.386410 -0.598601
Br1   Br    Br    0.968536 0.108007 0.608488 -0.522298
Br2   Br    Br    0.488504 0.841990 0.658627 -0.531190
C45   C     C_3   0.218698 0.503564 0.877239 -0.805490
H21   H     H_    0.253236 0.575341 0.907499 0.245045
H22   H     H_    0.198467 0.420430 0.914978 0.247462
H23   H     H_    0.292541 0.518586 0.846060 0.231824
C46   C     C_3   0.333989 0.578612 0.429320 -0.782969
H24   H     H_    0.277505 0.621032 0.427791 0.265884
H25   H     H_    0.424097 0.653370 0.424656 0.201849
H26   H     H_    0.297459 0.537906 0.381137 0.193901

loop_
_geom_bond_atom_site_label_1
_geom_bond_atom_site_label_2
_ccdc_geom_bond_type
C40   H1    S    
C46   H24   S    
Cu1   N5    S    
C41   C42   A    
C19   C20   A    
C18   C26   A    
C2    C12   S    
C4    N4    A    
C28   H10   S    
C7    C8    A    
C32   N6    A    
C39   H7    S    
Cu1   Cu2   S    
C1    O2    A    
C36   C37   A    
C3    N3    A    
C3    N2    A    
C5    C6    A    
C33   C35   A    
C27   H9    S    
C11   C25   A    
C15   C16   A    
C41   C45   S    
C30   H11   S    
C13   C23   S    
Cu1   O1    S    
C34   O8    A    
C31   C32   A    
C2    C44   A    
C8    C9    A    
C31   C33   A    
C15   H5    S    
C9    C10   A    
Cu2   N6    S    
C21   H2    S    
C21   C22   A    
C13   C25   A    
C28   N6    A    
Cu2   O4    S    
C24   H4    S    
C11   C20   A    
N1    N2    A    
C27   C39   A    
Cu2   O6    S    
C16   C17   A    
C27   C35   A    
C14   C26   A    
C13   C24   A    
C35   C36   A    
C6    H17   S    
C43   C44   A    
C29   C30   A    
C11   H3    S    
C34   O7    A    
C45   H21   S    
C20   C21   A    
C16   Br2   S    
C17   C18   A    
Cu1   O7    S    
C32   C37   A    
C23   O5    A    
C37   H13   S    
C43   H14   S    
C8    H18   S    
C40   C41   A    
C45   H22   S    
C12   O4    A    
C1    C26   S    
C7    C34   S    
C46   H26   S    
C42   C43   A    
Cu2   O2    S    
C22   H6    S    
C38   N5    A    
C28   C29   A    
C18   C22   A    
C25   H20   S    
C4    N1    A    
C6    C7    A    
C44   H15   S    
C33   C38   A    
C38   C46   S    
Cu1   O3    S    
C1    O1    A    
C46   H25   S    
C19   C24   A    
C5    C10   A    
C3    C10   S    
Cu2   O8    S    
C30   C31   A    
C4    C42   S    
C17   C19   A    
C5    H16   S    
C23   O6    A    
N3    N4    A    
C9    H19   S    
C36   H8    S    
C2    C40   A    
C45   H23   S    
C29   H12   S    
C12   O3    A    
C39   N5    A    
C14   C15   A    
Cu1   O5    S    
C14   Br1   S    
