data_mof_unit_5655.cif
_audit_creation_date              2012-12-10T17:22:39-0500
_audit_creation_method            fapswitch 2.2
_symmetry_space_group_name_H-M    P1
_symmetry_Int_Tables_number       1
_space_group_crystal_system       triclinic
_cell_length_a                    10.630646
_cell_length_b                    10.860926
_cell_length_c                    9.638194
_cell_angle_alpha                 91.37772
_cell_angle_beta                  89.371446
_cell_angle_gamma                 93.042598
_cell_volume                      1110.87065973

loop_
_atom_site_label
_atom_site_type_symbol
_atom_type_description
_atom_site_fract_x
_atom_site_fract_y
_atom_site_fract_z
_atom_type_partial_charge
C1    C     C_R   0.487569 0.262843 0.498589 0.785989
C2    C     C_3   0.962870 0.474692 0.370522 0.212504
C3    C     C_3   0.038892 0.387348 0.456220 -0.188793
C4    C     C_3   0.122979 0.499432 0.502694 -0.002760
C5    C     C_R   0.363796 0.124007 0.725305 -0.203891
C6    C     C_R   0.366815 0.078253 0.858449 -0.163064
C7    C     C_R   0.429125 0.970872 0.880774 0.202375
C8    C     C_R   0.466852 0.898970 0.766871 -0.201683
C9    C     C_R   0.460742 0.942219 0.630179 0.066486
C10   C     C_R   0.427943 0.065210 0.615584 0.106799
C11   C     C_R   0.468706 0.128454 0.495973 -0.109960
C12   C     C_R   0.259719 0.499947 0.500853 0.784901
C13   C     C_R   0.509674 0.062348 0.379842 -0.227516
C14   C     C_R   0.517177 0.935686 0.384583 -0.226640
C15   C     C_R   0.495698 0.873682 0.508755 -0.105092
C16   C     C_R   0.672405 0.659957 0.145547 -0.186861
C17   C     C_R   0.760078 0.734538 0.074456 -0.223375
C18   C     C_R   0.761368 0.733039 0.931408 -0.201079
C19   C     C_R   0.674401 0.657622 0.858588 -0.165880
C20   C     C_R   0.585903 0.577239 0.926371 0.201907
C21   C     C_R   0.585321 0.577863 0.075665 0.210159
C22   C     C_R   0.417720 0.427017 0.072857 -0.075095
C23   C     C_R   0.500742 0.738348 0.502676 0.770649
C24   C     C_R   0.417070 0.427915 0.925385 -0.058258
C25   C     C_R   0.740398 0.498361 0.499061 0.772458
C26   C     C_3   0.039338 0.521520 0.630810 -0.121221
C27   C     C_3   0.952451 0.409829 0.583761 -0.187882
C28   C     C_3   0.877546 0.496841 0.496948 -0.026813
C29   C     C_3   0.962413 0.608477 0.544097 -0.218397
C30   C     C_3   0.048648 0.586708 0.416158 -0.164298
Cu1   Cu    Cu3+1 0.499990 0.499990 0.640660 0.925890
Cu2   Cu    Cu3+1 0.500010 0.500010 0.359340 0.918326
H1    H     H_    0.910470 0.337585 0.652304 0.141859
H2    H     H_    0.515785 0.819052 0.790797 0.173683
H3    H     H_    0.545589 0.885964 0.292254 0.175440
H4    H     H_    0.350098 0.367002 0.126810 0.132615
H5    H     H_    0.677963 0.670009 0.255129 0.199090
H6    H     H_    0.826461 0.795220 0.131155 0.146818
H7    H     H_    0.827990 0.793341 0.876215 0.141819
H8    H     H_    0.073616 0.540792 0.737958 0.142934
H9    H     H_    0.928305 0.698739 0.580318 0.124763
H10   H     H_    0.073152 0.296912 0.420839 0.121179
H11   H     H_    0.538684 0.109403 0.286348 0.178442
H12   H     H_    0.318439 0.209322 0.710015 0.139663
H13   H     H_    0.331639 0.132438 0.944900 0.118984
N1    N     N_R   0.501210 0.501210 0.147910 -0.197413
N2    N     N_R   0.501250 0.501290 0.852040 -0.198367
O1    O     O_R   0.499990 0.319640 0.618810 -0.570495
O2    O     O_R   0.500000 0.319660 0.381240 -0.583851
O3    O     O_R   0.316850 0.499960 0.618770 -0.590986
O4    O     O_R   0.316860 0.499980 0.381190 -0.578256
O5    O     O_R   0.500000 0.680340 0.618760 -0.611853
O6    O     O_R   0.500010 0.680360 0.381190 -0.594859
O7    O     O_R   0.683140 0.500020 0.618810 -0.585011
O8    O     O_R   0.683150 0.500040 0.381230 -0.609155
C31   C     C_3   0.480180 0.947333 0.021409 -0.422186
C32   C     C_3   0.613065 0.008922 0.031464 -0.817947
H14   H     H_    0.672540 0.980141 0.942218 0.256496
H15   H     H_    0.608236 0.110876 0.031450 0.249863
H16   H     H_    0.660358 0.982948 0.127326 0.231370
H17   H     H_    0.418389 0.985480 0.103667 0.198272
H18   H     H_    0.483812 0.846550 0.037270 0.208953
H19   H     H_    0.677122 0.669977 0.749599 0.191558
H20   H     H_    0.347780 0.369995 0.870331 0.125147
H21   H     H_    0.090533 0.659029 0.347626 0.131418
C33   C     C_3   0.921956 0.445849 0.221200 -0.383602
C34   C     C_3   0.034570 0.423423 0.125995 -0.860678
H22   H     H_    0.101328 0.505656 0.126507 0.257422
H23   H     H_    0.084436 0.342232 0.159951 0.243015
H24   H     H_    0.001396 0.405357 0.018195 0.242502
H25   H     H_    0.856240 0.362841 0.219160 0.208455
H26   H     H_    0.872452 0.524805 0.182254 0.223014

loop_
_geom_bond_atom_site_label_1
_geom_bond_atom_site_label_2
_ccdc_geom_bond_type
C3    H10   S    
C16   C21   A    
C6    H13   S    
C19   C20   A    
C1    C11   S    
Cu1   O5    S    
C32   H14   S    
C7    C8    A    
C27   H1    S    
C25   C28   S    
C26   C27   S    
C28   C29   S    
C5    C6    A    
C32   H15   S    
C31   C32   S    
C18   C19   A    
C33   H26   S    
Cu1   Cu2   S    
C19   H19   S    
C8    C9    A    
C4    C12   S    
C9    C10   A    
Cu2   O8    S    
C16   H5    S    
C15   C23   S    
C33   C34   S    
C24   H20   S    
Cu1   N2    S    
C13   C14   A    
C7    C31   S    
C23   O6    A    
C34   H22   S    
C20   N2    A    
C25   O7    A    
C14   H3    S    
C16   C17   A    
C32   H16   S    
C34   H23   S    
C18   H7    S    
Cu2   O4    S    
C29   C30   S    
C12   O3    A    
C33   H25   S    
C17   C18   A    
C8    H2    S    
C22   N1    A    
C5    H12   S    
Cu1   O1    S    
C22   C24   A    
Cu1   O3    S    
C3    C4    S    
Cu2   O6    S    
C13   H11   S    
C12   O4    A    
C21   N1    A    
C29   H9    S    
C31   H17   S    
C24   N2    A    
Cu2   N1    S    
C25   O8    A    
C2    C33   S    
C4    C26   S    
C1    O1    A    
C6    C7    A    
C22   H4    S    
C2    C30   S    
C34   H24   S    
C3    C27   S    
C2    C3    S    
C9    C15   A    
C5    C10   A    
C11   C13   A    
C26   H8    S    
C23   O5    A    
C31   H18   S    
C17   H6    S    
Cu1   O7    S    
Cu2   O2    S    
C30   H21   S    
C10   C11   A    
C20   C21   A    
C26   C29   S    
C27   C28   S    
C14   C15   A    
C2    C28   S    
C1    O2    A    
C4    C30   S    
