data_mof_unit_27006.cif
_audit_creation_date              2013-03-05T16:06:01-0500
_audit_creation_method            fapswitch 2.2
_symmetry_space_group_name_H-M    P1
_symmetry_Int_Tables_number       1
_space_group_crystal_system       triclinic
_cell_length_a                    10.882379
_cell_length_b                    9.63277
_cell_length_c                    23.537103
_cell_angle_alpha                 89.999015
_cell_angle_beta                  92.600597
_cell_angle_gamma                 89.999348
_cell_volume                      2464.79346542

loop_
_atom_site_label
_atom_site_type_symbol
_atom_site_description
_atom_site_fract_x
_atom_site_fract_y
_atom_site_fract_z
_atom_type_partial_charge
O1    O     O_R   0.319640 0.618740 0.500000 -0.557648
O2    O     O_R   0.680360 0.381260 0.500000 -0.567723
O3    O     O_R   0.680360 0.618740 0.500000 -0.557650
O4    O     O_R   0.319640 0.381260 0.500000 -0.567714
C1    C     C_R   0.262362 0.500054 0.500248 0.806210
C2    C     C_R   0.737638 0.500053 0.499752 0.806199
O5    O     O_R   0.499960 0.618810 0.417880 -0.551853
O6    O     O_R   0.500040 0.381190 0.582120 -0.549613
O7    O     O_R   0.500040 0.618810 0.582120 -0.551846
O8    O     O_R   0.499960 0.381190 0.417880 -0.549620
C3    C     C_R   0.498247 0.499274 0.391136 0.835632
C4    C     C_R   0.501757 0.499273 0.608864 0.835616
Cu1   Cu    Cu3+1 0.500000 0.640660 0.500000 1.062221
Cu2   Cu    Cu3+1 0.500000 0.359340 0.500000 1.056875
C5    C     C_R   0.617285 0.491318 0.884304 0.563009
C6    C     C_R   0.382770 0.491430 0.115691 0.562822
N1    N     N_R   0.509778 0.488069 0.851970 -0.470436
N2    N     N_R   0.490273 0.488059 0.148027 -0.470429
C7    C     C_R   0.398182 0.495919 0.876283 0.661011
C8    C     C_R   0.601878 0.495791 0.123714 0.660991
C9    C     C_R   0.390999 0.505424 0.935988 -0.182112
C10   C     C_R   0.609075 0.505308 0.064010 -0.182049
C11   C     C_R   0.501656 0.504649 0.969951 -0.115700
C12   C     C_R   0.498416 0.504658 0.030046 -0.115643
C13   C     C_R   0.615718 0.504845 0.943856 -0.147521
C14   C     C_R   0.384351 0.504983 0.056141 -0.147605
C15   C     C_R   0.277541 0.518225 0.962745 0.237120
C16   C     C_R   0.722548 0.517990 0.037252 0.236887
C17   C     C_R   0.275076 0.522759 0.022262 0.414932
C18   C     C_R   0.725009 0.522511 0.977733 0.414916
O9    O     O_2   0.725241 0.478181 0.858784 -0.449626
O10   O     O_2   0.274801 0.478372 0.141206 -0.449585
O11   O     O_2   0.294935 0.494120 0.842404 -0.421176
O12   O     O_2   0.705121 0.493855 0.157594 -0.421142
C19   C     C_R   0.544266 0.377003 0.241072 0.542647
C20   C     C_R   0.455712 0.377046 0.758930 0.542632
C21   C     C_R   0.551299 0.385191 0.300509 -0.209363
C22   C     C_R   0.448675 0.385228 0.699493 -0.209435
H1    H     H_    0.600815 0.305401 0.324570 0.191142
H2    H     H_    0.399118 0.305468 0.675435 0.191094
C23   C     C_R   0.494218 0.494599 0.328630 -0.109562
C24   C     C_R   0.505801 0.494598 0.671368 -0.109495
C25   C     C_R   0.427517 0.593575 0.296631 -0.148203
C26   C     C_R   0.572555 0.593537 0.703361 -0.148172
H3    H     H_    0.373207 0.670078 0.317176 0.236560
H4    H     H_    0.626891 0.670011 0.682812 0.236539
C27   C     C_R   0.426382 0.591134 0.237494 -0.162780
C28   C     C_R   0.573707 0.591096 0.762499 -0.162789
H5    H     H_    0.378523 0.672347 0.213602 0.180341
H6    H     H_    0.621612 0.672277 0.786389 0.180384
C29   C     C_R   0.486145 0.484389 0.209140 0.202557
C30   C     C_R   0.513895 0.484394 0.790857 0.202584
C31   C     C_R   0.063712 0.374509 0.500655 -0.119843
C32   C     C_R   0.936241 0.626298 0.499659 -0.119682
C33   C     C_R   0.936291 0.374508 0.499357 -0.119858
C34   C     C_R   0.063756 0.626299 0.500337 -0.119691
H7    H     H_    0.111178 0.275898 0.501843 0.203376
H8    H     H_    0.888623 0.724968 0.499176 0.198629
H9    H     H_    0.888827 0.275897 0.498176 0.203380
H10   H     H_    0.111371 0.724969 0.500815 0.198637
C35   C     C_R   0.871667 0.500307 0.499453 -0.045598
C36   C     C_R   0.128333 0.500308 0.500550 -0.045600
C37   C     C_R   0.431122 0.074618 0.460189 0.289111
C38   C     C_R   0.566336 0.926713 0.540744 0.298201
C39   C     C_R   0.568875 0.074612 0.539812 0.289098
C40   C     C_R   0.433663 0.926719 0.459256 0.298194
N3    N     N_R   0.500000 0.852070 0.500000 -0.316580
N4    N     N_R   0.500000 0.147930 0.500000 -0.324999
N5    N     N_R   0.163745 0.533926 0.930429 0.182132
O13   O     O_R   0.076034 0.443856 0.935845 -0.213467
O14   O     O_R   0.142140 0.647254 0.901607 -0.341862
N6    N     N_R   0.836367 0.533559 0.069567 0.182129
O15   O     O_R   0.924091 0.443551 0.064060 -0.213464
O16   O     O_R   0.858018 0.646803 0.098438 -0.341569
O17   O     O_3   0.165074 0.552014 0.046891 -0.466806
C41   C     C_3   0.157431 0.697329 0.054056 -0.097212
H11   H     H_    0.237171 0.738888 0.080097 0.113193
H12   H     H_    0.073804 0.721817 0.077090 0.235529
H13   H     H_    0.149581 0.751428 0.012304 0.140764
O18   O     O_3   0.835015 0.551656 0.953088 -0.466887
C42   C     C_3   0.842827 0.696971 0.945970 -0.096463
H14   H     H_    0.762627 0.738962 0.920355 0.112116
H15   H     H_    0.925902 0.721280 0.922494 0.235790
H16   H     H_    0.851856 0.750819 0.987749 0.141413
O19   O     O_3   0.600365 0.267861 0.214408 -0.547251
C43   C     C_3   0.512272 0.162316 0.204584 -0.230405
H17   H     H_    0.434776 0.198567 0.175818 0.167662
H18   H     H_    0.476995 0.122927 0.245240 0.200877
H19   H     H_    0.556890 0.074095 0.183321 0.199399
O20   O     O_3   0.399554 0.267955 0.785603 -0.547273
C44   C     C_3   0.487563 0.162300 0.795388 -0.230378
H20   H     H_    0.565143 0.198451 0.824126 0.167665
H21   H     H_    0.522725 0.122879 0.754714 0.200868
H22   H     H_    0.442902 0.074128 0.816666 0.199441
N7    N     N_R   0.352928 0.146295 0.419466 0.189933
O21   O     O_R   0.235717 0.152164 0.427571 -0.345677
O22   O     O_R   0.390038 0.165484 0.368303 -0.325784
N8    N     N_R   0.629397 0.857751 0.587010 0.168997
O23   O     O_R   0.738902 0.808272 0.580417 -0.345765
O24   O     O_R   0.595650 0.884248 0.638162 -0.355276
N9    N     N_R   0.647060 0.146282 0.580539 0.189925
O25   O     O_R   0.609935 0.165472 0.631699 -0.325786
O26   O     O_R   0.764274 0.152142 0.572441 -0.345677
N10   N     N_R   0.370598 0.857761 0.412991 0.168993
O27   O     O_R   0.404334 0.884283 0.361839 -0.355286
O28   O     O_R   0.261095 0.808286 0.419587 -0.345747

loop_
_geom_bond_atom_site_label_1
_geom_bond_atom_site_label_2
_geom_bond_distance
_ccdc_geom_bond_type
N9    O25   1.300593 A    
C33   H9    1.081007 S    
C15   C17   1.403005 A    
N7    O21   1.299482 A    
C41   H13   1.112192 S    
C39   N9    1.430203 S    
O3    C2    1.302297 A    
N10   O28   1.299265 A    
C42   H14   1.114035 S    
C27   H5    1.082996 S    
O2    C2    1.303205 A    
O19   C43   1.409286 S    
O5    C3    1.312027 A    
O1    C1    1.302302 A    
C2    C35   1.458891 S    
C19   C21   1.399818 A    
C41   H12   1.105687 S    
C22   C24   1.404268 A    
Cu1   N3    2.036464 S    
C43   H18   1.113733 S    
C5    C13   1.408604 A    
C37   N7    1.430207 S    
N5    O14   1.301041 A    
O7    Cu1   1.944270 S    
C4    C24   1.470532 S    
C11   C12   1.416496 A    
O3    Cu1   1.974067 S    
N6    O15   1.300422 A    
C34   C36   1.402306 A    
C8    O12   1.348062 S    
C38   N8    1.424871 S    
C40   N3    1.376599 A    
C9    C15   1.416634 A    
C37   C40   1.425132 A    
N9    O26   1.299481 A    
C10   C16   1.416700 A    
Cu1   Cu2   2.709891 S    
O4    Cu2   1.974068 S    
C23   C25   1.397662 A    
C16   N6    1.431670 S    
C24   C26   1.397665 A    
N1    C30   1.441594 S    
N10   O27   1.299879 A    
C42   H15   1.105801 S    
C26   H4    1.073400 S    
N2    C29   1.441610 S    
C31   C33   1.385598 A    
C6    C14   1.408569 A    
C32   C34   1.387039 A    
C38   N3    1.376596 A    
C40   N10   1.424869 S    
C41   H11   1.113872 S    
N6    O16   1.301065 A    
C7    O11   1.348063 S    
C44   H20   1.113449 S    
C31   H7    1.081005 S    
C43   H17   1.113443 S    
O18   C42   1.412797 S    
C27   C29   1.401798 A    
C34   H10   1.082356 S    
O17   C41   1.412809 S    
C44   H21   1.113725 S    
C31   C36   1.401131 A    
C28   C30   1.401797 A    
O6    C4    1.299757 A    
C39   N4    1.369262 A    
C28   H6    1.082996 S    
C25   H3    1.073383 S    
C8    C10   1.413961 A    
N8    O24   1.299879 A    
C9    C11   1.414866 A    
C19   C29   1.411305 A    
C10   C12   1.414889 A    
O1    Cu1   1.974073 S    
C42   H16   1.112170 S    
C32   H8    1.082354 S    
C20   O20   1.380832 S    
C13   C18   1.411831 A    
C5    N1    1.366791 A    
C37   N4    1.369260 A    
O6    Cu2   1.944277 S    
C7    C9    1.413968 A    
C12   C14   1.409701 A    
O4    C1    1.303200 A    
C43   H19   1.109261 S    
C15   N5    1.431611 S    
N7    O22   1.300593 A    
C5    O9    1.349462 S    
C17   O17   1.382556 S    
C32   C35   1.402310 A    
C6    O10   1.349470 S    
C20   C30   1.411288 A    
C38   C39   1.425129 A    
C20   C22   1.399816 A    
C18   O18   1.382538 S    
C21   H1    1.083558 S    
C44   H22   1.109269 S    
C22   H2    1.083556 S    
C19   O19   1.380826 S    
O20   C44   1.409286 S    
C33   C35   1.401127 A    
C16   C18   1.403039 A    
N1    C7    1.367879 A    
C1    C36   1.458892 S    
C3    C23   1.470548 S    
N2    C8    1.367905 A    
C11   C13   1.409671 A    
C21   C23   1.404280 A    
N5    O13   1.300445 A    
O2    Cu2   1.974072 S    
O7    C4    1.312007 A    
O8    C3    1.299759 A    
O5    Cu1   1.944277 S    
C14   C17   1.411834 A    
C6    N2    1.366802 A    
N8    O23   1.299273 A    
Cu2   N4    2.036465 S    
C25   C27   1.391616 A    
C26   C28   1.391625 A    
O8    Cu2   1.944270 S    
