data_mof_unit_56971.cif
_audit_creation_date              2012-10-26T18:34:49-0400
_audit_creation_method            fapswitch 2.2
_symmetry_space_group_name_H-M    P1
_symmetry_Int_Tables_number       1
_space_group_crystal_system       triclinic
_cell_length_a                    10.885165
_cell_length_b                    9.505525
_cell_length_c                    17.744971
_cell_angle_alpha                 89.658315
_cell_angle_beta                  90.726379
_cell_angle_gamma                 89.917435
_cell_volume                      1835.87579089

loop_
_atom_site_label
_atom_site_type_symbol
_atom_type_description
_atom_site_fract_x
_atom_site_fract_y
_atom_site_fract_z
_atom_type_partial_charge
C1    C     C_R   0.262171 0.500190 0.499549 0.629560
C2    C     C_R   0.499085 0.499641 0.644263 0.564163
C3    C     C_R   0.871757 0.499373 0.499955 0.078341
C4    C     C_R   0.128249 0.500574 0.499917 0.077782
C5    C     C_R   0.407304 0.573377 0.845771 0.062154
C6    C     C_R   0.591017 0.424606 0.154136 0.045137
C7    C     C_R   0.410323 0.577084 0.152597 0.091695
C8    C     C_R   0.590896 0.425122 0.847205 0.094547
C9    C     C_R   0.404659 0.571863 0.766277 -0.002595
C10   C     C_R   0.594092 0.426340 0.233605 0.000262
C11   C     C_R   0.409754 0.577326 0.232279 -0.018344
C12   C     C_R   0.737832 0.499801 0.500380 0.628908
C13   C     C_R   0.591408 0.424993 0.767814 0.012913
C14   C     C_R   0.498023 0.498581 0.727268 -0.049892
C15   C     C_R   0.501986 0.501516 0.272697 -0.038426
C16   C     C_R   0.423790 0.075100 0.452523 0.025927
C17   C     C_R   0.576214 0.924900 0.547475 0.025742
C18   C     C_R   0.576132 0.073826 0.547523 0.027383
C19   C     C_R   0.423868 0.926174 0.452477 0.027643
C20   C     C_R   0.499152 0.499404 0.885359 0.036844
C21   C     C_R   0.500265 0.500489 0.114684 0.081512
C22   C     C_2   0.301171 0.643274 0.725711 0.237935
C23   C     C_1   0.499238 0.499939 0.966248 0.042214
C24   C     C_2   0.696735 0.353125 0.274053 0.237402
C25   C     C_2   0.309540 0.648467 0.274002 0.218038
C26   C     C_2   0.692584 0.354008 0.726818 0.259528
C27   C     C_1   0.499617 0.500114 0.033802 0.084681
C28   C     C_R   0.065641 0.388778 0.534888 0.076506
C29   C     C_R   0.934366 0.611156 0.464969 0.075359
C30   C     C_R   0.937095 0.387427 0.534295 0.050697
C31   C     C_R   0.062920 0.612460 0.465521 0.048482
C32   C     C_R   0.501048 0.500367 0.355732 0.567710
Cu1   Cu    Cu3+1 0.500000 0.640660 0.500000 1.009920
Cu2   Cu    Cu3+1 0.500000 0.359340 0.500000 1.007621
H1    H     H_    0.362747 0.131831 0.414530 0.116949
H2    H     H_    0.325884 0.757558 0.117982 0.283641
H3    H     H_    0.645724 0.278223 0.923985 0.248313
H4    H     H_    0.732564 0.426373 0.922681 0.237490
H5    H     H_    0.259749 0.737190 0.748755 0.103082
H6    H     H_    0.736586 0.258274 0.251057 0.103827
H7    H     H_    0.280077 0.605957 0.327595 0.120224
H8    H     H_    0.716936 0.389406 0.670847 0.104687
H9    H     H_    0.110525 0.279158 0.630255 0.250703
H10   H     H_    0.109918 0.182181 0.549747 0.223526
H11   H     H_    0.890129 0.817760 0.450136 0.224098
H12   H     H_    0.637257 0.868168 0.585466 0.116877
H13   H     H_    0.889430 0.720808 0.369624 0.247873
H14   H     H_    0.900025 0.265288 0.625757 0.249800
H15   H     H_    0.895005 0.179775 0.541968 0.233599
H16   H     H_    0.099966 0.734290 0.373944 0.249800
H17   H     H_    0.105088 0.820066 0.457652 0.233939
H18   H     H_    0.636892 0.129523 0.585664 0.141046
H19   H     H_    0.363102 0.870478 0.414342 0.147890
H20   H     H_    0.319833 0.753825 0.874386 0.227988
H21   H     H_    0.228603 0.608367 0.871967 0.241206
H22   H     H_    0.675333 0.242208 0.125508 0.229414
H23   H     H_    0.768941 0.385681 0.127563 0.240763
H24   H     H_    0.231068 0.614913 0.125250 0.263059
N1    N     N_R   0.500000 0.852070 0.500000 -0.230403
N2    N     N_3   0.127550 0.726490 0.430398 -0.629453
N3    N     N_R   0.500000 0.147930 0.500000 -0.229551
N4    N     N_3   0.315163 0.646690 0.887612 -0.611049
N5    N     N_3   0.681672 0.349167 0.112159 -0.650455
N6    N     N_3   0.317845 0.649498 0.108737 -0.592503
N7    N     N_3   0.686288 0.353277 0.888931 -0.540527
N8    N     N_3   0.133340 0.279231 0.573231 -0.579024
N9    N     N_3   0.866658 0.720726 0.426654 -0.580361
N10   N     N_3   0.872490 0.273253 0.569301 -0.631767
O1    O     O_R   0.319640 0.618740 0.499990 -0.460908
O2    O     O_2   0.741607 0.401068 0.331766 -0.494195
O3    O     O_2   0.260907 0.756027 0.250374 -0.533967
O4    O     O_2   0.748802 0.254643 0.754355 -0.475888
O5    O     O_R   0.680360 0.381260 0.500010 -0.461291
O6    O     O_R   0.680360 0.618740 0.500010 -0.487823
O7    O     O_R   0.319640 0.381260 0.499990 -0.487539
O8    O     O_R   0.500000 0.618830 0.391250 -0.499766
O9    O     O_R   0.500000 0.381170 0.608750 -0.503867
O10   O     O_R   0.500000 0.618830 0.608750 -0.491654
O11   O     O_R   0.500000 0.381170 0.391250 -0.493005
O12   O     O_2   0.257391 0.594818 0.667821 -0.492148

loop_
_geom_bond_atom_site_label_1
_geom_bond_atom_site_label_2
_ccdc_geom_bond_type
C31   N2    S    
C8    C13   A    
H15   N10   S    
C12   O6    A    
C26   O4    D    
H10   N8    S    
C18   H18   S    
C15   C32   S    
C5    C20   A    
C7    C11   A    
C5    C9    A    
C8    C20   A    
C10   C15   A    
C16   C19   A    
Cu2   O9    S    
Cu1   O10   S    
C11   C25   S    
H21   N4    S    
C3    C29   A    
C3    C12   S    
C29   N9    S    
C11   C15   A    
H3    N7    S    
C12   O5    A    
H11   N9    S    
C20   C23   S    
H23   N5    S    
C25   O3    D    
C23   C27   T    
Cu1   O1    S    
Cu2   O7    S    
C19   H19   S    
C21   C27   S    
C8    N7    S    
Cu1   N1    S    
C13   C14   A    
C2    C14   S    
H13   N9    S    
C16   H1    S    
C4    C28   A    
Cu1   Cu2   S    
H24   N6    S    
C24   O2    D    
C1    O7    A    
C17   H12   S    
C25   H7    S    
H20   N4    S    
C19   N1    A    
C7    C21   A    
C6    C21   A    
Cu2   N3    S    
C1    O1    A    
C6    N5    S    
C3    C30   A    
C28   N8    S    
C9    C14   A    
C6    C10   A    
C2    O10   A    
Cu2   O11   S    
Cu1   O8    S    
H4    N7    S    
C17   C18   A    
H22   N5    S    
H14   N10   S    
C17   N1    A    
C13   C26   S    
C16   N3    A    
C26   H8    S    
C32   O8    A    
C18   N3    A    
C1    C4    S    
H16   N2    S    
C28   C30   A    
C22   O12   D    
C29   C31   A    
C2    O9    A    
C32   O11   A    
H9    N8    S    
C22   H5    S    
C24   H6    S    
C5    N4    S    
C9    C22   S    
C7    N6    S    
C4    C31   A    
Cu2   O5    S    
Cu1   O6    S    
C10   C24   S    
H17   N2    S    
H2    N6    S    
C30   N10   S    
