data_mof_unit_59878.cif
_audit_creation_date              2013-03-05T15:59:10-0500
_audit_creation_method            fapswitch 2.2
_symmetry_space_group_name_H-M    P1
_symmetry_Int_Tables_number       1
_space_group_crystal_system       triclinic
_cell_length_a                    12.672385
_cell_length_b                    13.122634
_cell_length_c                    15.72392
_cell_angle_alpha                 91.419682
_cell_angle_beta                  103.075631
_cell_angle_gamma                 81.629471
_cell_volume                      2519.79152757

loop_
_atom_site_label
_atom_site_type_symbol
_atom_site_description
_atom_site_fract_x
_atom_site_fract_y
_atom_site_fract_z
_atom_type_partial_charge
O1    O     O_R   0.366740 0.627160 0.478850 -0.556669
O2    O     O_R   0.544830 0.662520 0.507140 -0.618532
C1    C     C_R   0.438666 0.691348 0.486968 0.870904
O3    O     O_R   0.410920 0.482310 0.608710 -0.562883
O4    O     O_R   0.589010 0.517670 0.637000 -0.615809
C2    C     C_R   0.501582 0.500076 0.661480 0.922799
Zn1   Zn    Zn3+2 0.381090 0.476390 0.481110 1.008662
Zn2   Zn    Zn3+2 0.618910 0.523610 0.518890 0.945324
O5    O     O_R   0.455170 0.337480 0.492860 -0.627934
O6    O     O_R   0.633260 0.372840 0.521150 -0.631906
O7    O     O_R   0.410990 0.482330 0.363000 -0.604448
O8    O     O_R   0.589080 0.517690 0.391290 -0.633249
C3    C     C_R   0.561326 0.308754 0.508361 0.839570
C4    C     C_R   0.498597 0.499608 0.338588 0.860858
C5    C     C_3   0.385391 0.538708 0.929306 0.169793
C6    C     C_3   0.588505 0.566029 0.969703 -0.438435
C7    C     C_3   0.576344 0.574092 0.065413 0.325653
H1    H     H_    0.353417 0.617256 0.049035 0.205533
H2    H     H_    0.672557 0.531880 0.965406 0.192332
H3    H     H_    0.575739 0.644243 0.940200 0.221604
H4    H     H_    0.530936 0.652622 0.069951 0.168302
C8    C     C_1   0.495705 0.498680 0.249154 -0.152303
C9    C     C_3   0.504174 0.499526 0.917961 0.079395
C10   C     C_3   0.382196 0.538715 0.027476 -0.507650
C11   C     C_3   0.498224 0.497888 0.082722 0.068822
C12   C     C_3   0.530723 0.385554 0.052030 0.408430
C13   C     C_3   0.536993 0.388113 0.954633 -0.532102
C14   C     C_1   0.495620 0.498199 0.173778 0.016629
C15   C     C_1   0.506366 0.499433 0.826717 0.005083
C16   C     C_1   0.505294 0.499790 0.751125 -0.123774
H5    H     H_    0.482104 0.336707 0.915444 0.215149
H6    H     H_    0.621673 0.357607 0.948604 0.157993
H7    H     H_    0.331522 0.482741 0.896006 0.135241
H8    H     H_    0.321285 0.489838 0.037739 0.228738
H9    H     H_    0.612497 0.353691 0.091592 0.055144
C17   C     C_R   0.699366 0.061702 0.435068 -0.178030
H10   H     H_    0.742547 0.214072 0.453685 0.146158
H11   H     H_    0.696074 0.869617 0.375440 0.166434
H12   H     H_    0.767995 0.034254 0.406057 0.145537
C18   C     C_R   0.597320 0.199530 0.500536 -0.039828
C19   C     C_R   0.302937 0.841793 0.502361 -0.111495
C20   C     C_R   0.275039 0.947134 0.510348 -0.126209
C21   C     C_R   0.347669 0.013079 0.500108 -0.197824
C22   C     C_R   0.448184 0.974160 0.477813 0.091695
C23   C     C_R   0.467327 0.869421 0.455855 0.082559
C24   C     C_R   0.530279 0.035843 0.476545 0.082291
C25   C     C_R   0.620566 0.998239 0.439552 0.165651
C26   C     C_R   0.629573 0.898737 0.406348 -0.225386
C27   C     C_R   0.554063 0.834848 0.414513 -0.182712
C28   C     C_R   0.525736 0.133680 0.512721 -0.240776
C29   C     C_R   0.686511 0.163189 0.463920 -0.196185
C30   C     C_R   0.399970 0.801857 0.477290 -0.140887
H13   H     H_    0.463758 0.162615 0.547842 0.150611
H14   H     H_    0.250491 0.791743 0.519031 0.244902
H15   H     H_    0.322057 0.094146 0.508095 0.138571
H16   H     H_    0.199123 0.977460 0.528494 0.168348
H17   H     H_    0.563497 0.758554 0.387033 0.176648
C31   C     C_R   0.095780 0.331444 0.393487 -0.304271
H18   H     H_    0.263227 0.312922 0.383122 0.160708
H19   H     H_    0.888752 0.301239 0.369375 0.142603
H20   H     H_    0.077733 0.265020 0.353419 0.158309
N1    N     N_R   0.222200 0.444690 0.455710 -0.149522
C32   C     C_R   0.799275 0.626991 0.605863 -0.074238
C33   C     C_R   0.906319 0.646400 0.637180 0.238921
C34   C     C_R   0.988465 0.592135 0.600569 -0.184714
C35   C     C_R   0.963395 0.524760 0.529620 -0.026389
C36   C     C_R   0.855236 0.501917 0.506342 0.224826
C37   C     C_R   0.042494 0.474189 0.485085 -0.072242
C38   C     C_R   0.016259 0.389409 0.430554 0.158415
C39   C     C_R   0.910350 0.364471 0.412400 -0.270697
C40   C     C_R   0.830161 0.422320 0.447526 -0.172221
C41   C     C_R   0.145900 0.505449 0.490136 0.393126
C42   C     C_R   0.200059 0.358865 0.409303 -0.060118
N2    N     N_R   0.776960 0.554780 0.543830 -0.154352
H21   H     H_    0.733559 0.665836 0.633407 0.193378
H22   H     H_    0.071517 0.599205 0.631745 0.239907
H23   H     H_    0.749814 0.401133 0.429704 0.198123
N3    N     N_R   0.341826 0.640343 0.888786 0.227400
O9    O     O_R   0.261169 0.648727 0.820277 -0.306437
O10   O     O_R   0.380199 0.723039 0.921660 -0.396573
N4    N     N_R   0.165088 0.607173 0.517080 0.183262
O11   O     O_R   0.235546 0.621362 0.588974 -0.377960
O12   O     O_R   0.099263 0.685780 0.477488 -0.427555
N5    N     N_R   0.931746 0.718618 0.706646 0.222659
O13   O     O_R   0.855893 0.763578 0.744162 -0.380375
O14   O     O_R   0.030243 0.742324 0.731399 -0.293376
O15   O     O_3   0.676505 0.577608 0.128185 -0.586078
C43   C     C_3   0.746950 0.483120 0.143084 -0.251548
H24   H     H_    0.751882 0.438984 0.082753 0.130702
H25   H     H_    0.723976 0.436509 0.192163 0.152113
H26   H     H_    0.830834 0.499833 0.172162 0.204101
O16   O     O_3   0.450818 0.323852 0.062125 -0.593235
C44   C     C_3   0.498125 0.220013 0.078622 -0.291516
H27   H     H_    0.554380 0.211372 0.144311 0.154886
H28   H     H_    0.542034 0.189427 0.027501 0.164612
H29   H     H_    0.431883 0.173092 0.077971 0.209028

loop_
_geom_bond_atom_site_label_1
_geom_bond_atom_site_label_2
_geom_bond_distance
_ccdc_geom_bond_type
C35   C37   1.427021 A    
O15   C43   1.409512 S    
C44   H27   1.112211 S    
C19   C20   1.385947 A    
N4    O11   1.300413 A    
C11   C14   1.439467 S    
Zn1   O7    1.983135 S    
C12   C13   1.552798 S    
C34   H22   1.072066 S    
H1    C10   1.113271 S    
C9    C15   1.441205 S    
C6    H3    1.111794 S    
N5    O14   1.301335 A    
O4    C2    1.304152 A    
H10   C29   1.082157 S    
O7    C4    1.304488 A    
N3    O10   1.301320 A    
C5    N3    1.469049 S    
C12   O16   1.422647 S    
C27   H17   1.081874 S    
C17   C25   1.404495 A    
O5    C3    1.311394 A    
C33   N5    1.439935 S    
C3    C18   1.450469 S    
C20   H16   1.082769 S    
C37   C38   1.419482 A    
N1    C42   1.355827 A    
C39   C40   1.386564 A    
C9    C13   1.548945 S    
H18   C42   1.081675 S    
C19   C30   1.401257 A    
H11   C26   1.083870 S    
C41   N4    1.428428 S    
Zn2   O8    1.957578 S    
C31   H20   1.083821 S    
C5    C9    1.566415 S    
C35   C36   1.410551 A    
C44   H28   1.112748 S    
O1    Zn1   1.960765 S    
O3    Zn1   1.957578 S    
N4    O12   1.301443 A    
C22   C24   1.411832 A    
C28   H13   1.079379 S    
C13   H5    1.113849 S    
N5    O13   1.301635 A    
O3    C2    1.303795 A    
N3    O9    1.300828 A    
C6    C7    1.546646 S    
C23   C30   1.411956 A    
C11   C12   1.566352 S    
C10   H8    1.113046 S    
O1    C1    1.312306 A    
C21   C22   1.417743 A    
Zn1   N1    2.063630 S    
C15   C16   1.185735 T    
C25   C26   1.392946 A    
C43   H26   1.109108 S    
H19   C39   1.084267 S    
C37   C41   1.414055 A    
Zn2   N2    2.051285 S    
C23   C27   1.414227 A    
N1    C41   1.361841 A    
C36   N2    1.362572 A    
C10   C11   1.555431 S    
C17   C29   1.395106 A    
C21   H15   1.078945 S    
C5    C10   1.553280 S    
C2    C16   1.399744 S    
O8    C4    1.302811 A    
C44   H29   1.109138 S    
C20   C21   1.388448 A    
C40   H23   1.068645 S    
C22   C23   1.408707 A    
Zn1   O5    1.917874 S    
C24   C25   1.418962 A    
C26   C27   1.389074 A    
C13   H6    1.113496 S    
C7    O15   1.426652 S    
C17   H12   1.083680 S    
O2    Zn2   1.917873 S    
C43   H25   1.109659 S    
O6    C3    1.307873 A    
O4    Zn2   1.983137 S    
C1    C30   1.461754 S    
C31   C38   1.397997 A    
C32   N2    1.355263 A    
C6    C9    1.551947 S    
C18   C29   1.400119 A    
C24   C28   1.390083 A    
C7    C11   1.574070 S    
C33   C34   1.398976 A    
C4    C8    1.398213 S    
O2    C1    1.310861 A    
C32   H21   1.081481 S    
C6    H2    1.109947 S    
C18   C28   1.386144 A    
O16   C44   1.411658 S    
C36   C40   1.401104 A    
C38   C39   1.392747 A    
C7    H4    1.113765 S    
C19   H14   1.075294 S    
C32   C33   1.392679 A    
C12   H9    1.109379 S    
C43   H24   1.108298 S    
Zn2   O6    1.960767 S    
C34   C35   1.414121 A    
C8    C14   1.184833 T    
C5    H7    1.115684 S    
C31   C42   1.386693 A    
