data_mof_unit_38069.cif
_audit_creation_date              2012-12-11T15:37:37-0500
_audit_creation_method            fapswitch 2.2
_symmetry_space_group_name_H-M    P1
_symmetry_Int_Tables_number       1
_space_group_crystal_system       triclinic
_cell_length_a                    17.349587
_cell_length_b                    24.283988
_cell_length_c                    14.821557
_cell_angle_alpha                 89.988672
_cell_angle_beta                  125.795206
_cell_angle_gamma                 90.012394
_cell_volume                      5065.05541276

loop_
_atom_site_label
_atom_site_type_symbol
_atom_type_description
_atom_site_fract_x
_atom_site_fract_y
_atom_site_fract_z
_atom_type_partial_charge
C1    C     C_R   0.809186 0.625250 0.907956 -0.114005
C2    C     C_R   0.147349 0.346727 0.091032 -0.050712
C3    C     C_R   0.147308 0.653348 0.090588 -0.060288
C4    C     C_R   0.809123 0.374822 0.907709 -0.151088
C5    C     C_R   0.309181 0.125248 0.907951 -0.113946
C6    C     C_R   0.647369 0.846731 0.091032 -0.051072
C7    C     C_R   0.647286 0.153351 0.090594 -0.059766
C8    C     C_R   0.309125 0.874822 0.907704 -0.151008
C9    C     C_3   0.425852 0.499899 0.356114 0.252758
C10   C     C_3   0.599906 0.500888 0.530211 0.226766
C11   C     C_3   0.925857 0.999897 0.356120 0.252841
C12   C     C_3   0.099928 0.000875 0.530184 0.226791
C13   C     C_R   0.657259 0.314272 0.899509 -0.171258
C14   C     C_R   0.209210 0.768101 0.099623 -0.160243
C15   C     C_R   0.210950 0.232429 0.100773 -0.165053
C16   C     C_R   0.657327 0.685412 0.900616 -0.172927
C17   C     C_R   0.157265 0.814262 0.899484 -0.171235
C18   C     C_R   0.709247 0.268086 0.099648 -0.160198
C19   C     C_R   0.710943 0.732425 0.100769 -0.165061
C20   C     C_R   0.157316 0.185408 0.900618 -0.172942
C21   C     C_R   0.108762 0.768617 0.898220 -0.163964
C22   C     C_R   0.758404 0.313251 0.100797 -0.166439
C23   C     C_R   0.759721 0.687105 0.101872 -0.162798
C24   C     C_R   0.109026 0.231150 0.899378 -0.161038
C25   C     C_R   0.608753 0.268627 0.898244 -0.163930
C26   C     C_R   0.258369 0.813265 0.100772 -0.166448
C27   C     C_R   0.259730 0.187111 0.101873 -0.162791
C28   C     C_R   0.609045 0.731158 0.899374 -0.161050
C29   C     C_R   0.140862 0.742108 0.998280 0.141926
C30   C     C_R   0.739266 0.332608 0.000732 0.140304
C31   C     C_R   0.739793 0.667364 0.001659 0.144860
C32   C     C_R   0.141947 0.258073 0.999316 0.139161
C33   C     C_R   0.640871 0.242108 0.998301 0.141923
C34   C     C_R   0.239256 0.832608 0.000711 0.140322
C35   C     C_R   0.239791 0.167366 0.001658 0.144867
C36   C     C_R   0.641958 0.758076 0.999313 0.139160
C37   C     C_R   0.110538 0.450203 0.632350 -0.164647
C38   C     C_R   0.113985 0.549860 0.541345 -0.175584
C39   C     C_R   0.114032 0.450173 0.541428 -0.176826
C40   C     C_R   0.110460 0.549848 0.632243 -0.168808
C41   C     C_R   0.610546 0.950208 0.632357 -0.164636
C42   C     C_R   0.613963 0.049865 0.541330 -0.175615
C43   C     C_R   0.614047 0.950177 0.541439 -0.176816
C44   C     C_R   0.610437 0.049853 0.632227 -0.168807
C45   C     C_R   0.105118 0.500009 0.488283 0.131761
C46   C     C_R   0.097281 0.500026 0.669349 0.139711
C47   C     C_R   0.605114 0.000012 0.488280 0.131757
C48   C     C_R   0.597272 0.000030 0.669343 0.139731
C49   C     C_R   0.903892 0.375900 0.094158 -0.114375
C50   C     C_R   0.054492 0.651623 0.906156 -0.126262
C51   C     C_R   0.055646 0.348478 0.906628 -0.148049
C52   C     C_R   0.904110 0.624062 0.094382 -0.118182
C53   C     C_R   0.403888 0.875899 0.094153 -0.114373
C54   C     C_R   0.554500 0.151623 0.906162 -0.126191
C55   C     C_R   0.555654 0.848480 0.906627 -0.147992
C56   C     C_R   0.404106 0.124062 0.094380 -0.118206
C57   C     C_R   0.052420 0.545897 0.306681 -0.165638
C58   C     C_R   0.019719 0.453702 0.751251 -0.169754
C59   C     C_R   0.019875 0.546327 0.751441 -0.150207
C60   C     C_R   0.052386 0.454090 0.306676 -0.163647
C61   C     C_R   0.552416 0.045898 0.306680 -0.165577
C62   C     C_R   0.519713 0.953703 0.751245 -0.169847
C63   C     C_R   0.519861 0.046329 0.751429 -0.149926
C64   C     C_R   0.552380 0.954091 0.306675 -0.163706
C65   C     C_R   0.741091 0.455486 0.695022 0.426694
C66   C     C_R   0.269365 0.545467 0.249969 0.450688
C67   C     C_R   0.269242 0.454568 0.249464 0.446281
C68   C     C_R   0.742532 0.545811 0.696445 0.423464
C69   C     C_R   0.241107 0.955484 0.695014 0.426671
C70   C     C_R   0.769363 0.045460 0.249948 0.450695
C71   C     C_R   0.769246 0.954563 0.249500 0.446258
C72   C     C_R   0.242552 0.045808 0.696422 0.423652
C73   C     C_R   0.813185 0.637654 0.001797 0.013811
C74   C     C_R   0.116895 0.315683 0.998350 0.019675
C75   C     C_R   0.116035 0.684460 0.997656 0.007180
C76   C     C_R   0.812942 0.362326 0.001368 0.036465
C77   C     C_R   0.313180 0.137653 0.001793 0.013794
C78   C     C_R   0.616911 0.815687 0.998349 0.019783
C79   C     C_R   0.616031 0.184462 0.997666 0.006976
C80   C     C_R   0.312939 0.862325 0.001359 0.036413
C81   C     C_R   0.070320 0.499994 0.371522 0.056042
C82   C     C_R   0.051315 0.500019 0.726370 0.065815
C83   C     C_R   0.570312 0.999995 0.371520 0.056049
C84   C     C_R   0.551303 0.000022 0.726360 0.065697
C85   C     C_R   0.692303 0.500881 0.634249 -0.261205
C86   C     C_R   0.325189 0.499989 0.271720 -0.234762
C87   C     C_R   0.192336 0.000875 0.634210 -0.261442
C88   C     C_R   0.825190 0.999981 0.271730 -0.234801
C89   C     C_3   0.526952 0.457228 0.507449 -0.083447
C90   C     C_3   0.498352 0.543631 0.377997 -0.112884
C91   C     C_3   0.496245 0.453108 0.386806 -0.067520
C92   C     C_3   0.529190 0.547502 0.498858 -0.104816
C93   C     C_3   0.027017 0.957167 0.507346 -0.082831
C94   C     C_3   0.998315 0.043677 0.378081 -0.112887
C95   C     C_3   0.996281 0.953144 0.386682 -0.067522
C96   C     C_3   0.029178 0.047449 0.498958 -0.105433
C97   C     C_3   0.455906 0.503814 0.475748 -0.215241
C98   C     C_3   0.571391 0.496788 0.411335 -0.257667
C99   C     C_3   0.955936 0.003714 0.475772 -0.215312
C100  C     C_3   0.071385 0.996873 0.411288 -0.257888
H1    H     H_    0.750355 0.631273 0.822664 0.156897
H2    H     H_    0.181262 0.331341 0.174100 0.120296
H3    H     H_    0.182059 0.668810 0.173630 0.121881
H4    H     H_    0.750448 0.368968 0.822284 0.154419
H5    H     H_    0.250346 0.131261 0.822654 0.156807
H6    H     H_    0.681309 0.831345 0.174103 0.120340
H7    H     H_    0.681982 0.168816 0.173628 0.121819
H8    H     H_    0.250455 0.868969 0.822276 0.154430
H9    H     H_    0.931996 0.370718 0.180520 0.093699
H10   H     H_    0.006881 0.665212 0.820913 0.090082
H11   H     H_    0.009703 0.334817 0.821338 0.082000
H12   H     H_    0.932387 0.629187 0.180796 0.096557
H13   H     H_    0.431989 0.870716 0.180514 0.093705
H14   H     H_    0.506913 0.165211 0.820918 0.089976
H15   H     H_    0.509712 0.834818 0.821338 0.081984
H16   H     H_    0.432381 0.129187 0.180793 0.096565
H17   H     H_    0.071065 0.587978 0.334854 0.078792
H18   H     H_    0.030158 0.411111 0.740687 0.100440
H19   H     H_    0.030505 0.588936 0.741136 0.099644
H20   H     H_    0.070961 0.412000 0.334832 0.078690
H21   H     H_    0.571067 0.087979 0.334855 0.078811
H22   H     H_    0.530154 0.911113 0.740680 0.100460
H23   H     H_    0.530484 0.088939 0.741118 0.099648
H24   H     H_    0.570950 0.912000 0.334830 0.078685
H25   H     H_    0.407828 0.506084 0.502022 0.107521
H26   H     H_    0.622077 0.493868 0.388862 0.127414
H27   H     H_    0.907875 0.005904 0.502076 0.107445
H28   H     H_    0.122053 0.994025 0.388780 0.127383
H29   H     H_    0.539150 0.422035 0.562182 0.143183
H30   H     H_    0.483794 0.578760 0.322144 0.143895
H31   H     H_    0.480545 0.414656 0.338424 0.148875
H32   H     H_    0.543607 0.586090 0.546429 0.146326
H33   H     H_    0.039245 0.921928 0.561995 0.143217
H34   H     H_    0.983722 0.078850 0.322308 0.144043
H35   H     H_    0.980588 0.914729 0.338205 0.148706
H36   H     H_    0.043585 0.085999 0.546630 0.146185
H37   H     H_    0.635688 0.331003 0.820398 0.114957
H38   H     H_    0.232239 0.751027 0.178964 0.108159
H39   H     H_    0.234776 0.249902 0.180097 0.108746
H40   H     H_    0.635180 0.668329 0.821542 0.112700
H41   H     H_    0.135704 0.830984 0.820372 0.114941
H42   H     H_    0.732304 0.250997 0.178989 0.108147
H43   H     H_    0.734757 0.749891 0.180093 0.108736
H44   H     H_    0.135164 0.168322 0.821545 0.112685
H45   H     H_    0.052561 0.751567 0.818601 0.109751
H46   H     H_    0.817194 0.328860 0.180408 0.109490
H47   H     H_    0.818901 0.671735 0.181467 0.108834
H48   H     H_    0.052194 0.247870 0.819755 0.110349
H49   H     H_    0.552534 0.251586 0.818626 0.109762
H50   H     H_    0.317141 0.828886 0.180382 0.109487
H51   H     H_    0.318920 0.171748 0.181467 0.108836
H52   H     H_    0.552229 0.747886 0.819751 0.110367
H53   H     H_    0.107982 0.410919 0.664756 0.110773
H54   H     H_    0.113753 0.589183 0.507097 0.107833
H55   H     H_    0.113832 0.410848 0.507234 0.107886
H56   H     H_    0.107817 0.589137 0.664539 0.110276
H57   H     H_    0.608002 0.910925 0.664772 0.110777
H58   H     H_    0.613715 0.089188 0.507072 0.107832
H59   H     H_    0.613866 0.910851 0.507256 0.107888
H60   H     H_    0.607778 0.089142 0.664510 0.110272
N1    N     N_R   0.892620 0.603790 0.941800 -0.031833
N2    N     N_R   0.107380 0.396210 0.058200 -0.045187
N3    N     N_R   0.107380 0.603790 0.058200 -0.048932
N4    N     N_R   0.892620 0.396210 0.941800 -0.044442
N5    N     N_R   0.392620 0.103790 0.941800 -0.031829
N6    N     N_R   0.607380 0.896210 0.058200 -0.045213
N7    N     N_R   0.607380 0.103790 0.058200 -0.048914
N8    N     N_R   0.392620 0.896210 0.941800 -0.044416
N9    N     N_R   0.952210 0.397600 0.057910 -0.041435
N10   N     N_R   0.047790 0.602400 0.942090 -0.037526
N11   N     N_R   0.047790 0.397600 0.942090 -0.042918
N12   N     N_R   0.952210 0.602400 0.057910 -0.044680
N13   N     N_R   0.452210 0.897600 0.057910 -0.041439
N14   N     N_R   0.547790 0.102400 0.942090 -0.037559
N15   N     N_R   0.547790 0.897600 0.942090 -0.042905
N16   N     N_R   0.452210 0.102400 0.057910 -0.044696
N17   N     N_R   0.026300 0.529110 0.206760 -0.036814
N18   N     N_R   0.973700 0.470890 0.793240 -0.061498
N19   N     N_R   0.973700 0.529110 0.793240 -0.048038
N20   N     N_R   0.026300 0.470890 0.206760 -0.036206
N21   N     N_R   0.526300 0.029110 0.206760 -0.036803
N22   N     N_R   0.473700 0.970890 0.793240 -0.061518
N23   N     N_R   0.473700 0.029110 0.793240 -0.047967
N24   N     N_R   0.526300 0.970890 0.206760 -0.036224
N25   N     N_R   0.818530 0.472270 0.792960 -0.129230
N26   N     N_R   0.181470 0.527730 0.207040 -0.139355
N27   N     N_R   0.181470 0.472270 0.207040 -0.136850
N28   N     N_R   0.818530 0.527730 0.792960 -0.109301
N29   N     N_R   0.318530 0.972270 0.792960 -0.129216
N30   N     N_R   0.681470 0.027730 0.207040 -0.139290
N31   N     N_R   0.681470 0.972270 0.207040 -0.136898
N32   N     N_R   0.318530 0.027730 0.792960 -0.109266
Ni1   Ni    Ni4+2 0.934150 0.565840 0.869060 0.226287
Ni2   Ni    Ni4+2 0.065850 0.434160 0.130940 0.191824
Ni3   Ni    Ni4+2 0.065850 0.565840 0.130940 0.192193
Ni4   Ni    Ni4+2 0.934150 0.434160 0.869060 0.192883
Ni5   Ni    Ni4+2 0.434150 0.065840 0.869060 0.226405
Ni6   Ni    Ni4+2 0.565850 0.934160 0.130940 0.191787
Ni7   Ni    Ni4+2 0.565850 0.065840 0.130940 0.192225
Ni8   Ni    Ni4+2 0.434150 0.934160 0.869060 0.192919
O1    O     O_3   0.721562 0.402536 0.652488 -0.647644
C101  C     C_3   0.798134 0.382067 0.653893 0.278834
H61   H     H_    0.858080 0.371450 0.739928 0.106031
H62   H     H_    0.821346 0.412165 0.617402 0.091682
C102  C     C_3   0.767097 0.329704 0.584784 -0.932622
H63   H     H_    0.706839 0.338722 0.497423 0.262269
H64   H     H_    0.827197 0.312884 0.585938 0.208901
H65   H     H_    0.744476 0.298384 0.619534 0.258918
O2    O     O_3   0.304224 0.597115 0.295384 -0.631468
C103  C     C_3   0.276894 0.610934 0.365713 0.277690
H66   H     H_    0.295243 0.577628 0.426904 0.079292
H67   H     H_    0.199163 0.618769 0.316355 0.081567
C104  C     C_3   0.328934 0.662903 0.430293 -0.930964
H68   H     H_    0.311364 0.697411 0.372032 0.248962
H69   H     H_    0.307389 0.674332 0.485143 0.214439
H70   H     H_    0.406866 0.655787 0.482386 0.257497
O3    O     O_3   0.303678 0.402667 0.293149 -0.636703
C105  C     C_3   0.281775 0.389754 0.368810 0.267767
H71   H     H_    0.204160 0.382765 0.323991 0.084793
H72   H     H_    0.304699 0.423177 0.431229 0.082730
C106  C     C_3   0.333840 0.337366 0.431257 -0.929569
H73   H     H_    0.411723 0.343393 0.477764 0.259446
H74   H     H_    0.317227 0.326889 0.491081 0.215463
H75   H     H_    0.311456 0.302679 0.372033 0.248155
O4    O     O_3   0.732557 0.599332 0.659074 -0.649951
C107  C     C_3   0.757313 0.602325 0.583847 0.286239
H76   H     H_    0.699013 0.585753 0.501465 0.102742
H77   H     H_    0.823933 0.579423 0.614351 0.087658
C108  C     C_3   0.772803 0.662291 0.568866 -0.929655
H78   H     H_    0.831051 0.680104 0.650021 0.251751
H79   H     H_    0.792330 0.665283 0.509806 0.211501
H80   H     H_    0.706696 0.686217 0.535357 0.260893
O5    O     O_3   0.221599 0.902530 0.652499 -0.647710
C109  C     C_3   0.298144 0.882093 0.653816 0.278921
H81   H     H_    0.358135 0.871484 0.739835 0.106009
H82   H     H_    0.321292 0.912208 0.617280 0.091662
C110  C     C_3   0.267106 0.829731 0.584703 -0.932599
H83   H     H_    0.206795 0.838742 0.497361 0.262272
H84   H     H_    0.327183 0.812939 0.585780 0.208913
H85   H     H_    0.244559 0.798392 0.619504 0.258908
O6    O     O_3   0.804194 0.097135 0.295196 -0.631517
C111  C     C_3   0.777169 0.110947 0.365814 0.277353
H86   H     H_    0.795842 0.077685 0.427177 0.079428
H87   H     H_    0.699435 0.118687 0.316723 0.081600
C112  C     C_3   0.829132 0.162986 0.430120 -0.930537
H88   H     H_    0.810817 0.197536 0.371673 0.248522
H89   H     H_    0.808220 0.174236 0.485678 0.214382
H90   H     H_    0.907120 0.156064 0.481480 0.257740
O7    O     O_3   0.803696 0.902677 0.293290 -0.636651
C113  C     C_3   0.781568 0.889758 0.368744 0.267947
H91   H     H_    0.703948 0.882716 0.323726 0.084791
H92   H     H_    0.804282 0.923200 0.431073 0.082661
C114  C     C_3   0.833660 0.837407 0.431354 -0.929702
H93   H     H_    0.911554 0.843554 0.478389 0.259243
H94   H     H_    0.816591 0.826812 0.490715 0.215464
H95   H     H_    0.811739 0.802748 0.372187 0.248416
O8    O     O_3   0.232627 0.099326 0.659049 -0.649915
C115  C     C_3   0.257256 0.102280 0.583697 0.286503
H96   H     H_    0.198676 0.085950 0.501208 0.102840
H97   H     H_    0.323599 0.079135 0.613831 0.087414
C116  C     C_3   0.273353 0.162207 0.569199 -0.929486
H98   H     H_    0.331875 0.179783 0.650480 0.251601
H99   H     H_    0.292788 0.165168 0.510045 0.211464
H100  H     H_    0.207524 0.186374 0.536028 0.260838

loop_
_geom_bond_atom_site_label_1
_geom_bond_atom_site_label_2
_ccdc_geom_bond_type
C16   C28   A    
C49   N9    A    
C6    N6    A    
C10   C85   S    
C21   C29   A    
N30   N31   A    
O1    C101  S    
C20   H44   S    
C19   C23   A    
C59   C82   A    
C50   H10   S    
C70   C88   A    
C9    C91   S    
N6    Ni6   S    
N18   N19   A    
C53   N13   A    
C15   C32   A    
C96   H36   S    
C5    H5    S    
C102  H63   S    
C16   C31   A    
C40   C46   A    
C104  H70   S    
N6    N15   A    
N23   Ni5   S    
C55   H15   S    
C42   C44   A    
C65   O1    S    
C56   N16   A    
C17   H41   S    
C92   H32   S    
O6    C111  S    
C106  H75   S    
C43   H59   S    
C19   C36   A    
C58   C82   A    
C70   O6    S    
C32   C74   S    
C114  H93   S    
C6    C78   A    
C91   H31   S    
C52   H12   S    
C113  H92   S    
C96   C99   S    
N17   Ni3   S    
C58   H18   S    
C89   H29   S    
C68   O4    S    
C11   C99   S    
O8    C115  S    
C10   C98   S    
N3    N10   A    
C69   O5    S    
N22   N23   A    
C38   C45   A    
C62   C84   A    
C27   H51   S    
C8    N8    A    
C34   C80   S    
C46   C82   S    
N1    N12   A    
C90   C92   S    
C26   C34   A    
N2    N11   A    
C20   C24   A    
C10   C89   S    
C53   H13   S    
C102  H65   S    
C101  C102  S    
C92   C97   S    
C9    C97   S    
C4    N4    A    
C60   H20   S    
C47   C83   S    
C89   C91   S    
C3    C75   A    
O5    C109  S    
C93   C99   S    
C116  H99   S    
C59   N19   A    
C2    C74   A    
C3    N3    A    
C39   C45   A    
C64   N24   A    
N17   N20   A    
C113  C114  S    
C102  H64   S    
N26   N27   A    
C10   C92   S    
C72   O8    S    
C93   C95   S    
C38   C40   A    
C100  H28   S    
C112  H88   S    
C68   C85   A    
C41   C43   A    
C2    N2    A    
N4    N9    A    
C16   H40   S    
C109  H82   S    
C61   H21   S    
C8    H8    S    
N31   Ni6   S    
C67   N27   A    
N30   Ni7   S    
O2    C103  S    
C15   H39   S    
C104  H69   S    
C6    H6    S    
N8    N13   A    
N15   Ni8   S    
C65   N25   A    
C111  C112  S    
C63   N23   A    
C101  H61   S    
C14   H38   S    
N26   Ni3   S    
C67   O3    S    
C53   C80   A    
N22   Ni8   S    
C50   N10   A    
C52   C73   A    
C24   H48   S    
C69   N29   A    
C111  H87   S    
C114  H94   S    
C55   C78   A    
C12   C96   S    
C95   C100  S    
C33   C79   S    
N25   N28   A    
C99   H27   S    
C56   H16   S    
C27   C35   A    
O3    C105  S    
C104  H68   S    
N18   Ni4   S    
C35   C77   S    
C17   C21   A    
C56   C77   A    
C48   C84   S    
C51   C74   A    
C89   C97   S    
C15   C27   A    
C109  C110  S    
C13   H37   S    
C37   C39   A    
N29   N32   A    
C115  H97   S    
C24   C32   A    
C64   C83   A    
C108  H78   S    
C37   H53   S    
C9    C86   S    
C62   N22   A    
C106  H73   S    
C30   C76   S    
C60   C81   A    
C13   C30   A    
C105  H72   S    
C2    H2    S    
N3    Ni3   S    
C11   C88   S    
C26   H50   S    
C72   N32   A    
N2    Ni2   S    
C25   C33   A    
C95   H35   S    
O4    C107  S    
O7    C113  S    
C49   C76   A    
N1    Ni1   S    
C58   N18   A    
N10   Ni1   S    
N32   Ni5   S    
C14   C26   A    
C66   O2    S    
C94   C96   S    
C71   C88   A    
C55   N15   A    
C101  H62   S    
C51   H11   S    
N7    N14   A    
C41   H57   S    
N29   Ni8   S    
C97   H25   S    
N28   Ni1   S    
C28   H52   S    
C5    N5    A    
C110  H84   S    
N27   Ni2   S    
C61   C83   A    
C91   C98   S    
C44   H60   S    
C4    C76   A    
C57   C81   A    
C12   C93   S    
C112  H90   S    
C115  C116  S    
C21   H45   S    
C109  H81   S    
C38   H54   S    
N16   Ni7   S    
C5    C77   A    
C107  C108  S    
C1    H1    S    
C62   H22   S    
C72   C87   A    
N20   Ni2   S    
C70   N30   A    
C105  C106  S    
C7    C79   A    
C54   C79   A    
N19   Ni1   S    
N21   N24   A    
C3    H3    S    
C68   N28   A    
C7    N7    A    
C42   H58   S    
C67   C86   A    
C59   H19   S    
C22   C30   A    
C12   C87   S    
C111  H86   S    
N13   Ni6   S    
C18   C22   A    
C61   N21   A    
C20   C35   A    
C45   C81   S    
C25   H49   S    
C11   C94   S    
N11   Ni4   S    
C13   C25   A    
C69   C87   A    
C9    C90   S    
C66   C86   A    
C116  H100  S    
C63   H23   S    
C71   O7    S    
N4    Ni4   S    
C65   C85   A    
N9    Ni2   S    
C29   C75   S    
C18   H42   S    
N25   Ni4   S    
C60   N20   A    
C103  C104  S    
C107  H77   S    
C63   C84   A    
C106  H74   S    
C1    C73   A    
C103  H67   S    
C114  H95   S    
C112  H89   S    
C115  H96   S    
C113  H91   S    
C49   H9    S    
C108  H79   S    
C66   N26   A    
C64   H24   S    
C50   C75   A    
C57   N17   A    
C28   C36   A    
C54   N14   A    
C105  H71   S    
C116  H98   S    
C23   H47   S    
C54   H14   S    
C51   N11   A    
C52   N12   A    
C94   H34   S    
C41   C48   A    
C93   H33   S    
C4    H4    S    
C7    H7    S    
C42   C47   A    
C103  H66   S    
C94   C100  S    
N8    Ni8   S    
C18   C33   A    
C19   H43   S    
C57   H17   S    
C12   C100  S    
C31   C73   S    
C22   H46   S    
C1    N1    A    
C108  H80   S    
C90   H30   S    
C98   H26   S    
C11   C95   S    
N24   Ni6   S    
N14   Ni5   S    
C107  H76   S    
C17   C34   A    
C110  H85   S    
C39   H55   S    
C8    C80   A    
N7    Ni7   S    
C40   H56   S    
N12   Ni3   S    
C36   C78   S    
C14   C29   A    
C71   N31   A    
C37   C46   A    
C110  H83   S    
C43   C47   A    
C90   C98   S    
N5    Ni5   S    
C44   C48   A    
C23   C31   A    
N5    N16   A    
N21   Ni7   S    
