data_mof_unit_59985.cif
_audit_creation_date              2012-12-10T17:09:52-0500
_audit_creation_method            fapswitch 2.2
_symmetry_space_group_name_H-M    P1
_symmetry_Int_Tables_number       1
_space_group_crystal_system       triclinic
_cell_length_a                    10.827726
_cell_length_b                    13.033857
_cell_length_c                    11.772309
_cell_angle_alpha                 100.88761
_cell_angle_beta                  92.463285
_cell_angle_gamma                 93.412737
_cell_volume                      1626.09859379

loop_
_atom_site_label
_atom_site_type_symbol
_atom_type_description
_atom_site_fract_x
_atom_site_fract_y
_atom_site_fract_z
_atom_type_partial_charge
C1    C     C_R   0.504212 0.299197 0.477055 0.784027
C2    C     C_R   0.073675 0.587173 0.584639 0.078733
C3    C     C_R   0.128748 0.509764 0.504986 -0.075192
C4    C     C_R   0.055101 0.439369 0.421531 -0.209146
C5    C     C_R   0.927772 0.441408 0.418626 -0.199425
C6    C     C_R   0.871514 0.516795 0.495958 -0.097234
C7    C     C_R   0.477599 0.816331 0.539530 -0.176251
C8    C     C_R   0.513338 0.185131 0.462029 -0.104849
C9    C     C_R   0.508185 0.010674 0.346976 -0.175308
C10   C     C_R   0.526981 0.118997 0.353327 0.131534
C11   C     C_R   0.509919 0.141644 0.561860 -0.276358
C12   C     C_R   0.262552 0.502924 0.501837 0.777317
C13   C     C_R   0.513580 0.033907 0.556674 0.023201
C14   C     C_R   0.493957 0.968078 0.447356 0.075255
C15   C     C_R   0.463157 0.861067 0.439457 0.089685
C16   C     C_R   0.492364 0.883575 0.651872 0.095637
C17   C     C_R   0.526186 0.991973 0.658750 0.151003
C18   C     C_R   0.384014 0.399194 0.023338 -0.329128
C19   C     C_R   0.391572 0.409195 0.143088 0.401610
C20   C     C_R   0.553798 0.542799 0.156733 -0.018541
C21   C     C_R   0.545382 0.535864 0.034094 0.030452
C22   C     C_R   0.457615 0.463687 0.966605 0.035051
C23   C     C_R   0.489591 0.700725 0.523172 0.790175
C24   C     C_R   0.443954 0.458031 0.844297 0.310624
C25   C     C_R   0.609822 0.588797 0.855684 0.038497
C26   C     C_R   0.621421 0.599044 0.977380 -0.328136
C27   C     C_R   0.737561 0.503674 0.498976 0.785500
C28   C     C_R   0.144261 0.657454 0.672281 -0.267783
C29   C     C_R   0.087731 0.726903 0.754599 -0.184588
C30   C     C_R   0.961294 0.739669 0.743022 0.227216
C31   C     C_R   0.893697 0.685815 0.641164 0.105653
C32   C     C_R   0.944096 0.596286 0.574288 0.038669
Cu1   Cu    Cu3+1 0.509250 0.507730 0.615930 0.909809
Cu2   Cu    Cu3+1 0.490750 0.492270 0.384070 0.923199
H1    H     H_    0.096164 0.379500 0.361065 0.145023
H2    H     H_    0.498216 0.192237 0.644154 0.154510
H3    H     H_    0.670044 0.637527 0.813709 0.134740
H4    H     H_    0.317755 0.339495 0.976722 0.159450
H5    H     H_    0.689728 0.655961 0.026882 0.145917
H6    H     H_    0.621252 0.598312 0.209575 0.131044
H7    H     H_    0.242782 0.656703 0.682696 0.172849
H8    H     H_    0.143751 0.773309 0.826339 0.152420
H9    H     H_    0.872472 0.381679 0.357685 0.147285
H10   H     H_    0.508007 0.958604 0.263991 0.162291
N1    N     N_R   0.523180 0.519350 0.790130 -0.196889
N2    N     N_R   0.476820 0.480650 0.209890 -0.176509
O1    O     O_R   0.506570 0.354460 0.582000 -0.600908
O2    O     O_R   0.490940 0.341410 0.386200 -0.604292
O3    O     O_R   0.327470 0.506530 0.597920 -0.599315
O4    O     O_R   0.311840 0.493480 0.402120 -0.577378
O5    O     O_R   0.509060 0.658590 0.613800 -0.619035
O6    O     O_R   0.493430 0.645540 0.418000 -0.564882
O7    O     O_R   0.688160 0.506520 0.597880 -0.570931
O8    O     O_R   0.672530 0.493470 0.402080 -0.585674
C33   C     C_3   0.585615 0.062699 0.769676 -0.360413
C34   C     C_3   0.692143 0.015674 0.827094 -0.863889
H11   H     H_    0.658752 0.962815 0.884038 0.255595
H12   H     H_    0.749490 0.973870 0.760187 0.256032
H13   H     H_    0.752208 0.079188 0.882972 0.237092
H14   H     H_    0.630802 0.135200 0.749613 0.198640
H15   H     H_    0.515159 0.089917 0.831718 0.196509
C35   C     C_3   0.560375 0.163106 0.246526 -0.354218
C36   C     C_3   0.612300 0.086253 0.148217 -0.910913
H16   H     H_    0.690501 0.046836 0.181527 0.261161
H17   H     H_    0.538814 0.027140 0.104980 0.246186
H18   H     H_    0.647008 0.129710 0.082153 0.255437
H19   H     H_    0.477455 0.194808 0.211335 0.221982
H20   H     H_    0.633515 0.227832 0.272966 0.218776
C37   C     C_3   0.336498 0.386875 0.777817 -0.374835
C38   C     C_3   0.210871 0.432467 0.802822 -0.823511
H21   H     H_    0.180044 0.423524 0.889093 0.239136
H22   H     H_    0.216522 0.517016 0.799981 0.269337
H23   H     H_    0.139071 0.391679 0.736778 0.241956
H24   H     H_    0.341849 0.370190 0.684879 0.260219
H25   H     H_    0.337492 0.306650 0.796462 0.145222
C39   C     C_3   0.296664 0.340814 0.190000 -0.839502
H26   H     H_    0.203767 0.370413 0.178624 0.210988
H27   H     H_    0.294047 0.259336 0.139933 0.182493
H28   H     H_    0.311421 0.334338 0.280360 0.270666
C40   C     C_3   0.903837 0.814823 0.837283 -0.437495
C41   C     C_3   0.919486 0.782335 0.954937 -0.863146
H29   H     H_    0.887563 0.698707 0.947799 0.253995
H30   H     H_    0.017884 0.794038 0.987899 0.251155
H31   H     H_    0.863593 0.830939 0.018546 0.242729
H32   H     H_    0.947620 0.895085 0.843187 0.207161
H33   H     H_    0.803276 0.817309 0.819394 0.202444
C42   C     C_3   0.790949 0.740506 0.589419 -0.408843
C43   C     C_3   0.841270 0.842010 0.555466 -0.856454
H34   H     H_    0.763602 0.882029 0.522192 0.249615
H35   H     H_    0.889519 0.896196 0.630204 0.247525
H36   H     H_    0.907609 0.824178 0.486173 0.258792
H37   H     H_    0.747489 0.693370 0.508381 0.208528
H38   H     H_    0.717010 0.756957 0.650631 0.203120
C44   C     C_3   0.397470 0.799314 0.328368 -0.805565
H39   H     H_    0.339462 0.849904 0.285376 0.208885
H40   H     H_    0.466135 0.764857 0.267422 0.234746
H41   H     H_    0.330455 0.737352 0.346512 0.247101
C45   C     C_3   0.461824 0.840689 0.760895 -0.312741
C46   C     C_3   0.385353 0.909682 0.847636 -0.882422
H42   H     H_    0.445396 0.964455 0.912960 0.252244
H43   H     H_    0.319223 0.952651 0.802634 0.255927
H44   H     H_    0.331955 0.860180 0.898019 0.226925
H45   H     H_    0.400599 0.768994 0.735902 0.212893
H46   H     H_    0.546569 0.818581 0.803925 0.192108

loop_
_geom_bond_atom_site_label_1
_geom_bond_atom_site_label_2
_ccdc_geom_bond_type
C6    C32   A    
C21   C26   A    
C36   H17   S    
C40   C41   S    
C29   H8    S    
C1    C8    S    
Cu1   N1    S    
C39   H28   S    
C33   C34   S    
C15   C44   S    
C12   O3    A    
C19   N2    A    
C40   H32   S    
C35   H19   S    
C24   N1    A    
C19   C39   S    
C39   H27   S    
C30   C31   A    
C20   H6    S    
C45   H46   S    
C26   H5    S    
Cu1   O3    S    
C45   H45   S    
C42   H38   S    
C28   H7    S    
C34   H11   S    
C2    C32   A    
C18   C19   A    
C40   H33   S    
C3    C12   S    
C25   H3    S    
C35   C36   S    
C31   C32   A    
C16   C17   A    
C38   H21   S    
Cu2   N2    S    
C9    C10   A    
C17   C33   S    
C6    C27   S    
C33   H14   S    
C7    C15   A    
C5    H9    S    
C36   H18   S    
C13   C14   A    
C10   C35   S    
C41   H30   S    
C24   C37   S    
C41   H29   S    
Cu1   O7    S    
C27   O8    A    
Cu2   O4    S    
C31   C42   S    
C39   H26   S    
C1    O1    A    
C44   H41   S    
C25   C26   A    
C11   H2    S    
C9    C14   A    
C29   C30   A    
C23   O5    A    
C46   H42   S    
C43   H36   S    
C38   H23   S    
Cu1   Cu2   S    
C37   H24   S    
C43   H34   S    
C44   H40   S    
C7    C16   A    
C46   H43   S    
C43   H35   S    
Cu2   O8    S    
C44   H39   S    
Cu1   O1    S    
C22   C24   A    
Cu2   O2    S    
C3    C4    A    
C25   N1    A    
C41   H31   S    
C42   H37   S    
C28   C29   A    
C9    H10   S    
C18   C22   A    
C4    C5    A    
C12   O4    A    
C27   O7    A    
C1    O2    A    
C35   H20   S    
Cu1   O5    S    
Cu2   O6    S    
C34   H13   S    
C13   C17   A    
C2    C3    A    
C18   H4    S    
C30   C40   S    
C11   C13   A    
C16   C45   S    
C23   O6    A    
C5    C6    A    
C8    C11   A    
C7    C23   S    
C33   H15   S    
C34   H12   S    
C37   H25   S    
C37   C38   S    
C4    H1    S    
C2    C28   A    
C36   H16   S    
C46   H44   S    
C20   C21   A    
C42   C43   S    
C8    C10   A    
C45   C46   S    
C14   C15   A    
C38   H22   S    
C21   C22   A    
C20   N2    A    
