data_mof_unit_40971.cif
_audit_creation_date              2012-10-26T19:52:48-0400
_audit_creation_method            fapswitch 2.2
_symmetry_space_group_name_H-M    P1
_symmetry_Int_Tables_number       1
_space_group_crystal_system       triclinic
_cell_length_a                    15.082171
_cell_length_b                    10.836755
_cell_length_c                    9.561719
_cell_angle_alpha                 90.449268
_cell_angle_beta                  89.673466
_cell_angle_gamma                 90.819398
_cell_volume                      1562.55224508

loop_
_atom_site_label
_atom_site_type_symbol
_atom_type_description
_atom_site_fract_x
_atom_site_fract_y
_atom_site_fract_z
_atom_type_partial_charge
C1    C     C_R   0.497026 0.262484 0.499470 0.552652
C2    C     C_R   0.184802 0.511371 0.626517 -0.112064
C3    C     C_R   0.231717 0.500626 0.500132 -0.024685
C4    C     C_R   0.328636 0.500178 0.500227 0.551437
C5    C     C_R   0.185865 0.490449 0.373129 -0.103712
C6    C     C_R   0.481087 0.065468 0.624088 0.037856
C7    C     C_R   0.485595 0.129634 0.498573 0.011671
C8    C     C_R   0.475564 0.063328 0.372620 -0.155000
C9    C     C_R   0.475517 0.934458 0.373665 -0.129054
C10   C     C_R   0.486561 0.871052 0.500326 0.005793
C11   C     C_R   0.481649 0.938455 0.625294 0.018319
C12   C     C_R   0.907406 0.490905 0.371366 -0.043418
C13   C     C_3   0.538526 0.937373 0.752629 -0.267179
C14   C     C_3   0.537466 0.077144 0.751044 -0.253767
C15   C     C_R   0.573720 0.536627 0.072893 0.160339
C16   C     C_R   0.497532 0.737846 0.500387 0.554517
C17   C     C_R   0.433682 0.443981 0.075631 -0.009271
C18   C     C_R   0.434428 0.441100 0.926960 0.079891
C19   C     C_R   0.574039 0.535492 0.926100 0.083537
C20   C     C_3   0.623740 0.654490 0.918716 -0.210221
C21   C     C_3   0.622309 0.657429 0.077685 0.242535
C22   C     C_R   0.671355 0.499911 0.499671 0.546043
C23   C     C_R   0.952922 0.518925 0.753298 -0.117256
C24   C     C_R   0.814977 0.491217 0.372223 -0.129778
C25   C     C_R   0.768267 0.499670 0.499184 -0.002780
C26   C     C_R   0.814382 0.507826 0.626020 -0.132191
C27   C     C_R   0.906703 0.508985 0.626861 0.022662
C28   C     C_R   0.953510 0.500186 0.499089 0.045226
C29   C     C_1   0.368055 0.365976 0.858619 0.233290
C30   C     C_R   0.045326 0.520267 0.753261 -0.102683
C31   C     C_R   0.092440 0.510796 0.626997 0.010787
C32   C     C_R   0.046484 0.500513 0.499136 0.007612
C33   C     C_R   0.093384 0.490561 0.371458 0.026051
C34   C     C_R   0.046885 0.480751 0.244837 0.371806
C35   C     C_R   0.954419 0.481336 0.245028 -0.092136
Cu1   Cu    Cu3+1 0.500000 0.499980 0.640670 0.966520
Cu2   Cu    Cu3+1 0.500000 0.500020 0.359330 0.998556
F1    F     F_    0.570580 0.751896 0.129033 -0.640228
F2    F     F_    0.090771 0.470497 0.121029 -0.668023
H1    H     H_    0.779568 0.484282 0.274034 0.113607
H2    H     H_    0.688839 0.652048 0.126433 0.100063
H3    H     H_    0.778621 0.513480 0.724347 0.116825
H4    H     H_    0.917629 0.525979 0.852039 0.114553
H5    H     H_    0.079997 0.528531 0.851825 0.190290
H6    H     H_    0.219990 0.520439 0.724669 0.153747
H7    H     H_    0.222229 0.482212 0.275487 0.186879
H8    H     H_    0.919590 0.473996 0.146395 0.121377
H9    H     H_    0.472422 0.110257 0.273207 0.142503
H10   H     H_    0.471130 0.885522 0.274951 0.213451
H11   H     H_    0.502403 0.898863 0.844425 0.170036
H12   H     H_    0.605446 0.899480 0.731355 0.135626
H13   H     H_    0.500905 0.117903 0.841104 0.151560
H14   H     H_    0.603517 0.119841 0.728909 0.143582
H15   H     H_    0.380137 0.399381 0.132752 0.122792
H16   H     H_    0.691375 0.643782 0.874298 0.065554
H17   H     H_    0.583824 0.726632 0.870347 0.173486
N1    N     N_R   0.500570 0.500930 0.147930 -0.216881
N2    N     N_R   0.500570 0.500890 0.852020 -0.243863
N3    N     N_1   0.314749 0.304162 0.805169 -0.291195
O1    O     O_R   0.500000 0.319640 0.618810 -0.497550
O2    O     O_R   0.500010 0.319680 0.381230 -0.517962
O3    O     O_R   0.370250 0.499950 0.618800 -0.493845
O4    O     O_R   0.370260 0.499990 0.381220 -0.519915
O5    O     O_R   0.499990 0.680320 0.618770 -0.511948
O6    O     O_R   0.500000 0.680360 0.381190 -0.434712
O7    O     O_R   0.629740 0.500010 0.618780 -0.513028
O8    O     O_R   0.629750 0.500050 0.381200 -0.508687

loop_
_geom_bond_atom_site_label_1
_geom_bond_atom_site_label_2
_ccdc_geom_bond_type
C8    C9    A    
Cu2   O2    S    
C8    H9    S    
C6    C7    A    
C23   C27   A    
C6    C14   S    
C11   C13   S    
C9    C10   A    
C12   C24   A    
Cu1   N2    S    
C19   C20   S    
C15   C21   S    
C20   H17   S    
C35   H8    S    
C32   C33   A    
C3    C5    A    
C17   C18   A    
C3    C4    S    
C23   H4    S    
C7    C8    A    
C2    H6    S    
C18   C29   S    
C13   H12   S    
C13   C14   S    
C24   C25   A    
C12   C35   A    
C15   C19   A    
C15   N1    A    
C4    O4    A    
C30   H5    S    
C26   C27   A    
C12   C28   A    
C20   H16   S    
C21   H2    S    
Cu2   O8    S    
C14   H13   S    
Cu1   Cu2   S    
Cu2   O4    S    
C33   C34   A    
C2    C3    A    
C5    C33   A    
C6    C11   A    
C19   N2    A    
C30   C31   A    
Cu1   O1    S    
Cu1   O7    S    
C22   O8    A    
C10   C11   A    
C13   H11   S    
C23   C30   A    
C4    O3    A    
C28   C32   A    
C14   H14   S    
C9    H10   S    
C20   C21   S    
C26   H3    S    
C34   C35   A    
C5    H7    S    
C1    O1    A    
C27   C28   A    
C17   H15   S    
C29   N3    T    
C22   O7    A    
C1    C7    S    
C10   C16   S    
C16   O6    A    
C16   O5    A    
C24   H1    S    
C25   C26   A    
Cu1   O5    S    
C34   F2    S    
C18   N2    A    
Cu2   N1    S    
C21   F1    S    
C31   C32   A    
Cu2   O6    S    
C17   N1    A    
C2    C31   A    
Cu1   O3    S    
C22   C25   S    
C1    O2    A    
