data_mof_unit_19740.cif
_audit_creation_date              2012-12-10T20:28:44-0500
_audit_creation_method            fapswitch 2.2
_symmetry_space_group_name_H-M    P1
_symmetry_Int_Tables_number       1
_space_group_crystal_system       triclinic
_cell_length_a                    10.675103
_cell_length_b                    10.588062
_cell_length_c                    9.925064
_cell_angle_alpha                 90.116016
_cell_angle_beta                  91.550944
_cell_angle_gamma                 91.407767
_cell_volume                      1121.06310065

loop_
_atom_site_label
_atom_site_type_symbol
_atom_type_description
_atom_site_fract_x
_atom_site_fract_y
_atom_site_fract_z
_atom_type_partial_charge
Br1   Br    Br    0.826689 0.158654 0.686256 -0.436559
Br2   Br    Br    0.621228 0.748480 0.150529 -0.213587
Br3   Br    Br    0.411655 0.133878 0.132014 -0.344586
Br4   Br    Br    0.219063 0.239331 0.690092 -0.424616
Br5   Br    Br    0.116997 0.293557 0.002344 -0.219046
Br6   Br    Br    0.813432 0.682340 0.794511 -0.307835
C1    C     C_R   0.499070 0.260634 0.500156 0.927794
C2    C     C_R   0.390545 0.931208 0.454232 -0.129733
C3    C     C_R   0.497891 0.871269 0.502378 -0.030473
C4    C     C_R   0.259807 0.488251 0.498099 0.939871
C5    C     C_R   0.595991 0.938580 0.565995 0.072640
C6    C     C_3   0.732914 0.936656 0.537356 -0.490005
C7    C     C_3   0.731120 0.079718 0.538603 0.773034
C8    C     C_R   0.461376 0.394374 0.069613 0.133018
C9    C     C_R   0.534111 0.605299 0.070856 0.252951
C10   C     C_R   0.524577 0.607114 0.928670 0.655195
C11   C     C_R   0.465010 0.394159 0.927245 0.069330
C12   C     C_R   0.060208 0.449378 0.613245 -0.108182
C13   C     C_3   0.529385 0.271815 0.921575 -0.415613
C14   C     C_3   0.523557 0.268724 0.073827 0.127154
C15   C     C_R   0.501171 0.739429 0.500252 0.872603
C16   C     C_R   0.740082 0.514270 0.502231 0.980840
C17   C     C_R   0.107205 0.375236 0.721695 0.241734
C18   C     C_R   0.055760 0.387200 0.849952 0.172046
C19   C     C_R   0.961040 0.473289 0.869240 0.580888
C20   C     C_R   0.906201 0.534238 0.758629 0.200757
C21   C     C_R   0.944872 0.506347 0.626959 -0.168999
C22   C     C_R   0.124991 0.475537 0.493625 -0.281141
C23   C     C_R   0.061007 0.521196 0.378816 0.582892
C24   C     C_R   0.935714 0.544963 0.384649 0.597486
C25   C     C_R   0.875075 0.532230 0.507319 -0.294272
C26   C     C_R   0.594646 0.067882 0.566310 -0.030021
C27   C     C_R   0.495822 0.128682 0.502996 -0.047199
C28   C     C_R   0.389128 0.061820 0.455664 -0.083798
F1    F     F_    0.118960 0.544565 0.260843 -0.557608
F2    F     F_    0.754740 0.132755 0.414054 -0.616208
F3    F     F_    0.547408 0.716972 0.863381 -0.578124
F4    F     F_    0.921878 0.497546 0.995455 -0.528019
F5    F     F_    0.874611 0.583308 0.270597 -0.534125
H1    H     H_    0.751698 0.895582 0.436849 0.240615
H2    H     H_    0.470971 0.197779 0.868753 0.270105
H3    H     H_    0.626533 0.282431 0.884754 0.213254
H4    H     H_    0.617114 0.272071 0.126009 0.190786
H5    H     H_    0.308055 0.110335 0.415692 0.196798
H6    H     H_    0.310637 0.877528 0.412956 0.174330
H7    H     H_    0.788980 0.896853 0.621921 0.241627
N1    N     N_R   0.499160 0.499140 0.142800 -0.189040
N2    N     N_R   0.499160 0.499180 0.857150 -0.183000
O1    O     O_R   0.500020 0.316790 0.614690 -0.612689
O2    O     O_R   0.500000 0.316760 0.385350 -0.596312
O3    O     O_R   0.316770 0.500020 0.614690 -0.606710
O4    O     O_R   0.316760 0.499980 0.385350 -0.549330
O5    O     O_R   0.500000 0.683240 0.614650 -0.535814
O6    O     O_R   0.499980 0.683210 0.385310 -0.597095
O7    O     O_R   0.683240 0.500020 0.614650 -0.599037
O8    O     O_R   0.683230 0.499980 0.385310 -0.544912
Zn1   Zn    Zn3+2 0.500010 0.500020 0.653130 1.055557
Zn2   Zn    Zn3+2 0.499990 0.499980 0.346870 1.090384

loop_
_geom_bond_atom_site_label_1
_geom_bond_atom_site_label_2
_ccdc_geom_bond_type
C6    H1    S    
O1    Zn1   S    
C16   O8    A    
C17   C18   A    
C11   N2    A    
C16   O7    A    
O3    Zn1   S    
C19   F4    S    
C3    C5    A    
C23   F1    S    
C7    C26   S    
C13   C14   S    
C13   H3    S    
C9    N1    A    
C10   F3    S    
C5    C6    S    
C4    O4    A    
C26   C27   A    
C10   N2    A    
C27   C28   A    
C28   H5    S    
Br3   C14   S    
Br6   C20   S    
C6    C7    S    
N1    Zn2   S    
C15   O5    A    
Br2   C9    S    
C1    C27   S    
C8    C11   A    
C3    C15   S    
C20   C21   A    
C23   C24   A    
Br5   C18   S    
O4    Zn2   S    
C12   C17   A    
C4    O3    A    
C22   C23   A    
C11   C13   S    
O8    Zn2   S    
C24   F5    S    
O7    Zn1   S    
C24   C25   A    
Br1   C7    S    
C16   C25   S    
C21   C25   A    
C9    C10   A    
O2    Zn2   S    
C8    C14   S    
N2    Zn1   S    
C14   H4    S    
C12   C22   A    
C18   C19   A    
C1    O1    A    
C7    F2    S    
C6    H7    S    
C15   O6    A    
O6    Zn2   S    
C4    C22   S    
Br4   C17   S    
O5    Zn1   S    
C2    H6    S    
C2    C28   A    
C19   C20   A    
C8    N1    A    
C12   C21   A    
C13   H2    S    
C1    O2    A    
C2    C3    A    
C5    C26   A    
