data_mof_unit_57698.cif
_audit_creation_date              2012-12-10T16:49:25-0500
_audit_creation_method            fapswitch 2.2
_symmetry_space_group_name_H-M    P1
_symmetry_Int_Tables_number       1
_space_group_crystal_system       triclinic
_cell_length_a                    19.31701
_cell_length_b                    8.689993
_cell_length_c                    7.620246
_cell_angle_alpha                 102.466395
_cell_angle_beta                  97.105087
_cell_angle_gamma                 95.186211
_cell_volume                      1230.3358958

loop_
_atom_site_label
_atom_site_type_symbol
_atom_type_description
_atom_site_fract_x
_atom_site_fract_y
_atom_site_fract_z
_atom_type_partial_charge
C1    C     C_R   0.497230 0.200268 0.453679 0.869329
C2    C     C_R   0.502771 0.799731 0.546321 0.869368
C3    C     C_2   0.494073 0.031767 0.428473 -0.372354
C4    C     C_2   0.505931 0.968233 0.571525 -0.372341
C5    C     C_R   0.367593 0.498314 0.497744 0.772507
C6    C     C_R   0.632407 0.501661 0.502251 0.772511
C7    C     C_R   0.263577 0.566060 0.647949 -0.198525
C8    C     C_R   0.736418 0.433853 0.352063 -0.198522
C9    C     C_R   0.191434 0.566194 0.642386 -0.190282
C10   C     C_R   0.808561 0.433766 0.357603 -0.190277
C11   C     C_R   0.145132 0.494345 0.482778 0.026770
C12   C     C_R   0.854863 0.505668 0.517192 0.026765
C13   C     C_R   0.172082 0.422723 0.323528 0.107765
C14   C     C_R   0.827910 0.577325 0.676432 0.107791
C15   C     C_R   0.245422 0.424585 0.332556 -0.194151
C16   C     C_R   0.754567 0.575464 0.667407 -0.194202
C17   C     C_R   0.291140 0.496340 0.492764 -0.051869
C18   C     C_R   0.708855 0.503637 0.507228 -0.051849
C19   C     C_R   0.930666 0.502288 0.511531 0.378750
C20   C     C_R   0.069328 0.497728 0.488449 0.378823
Cu1   Cu    Cu3+1 0.507710 0.517380 0.684380 0.926521
Cu2   Cu    Cu3+1 0.492290 0.482620 0.315620 0.926525
H1    H     H_    0.297842 0.622050 0.773451 0.156670
H2    H     H_    0.702152 0.377784 0.226601 0.156653
H3    H     H_    0.171521 0.621058 0.764720 0.154742
H4    H     H_    0.828474 0.378862 0.235282 0.154758
H5    H     H_    0.267674 0.368115 0.216358 0.141598
H6    H     H_    0.732313 0.631960 0.783596 0.141637
H7    H     H_    0.481170 0.959616 0.290890 0.164657
H8    H     H_    0.518836 0.040384 0.709108 0.164642
N1    N     N_R   0.022472 0.368310 0.408428 -0.260736
N2    N     N_R   0.977523 0.631707 0.591549 -0.260718
N3    N     N_R   0.954353 0.370837 0.418704 -0.237642
N4    N     N_R   0.045642 0.629180 0.581275 -0.237624
N5    N     N_2   0.480680 0.456420 0.038530 -0.074474
N6    N     N_2   0.519320 0.543580 0.961470 -0.074473
O1    O     O_R   0.505010 0.286130 0.619770 -0.608133
O2    O     O_R   0.494990 0.713870 0.380230 -0.608130
O3    O     O_R   0.491990 0.256780 0.308370 -0.588761
O4    O     O_R   0.508010 0.743220 0.691630 -0.588750
O5    O     O_R   0.406650 0.514660 0.655750 -0.601420
O6    O     O_R   0.593350 0.485340 0.344250 -0.601395
O7    O     O_R   0.393640 0.485310 0.344340 -0.576798
O8    O     O_R   0.606360 0.514690 0.655660 -0.576800
C21   C     C_3   0.122529 0.348637 0.147281 -0.395245
C22   C     C_3   0.157376 0.304101 0.975284 -0.401912
C23   C     C_3   0.102245 0.245180 0.806429 -0.775293
H9    H     H_    0.069519 0.136631 0.817074 0.258436
H10   H     H_    0.067776 0.338280 0.790304 0.259087
H11   H     H_    0.128722 0.216146 0.684141 0.248725
H12   H     H_    0.190726 0.409430 0.958244 0.226188
H13   H     H_    0.190567 0.207653 0.986557 0.224067
H14   H     H_    0.092253 0.239401 0.164715 0.220726
H15   H     H_    0.085095 0.434638 0.123614 0.208967
C24   C     C_3   0.877457 0.651377 0.852694 -0.395261
C25   C     C_3   0.842610 0.695922 0.024680 -0.401912
C26   C     C_3   0.897738 0.754678 0.193565 -0.775299
H16   H     H_    0.932123 0.661432 0.209703 0.259058
H17   H     H_    0.930557 0.863129 0.182979 0.258434
H18   H     H_    0.871256 0.783814 0.315805 0.248744
H19   H     H_    0.809462 0.792449 0.013455 0.224084
H20   H     H_    0.809215 0.590621 0.041644 0.226195
H21   H     H_    0.914874 0.565346 0.876347 0.208986
H22   H     H_    0.907749 0.760603 0.835289 0.220722
C27   C     C_3   0.440304 0.309647 0.929935 -0.033598
C28   C     C_3   0.370377 0.273701 0.994091 -0.871856
H23   H     H_    0.377253 0.233646 0.122643 0.271892
H24   H     H_    0.341620 0.379612 0.006461 0.248905
H25   H     H_    0.337615 0.175045 0.891623 0.201378
H26   H     H_    0.423204 0.316233 0.791701 0.215213
H27   H     H_    0.471716 0.209314 0.932818 0.150076
C29   C     C_3   0.559709 0.690343 0.070062 -0.033700
C30   C     C_3   0.629655 0.726202 0.005980 -0.871982
H28   H     H_    0.658392 0.620260 0.993743 0.248937
H29   H     H_    0.622806 0.766191 0.877391 0.271900
H30   H     H_    0.662420 0.824895 0.108380 0.201399
H31   H     H_    0.528331 0.790699 0.067083 0.150112
H32   H     H_    0.576782 0.683799 0.208310 0.215269

loop_
_geom_bond_atom_site_label_1
_geom_bond_atom_site_label_2
_ccdc_geom_bond_type
C16   H6    S    
C28   H24   S    
C24   C25   S    
C30   H28   S    
N5    N6    D    
C9    H3    S    
C23   H10   S    
Cu1   N6    S    
C21   C22   S    
Cu2   N5    S    
C26   H17   S    
C28   H25   S    
C5    C17   S    
N5    C27   S    
C27   H26   S    
Cu2   O2    S    
C22   H13   S    
C25   C26   S    
C7    C9    A    
C3    H7    S    
C29   H32   S    
C23   H9    S    
C7    C17   A    
C24   H21   S    
N1    N3    A    
C1    O1    A    
C20   N4    A    
C10   H4    S    
C14   C24   S    
C5    O7    A    
C21   H14   S    
C6    O8    A    
Cu1   Cu2   S    
C30   H29   S    
C19   N2    A    
C23   H11   S    
C6    C18   S    
C11   C20   S    
C19   N3    A    
C26   H18   S    
C27   H27   S    
C22   H12   S    
C8    C18   A    
C1    C3    S    
N2    N4    A    
C2    C4    S    
C29   H31   S    
Cu1   O8    S    
C2    O2    A    
C15   H5    S    
Cu2   O7    S    
C24   H22   S    
C9    C11   A    
C10   C12   A    
Cu1   O5    S    
C8    C10   A    
C12   C14   A    
C21   H15   S    
C13   C15   A    
C30   H30   S    
C25   H20   S    
C3    C4    D    
C15   C17   A    
C5    O5    A    
C22   C23   S    
C29   C30   S    
C13   C21   S    
C11   C13   A    
C26   H16   S    
Cu2   O6    S    
Cu1   O4    S    
C7    H1    S    
Cu2   O3    S    
C12   C19   S    
C8    H2    S    
C28   H23   S    
C14   C16   A    
C1    O3    A    
C2    O4    A    
Cu1   O1    S    
C16   C18   A    
C27   C28   S    
C6    O6    A    
C25   H19   S    
C4    H8    S    
N6    C29   S    
C20   N1    A    
