data_mof_unit_20883.cif
_audit_creation_date              2012-10-26T21:12:37-0400
_audit_creation_method            fapswitch 2.2
_symmetry_space_group_name_H-M    P1
_symmetry_Int_Tables_number       1
_space_group_crystal_system       triclinic
_cell_length_a                    23.50612
_cell_length_b                    10.856401
_cell_length_c                    9.59765
_cell_angle_alpha                 91.680054
_cell_angle_beta                  90.425242
_cell_angle_gamma                 93.131471
_cell_volume                      2444.43383466

loop_
_atom_site_label
_atom_site_type_symbol
_atom_type_description
_atom_site_fract_x
_atom_site_fract_y
_atom_site_fract_z
_atom_type_partial_charge
C1    C     C_R   0.503786 0.263221 0.498395 0.548301
C2    C     C_R   0.120587 0.578832 0.415678 0.405054
C3    C     C_R   0.239609 0.524107 0.621867 -0.047299
C4    C     C_R   0.391000 0.499813 0.499579 0.585358
C5    C     C_R   0.298924 0.523959 0.622626 -0.132756
C6    C     C_R   0.328368 0.500082 0.498694 0.015909
C7    C     C_R   0.297398 0.476192 0.374155 -0.116833
C8    C     C_R   0.238042 0.474658 0.373977 -0.049334
C9    C     C_R   0.208786 0.498838 0.497734 0.232077
C10   C     C_R   0.756291 0.394879 0.461968 -0.055143
C11   C     C_R   0.697168 0.397468 0.461587 -0.165994
C12   C     C_R   0.966252 0.335519 0.668235 -0.117783
C13   C     C_R   0.670828 0.505724 0.500638 -0.008206
C14   C     C_R   0.704294 0.614187 0.539295 0.025015
C15   C     C_R   0.763803 0.608827 0.542452 -0.048488
C16   C     C_R   0.495892 0.737530 0.502813 0.599990
C17   C     C_R   0.789897 0.500299 0.502819 0.203457
C18   C     C_R   0.559903 0.132635 0.720754 -0.080556
C19   C     C_R   0.566480 0.080791 0.850264 -0.112902
C20   C     C_R   0.539818 0.966633 0.875655 -0.096110
C21   C     C_R   0.511972 0.898521 0.767386 -0.074697
C22   C     C_R   0.510018 0.944284 0.630542 0.021504
C23   C     C_R   0.025589 0.334670 0.666631 -0.117739
C24   C     C_R   0.526641 0.069588 0.614626 0.024665
C25   C     C_R   0.507541 0.129505 0.496096 -0.037050
C26   C     C_R   0.481848 0.061293 0.384884 -0.142822
C27   C     C_R   0.473379 0.933669 0.389665 0.015762
C28   C     C_R   0.608660 0.501876 0.500352 0.566954
C29   C     C_R   0.490555 0.872617 0.510350 -0.010623
C30   C     C_R   0.578194 0.660636 0.150334 -0.066018
C31   C     C_R   0.617857 0.735107 0.080924 -0.159759
C32   C     C_R   0.618148 0.733653 0.937337 -0.163455
C33   C     C_R   0.578343 0.658784 0.862408 -0.087155
C34   C     C_R   0.057557 0.415483 0.581891 0.030396
C35   C     C_R   0.538462 0.578385 0.928523 0.124515
C36   C     C_R   0.538389 0.578828 0.078056 0.125150
C37   C     C_R   0.463811 0.423743 0.069465 0.326142
C38   C     C_R   0.463839 0.424503 0.921961 0.036432
C39   C     C_R   0.881214 0.576256 0.414766 0.405044
C40   C     C_R   0.877965 0.419496 0.584709 0.408341
C41   C     C_R   0.937593 0.416538 0.584329 0.030455
C42   C     C_R   0.969211 0.497286 0.498278 -0.027534
C43   C     C_R   0.940925 0.578197 0.412957 0.031371
C44   C     C_2   0.679365 0.735026 0.570772 0.539991
C45   C     C_R   0.029273 0.497268 0.497683 -0.027356
C46   C     C_2   0.441003 0.869154 0.272735 0.600878
C47   C     C_R   0.060904 0.579197 0.413050 0.030520
C48   C     C_R   0.032242 0.659734 0.328550 -0.117443
C49   C     C_R   0.972874 0.658890 0.328079 -0.117216
C50   C     C_R   0.117269 0.416580 0.578935 0.404991
Cl1   Cl    Cl    0.415592 0.318877 0.148255 -0.601833
Cu1   Cu    Cu3+1 0.500000 0.499990 0.640660 0.948625
Cu2   Cu    Cu3+1 0.500000 0.500010 0.359340 1.043226
H1    H     H_    0.942957 0.272388 0.735226 0.172969
H2    H     H_    0.580811 0.671749 0.260394 0.205797
H3    H     H_    0.648012 0.795901 0.139279 0.150378
H4    H     H_    0.648193 0.794105 0.883568 0.167388
H5    H     H_    0.579491 0.670053 0.753165 0.215524
H6    H     H_    0.434357 0.362632 0.863166 0.162093
H7    H     H_    0.055549 0.723504 0.262318 0.173682
H8    H     H_    0.952155 0.722065 0.261532 0.173186
H9    H     H_    0.217535 0.543983 0.717880 0.148208
H10   H     H_    0.321694 0.543462 0.719983 0.142366
H11   H     H_    0.318919 0.457535 0.277117 0.179882
H12   H     H_    0.671766 0.314635 0.430942 0.118329
H13   H     H_    0.214714 0.454407 0.277567 0.150258
H14   H     H_    0.776068 0.310950 0.429989 0.152634
H15   H     H_    0.690228 0.905810 0.659149 0.341404
H16   H     H_    0.381735 0.736455 0.211928 0.344951
H17   H     H_    0.790482 0.689991 0.572252 0.183807
H18   H     H_    0.465615 0.108447 0.296185 0.211584
H19   H     H_    0.580456 0.222724 0.705049 0.141280
H20   H     H_    0.590189 0.131470 0.932570 0.127298
H21   H     H_    0.541215 0.930063 0.979210 0.165238
H22   H     H_    0.489298 0.814437 0.796312 0.162761
H23   H     H_    0.046294 0.270896 0.732438 0.173210
N1    N     N_R   0.850999 0.498447 0.500629 -0.396362
N2    N     N_R   0.147573 0.497980 0.497344 -0.397745
N3    N     N_R   0.500540 0.501210 0.147910 -0.238415
N4    N     N_R   0.500560 0.501290 0.852040 -0.285225
O1    O     O_R   0.500000 0.319640 0.618810 -0.510037
O2    O     O_R   0.582120 0.500020 0.618760 -0.519107
O3    O     O_R   0.582120 0.500050 0.381190 -0.518762
O4    O     O_2   0.853515 0.650878 0.330566 -0.488854
O5    O     O_2   0.631755 0.755759 0.528488 -0.560194
O6    O     O_R   0.711427 0.827532 0.645405 -0.704742
O7    O     O_2   0.447902 0.902889 0.153266 -0.527762
O8    O     O_R   0.400992 0.772865 0.299822 -0.669343
O9    O     O_2   0.847216 0.345053 0.669481 -0.488487
O10   O     O_2   0.144809 0.336181 0.656048 -0.485052
O11   O     O_2   0.151435 0.659581 0.338386 -0.484799
O12   O     O_R   0.500000 0.319660 0.381240 -0.458980
O13   O     O_R   0.417880 0.499950 0.618810 -0.514244
O14   O     O_R   0.417880 0.499980 0.381240 -0.436302
O15   O     O_R   0.500000 0.680340 0.618760 -0.536576
O16   O     O_R   0.500000 0.680360 0.381190 -0.491262

loop_
_geom_bond_atom_site_label_1
_geom_bond_atom_site_label_2
_ccdc_geom_bond_type
C8    H13   S    
C33   H5    S    
C22   C29   A    
C27   C29   A    
H15   O6    S    
C41   C42   A    
C19   C20   A    
C23   H23   S    
C7    C8    A    
C10   H14   S    
C37   N3    A    
C12   C23   A    
C26   C27   A    
C37   C38   A    
C3    C9    A    
C39   N1    A    
Cu2   N3    S    
C39   O4    S    
C30   C31   A    
C37   Cl1   S    
C10   C17   A    
C1    O1    A    
C35   N4    A    
C5    H10   S    
Cu1   O15   S    
C18   C19   A    
C50   O10   S    
C31   C32   A    
C8    C9    A    
C13   C28   S    
C31   H3    S    
C13   C14   A    
Cu2   O16   S    
C1    C25   S    
C26   H18   S    
C2    O11   S    
C32   H4    S    
C44   O6    S    
C50   N2    A    
C48   H7    S    
C46   O8    S    
C45   C47   A    
C18   H19   S    
C34   C50   A    
C16   O16   A    
C28   O2    A    
C19   H20   S    
C49   H8    S    
C24   C25   A    
C4    C6    S    
C43   C49   A    
C39   C43   A    
C16   C29   S    
C38   H6    S    
C42   C45   A    
C12   C41   A    
C2    N2    A    
C47   C48   A    
C23   C34   A    
Cu2   O12   S    
C17   N1    S    
C20   H21   S    
Cu1   O13   S    
C34   C45   A    
Cu1   O2    S    
H16   O8    S    
C4    O14   A    
C27   C46   S    
C40   C41   A    
C1    O12   A    
C40   O9    S    
C18   C24   A    
C42   C43   A    
C44   O5    D    
Cu1   Cu2   S    
C14   C44   S    
C46   O7    D    
C3    H9    S    
C15   C17   A    
C15   H17   S    
C48   C49   A    
C16   O15   A    
Cu2   O14   S    
C14   C15   A    
C3    C5    A    
C36   N3    A    
C6    C7    A    
C2    C47   A    
C30   H2    S    
C21   H22   S    
C30   C36   A    
Cu2   O3    S    
C32   C33   A    
C25   C26   A    
Cu1   N4    S    
C11   C13   A    
C5    C6    A    
C38   N4    A    
C33   C35   A    
C22   C24   A    
C9    N2    S    
Cu1   O1    S    
C7    H11   S    
C10   C11   A    
C4    O13   A    
C20   C21   A    
C40   N1    A    
C35   C36   A    
C21   C22   A    
C12   H1    S    
C11   H12   S    
C28   O3    A    
