data_mof_unit_41278.cif
_audit_creation_date              2012-12-11T14:48:42-0500
_audit_creation_method            fapswitch 2.2
_symmetry_space_group_name_H-M    P1
_symmetry_Int_Tables_number       1
_space_group_crystal_system       triclinic
_cell_length_a                    7.22937
_cell_length_b                    19.018184
_cell_length_c                    19.082754
_cell_angle_alpha                 89.999949
_cell_angle_beta                  85.846735
_cell_angle_gamma                 89.999844
_cell_volume                      2616.78801147

loop_
_atom_site_label
_atom_site_type_symbol
_atom_type_description
_atom_site_fract_x
_atom_site_fract_y
_atom_site_fract_z
_atom_type_partial_charge
O1    O     O_R   0.350610 0.187000 0.656530 -0.537554
O2    O     O_R   0.649390 0.813000 0.343470 -0.537555
O3    O     O_R   0.149390 0.687000 0.343470 -0.537556
O4    O     O_R   0.850610 0.313000 0.656530 -0.537556
O5    O     O_R   0.655920 0.179060 0.799470 -0.530957
O6    O     O_R   0.344080 0.820940 0.200530 -0.530956
O7    O     O_R   0.844080 0.679060 0.200530 -0.530958
O8    O     O_R   0.155920 0.320940 0.799470 -0.530957
O9    O     O_R   0.826150 0.314000 0.799910 -0.530752
O10   O     O_R   0.173850 0.686000 0.200090 -0.530755
O11   O     O_R   0.673850 0.814000 0.200090 -0.530752
O12   O     O_R   0.326150 0.186000 0.799910 -0.530754
C1    C     C_R   0.483921 0.161603 0.822905 0.713320
C2    C     C_R   0.516079 0.838397 0.177095 0.713324
C3    C     C_R   0.016079 0.661603 0.177095 0.713320
C4    C     C_R   0.983921 0.338397 0.822905 0.713323
O13   O     O_R   0.680230 0.178680 0.657050 -0.538267
O14   O     O_R   0.319770 0.821320 0.342950 -0.538267
O15   O     O_R   0.819770 0.678680 0.342950 -0.538266
O16   O     O_R   0.180230 0.321320 0.657050 -0.538266
C5    C     C_R   0.517149 0.162128 0.633649 0.688651
C6    C     C_R   0.482851 0.837872 0.366350 0.688665
C7    C     C_R   0.982851 0.662130 0.366352 0.688650
C8    C     C_R   0.017149 0.337870 0.633648 0.688663
O17   O     O_3   0.504860 0.294770 0.728200 -0.373290
O18   O     O_3   0.495140 0.705230 0.271800 -0.373293
O19   O     O_3   0.995140 0.794770 0.271800 -0.373288
O20   O     O_3   0.004860 0.205230 0.728200 -0.373291
V1    V     V_3+5 0.779710 0.242290 0.728230 1.433210
V2    V     V_3+5 0.220290 0.757710 0.271770 1.433216
V3    V     V_3+5 0.720290 0.742290 0.271770 1.433215
V4    V     V_3+5 0.279710 0.257710 0.728230 1.433210
H1    H     H_    0.781437 0.444893 0.613541 0.141162
H2    H     H_    0.218574 0.555111 0.386460 0.141146
H3    H     H_    0.718535 0.944911 0.386443 0.141158
H4    H     H_    0.281426 0.055108 0.613542 0.141145
C9    C     C_1   0.032149 0.611286 0.119108 -0.156335
C10   C     C_1   0.967851 0.388714 0.880892 -0.156332
C11   C     C_1   0.467851 0.111286 0.880892 -0.156334
C12   C     C_1   0.532149 0.888714 0.119108 -0.156320
C13   C     C_2   0.067324 0.522913 0.008660 -0.081374
C14   C     C_2   0.932675 0.477087 0.991340 -0.081373
C15   C     C_2   0.432676 0.022913 0.991340 -0.081376
C16   C     C_2   0.567324 0.977087 0.008660 -0.081373
C17   C     C_1   0.954484 0.429556 0.930400 -0.009653
C18   C     C_1   0.045515 0.570444 0.069599 -0.009653
C19   C     C_1   0.545515 0.929556 0.069599 -0.009649
C20   C     C_1   0.454485 0.070444 0.930401 -0.009656
C21   C     C_R   0.027585 0.390866 0.576421 -0.070849
C22   C     C_R   0.972416 0.609132 0.423578 -0.070833
C23   C     C_R   0.472413 0.890868 0.423576 -0.070847
C24   C     C_R   0.527587 0.109130 0.576425 -0.070832
C25   C     C_R   0.798819 0.558855 0.526444 -0.002044
C26   C     C_R   0.201188 0.441142 0.473554 -0.002082
C27   C     C_R   0.701177 0.058853 0.473558 -0.002055
C28   C     C_R   0.298819 0.941139 0.526448 -0.002099
C29   C     C_R   0.822414 0.610737 0.474330 -0.187538
C30   C     C_R   0.177587 0.389260 0.525669 -0.187559
C31   C     C_R   0.677596 0.110732 0.525675 -0.187530
C32   C     C_R   0.322421 0.889257 0.474332 -0.187565
C33   C     C_R   0.101557 0.554506 0.425088 -0.257607
C34   C     C_R   0.898447 0.445493 0.574911 -0.257637
C35   C     C_R   0.398443 0.054503 0.574914 -0.257605
C36   C     C_R   0.601539 0.945501 0.425082 -0.257611
C37   C     C_R   0.076469 0.498873 0.474210 0.082206
C38   C     C_R   0.923533 0.501123 0.525786 0.082220
C39   C     C_R   0.423531 0.998871 0.525792 0.082201
C40   C     C_R   0.576460 0.001125 0.474213 0.082225
H5    H     H_    0.275765 0.346146 0.525822 0.123587
H6    H     H_    0.724236 0.653852 0.474180 0.123585
H7    H     H_    0.224252 0.846139 0.474182 0.123588
H8    H     H_    0.775784 0.153844 0.525826 0.123596
C41   C     C_1   0.759374 0.472705 0.033965 0.362854
N1    N     N_1   0.620765 0.469187 0.068158 -0.361605
C42   C     C_1   0.240626 0.527295 0.966034 0.362853
N2    N     N_1   0.379234 0.530813 0.931841 -0.361595
C43   C     C_1   0.740625 0.972704 0.966034 0.362855
N3    N     N_1   0.879233 0.969186 0.931841 -0.361603
C44   C     C_1   0.259374 0.027296 0.033966 0.362850
N4    N     N_1   0.120767 0.030814 0.068159 -0.361583
C45   C     C_R   0.643469 0.567606 0.581020 0.079173
C46   C     C_R   0.678243 0.572605 0.652397 -0.145805
C47   C     C_R   0.531558 0.581653 0.703508 -0.100582
C48   C     C_R   0.349729 0.587041 0.683732 -0.094675
C49   C     C_R   0.314426 0.583802 0.612797 -0.107442
C50   C     C_R   0.460551 0.574276 0.561558 -0.129901
H9    H     H_    0.818756 0.569339 0.668368 0.106403
H10   H     H_    0.558954 0.584805 0.758432 0.131164
H11   H     H_    0.236350 0.594250 0.723318 0.111182
H12   H     H_    0.173901 0.589034 0.597570 0.121926
H13   H     H_    0.431532 0.572051 0.506757 0.121407
C51   C     C_R   0.356567 0.432395 0.418987 0.079211
C52   C     C_R   0.539469 0.425663 0.438474 -0.129907
C53   C     C_R   0.685625 0.416122 0.387249 -0.107431
C54   C     C_R   0.650371 0.412937 0.316302 -0.094649
C55   C     C_R   0.468556 0.418388 0.296499 -0.100582
C56   C     C_R   0.321839 0.427444 0.347597 -0.145825
H14   H     H_    0.568455 0.427849 0.493284 0.121379
H15   H     H_    0.826135 0.410831 0.402498 0.121925
H16   H     H_    0.763773 0.405716 0.276727 0.111164
H17   H     H_    0.441194 0.415273 0.241565 0.131167
H18   H     H_    0.181337 0.430752 0.331607 0.106402
C57   C     C_R   0.856506 0.067610 0.418976 0.079176
C58   C     C_R   0.821679 0.072655 0.347602 -0.145797
C59   C     C_R   0.968341 0.081740 0.296486 -0.100559
C60   C     C_R   0.150203 0.087105 0.316256 -0.094650
C61   C     C_R   0.185560 0.083808 0.387189 -0.107446
C62   C     C_R   0.039454 0.074256 0.438434 -0.129901
H19   H     H_    0.681139 0.069409 0.331639 0.106390
H20   H     H_    0.940900 0.084947 0.241565 0.131134
H21   H     H_    0.263564 0.094345 0.276667 0.111178
H22   H     H_    0.326109 0.089027 0.402413 0.121905
H23   H     H_    0.068506 0.071994 0.493234 0.121411
C63   C     C_R   0.143452 0.932386 0.581018 0.079210
C64   C     C_R   0.960547 0.925651 0.561538 -0.129923
C65   C     C_R   0.814406 0.916104 0.612767 -0.107433
C66   C     C_R   0.849677 0.912917 0.683711 -0.094644
C67   C     C_R   0.031494 0.918373 0.703508 -0.100582
C68   C     C_R   0.178197 0.927434 0.652406 -0.145816
H24   H     H_    0.931547 0.927839 0.506730 0.121377
H25   H     H_    0.673894 0.910809 0.597523 0.121918
H26   H     H_    0.736286 0.905692 0.723289 0.111172
H27   H     H_    0.058869 0.915257 0.758440 0.131168
H28   H     H_    0.318702 0.930745 0.668392 0.106405

loop_
_geom_bond_atom_site_label_1
_geom_bond_atom_site_label_2
_ccdc_geom_bond_type
C12   C19   T    
C59   H20   S    
O1    C5    A    
C52   C53   A    
C27   C31   A    
O13   V1    S    
C13   C14   D    
O3    C7    A    
C54   C55   A    
C42   N2    T    
O15   V3    S    
C45   C46   A    
C26   C37   A    
C43   N3    T    
C36   C40   A    
O20   V1    S    
O9    C4    A    
C50   H13   S    
C26   C30   A    
C58   H19   S    
O4    C8    A    
O11   C2    A    
C13   C42   S    
C60   C61   A    
C15   C44   S    
C64   C65   A    
C27   C57   S    
C65   C66   A    
C25   C45   S    
C41   N1    T    
C67   C68   A    
C3    C9    S    
C10   C17   T    
O16   C8    A    
H1    C34   S    
O2    C6    A    
C13   C18   S    
C57   C62   A    
O14   V2    S    
C29   H6    S    
H4    C35   S    
C15   C20   S    
O5    C1    A    
C56   H18   S    
C16   C19   S    
O9    V1    S    
C31   H8    S    
O17   V4    S    
O7    C3    A    
C47   H10   S    
O11   V3    S    
O18   V3    S    
O8    C4    A    
C68   H28   S    
C55   H17   S    
O12   V4    S    
O19   V2    S    
C58   C59   A    
C51   C56   A    
C27   C40   A    
O5    V1    S    
C60   H21   S    
C35   C39   A    
O7    V3    S    
C65   H25   S    
C34   C38   A    
C39   C40   A    
O8    V4    S    
C48   C49   A    
C25   C29   A    
C54   H16   S    
C7    C22   S    
C32   H7    S    
C49   C50   A    
H2    C33   S    
O13   C5    A    
C21   C30   A    
C28   C32   A    
O2    V3    S    
C14   C17   S    
C62   H23   S    
O3    V2    S    
O15   C7    A    
C66   H26   S    
C26   C51   S    
C24   C31   A    
O6    C2    A    
O10   V2    S    
C47   C48   A    
C61   C62   A    
C55   C56   A    
C61   H22   S    
C25   C38   A    
H3    C36   S    
O6    V2    S    
C37   C38   A    
C15   C16   D    
C48   H11   S    
O16   V4    S    
C8    C21   S    
C16   C43   S    
C14   C41   S    
C21   C34   A    
O14   C6    A    
C22   C29   A    
C23   C36   A    
C45   C50   A    
C24   C35   A    
O4    V1    S    
C49   H12   S    
C64   H24   S    
C30   H5    S    
C63   C64   A    
C28   C39   A    
C59   C60   A    
O10   C3    A    
C66   C67   A    
C63   C68   A    
C53   H15   S    
C51   C52   A    
C67   H27   S    
O1    V4    S    
C53   C54   A    
C1    C11   S    
C2    C12   S    
C44   N4    T    
C33   C37   A    
O12   C1    A    
C46   C47   A    
C57   C58   A    
C22   C33   A    
C28   C63   S    
C6    C23   S    
C23   C32   A    
C9    C18   T    
C52   H14   S    
C5    C24   S    
C46   H9    S    
C4    C10   S    
C11   C20   T    
