data_mof_unit_37609.cif
_audit_creation_date              2012-12-11T17:39:31-0500
_audit_creation_method            fapswitch 2.2
_symmetry_space_group_name_H-M    P1
_symmetry_Int_Tables_number       1
_space_group_crystal_system       triclinic
_cell_length_a                    14.851155
_cell_length_b                    15.104306
_cell_length_c                    14.894658
_cell_angle_alpha                 109.292844
_cell_angle_beta                  108.840179
_cell_angle_gamma                 110.372118
_cell_volume                      2568.72010254

loop_
_atom_site_label
_atom_site_type_symbol
_atom_type_description
_atom_site_fract_x
_atom_site_fract_y
_atom_site_fract_z
_atom_type_partial_charge
C1    C     C_R   0.908064 0.911178 0.713404 -0.131953
C2    C     C_R   0.908532 0.685113 0.443496 -0.062310
C3    C     C_R   0.701856 0.787575 0.196704 -0.107446
C4    C     C_R   0.093554 0.298792 0.496968 -0.159583
C5    C     C_R   0.307001 0.013103 0.602450 -0.136807
C6    C     C_R   0.643177 0.689813 0.190316 0.149071
C7    C     C_R   0.375049 0.082242 0.580444 0.068891
C8    C     C_R   0.002830 0.677758 0.463286 0.055798
C9    C     C_R   0.005063 0.943236 0.179753 0.055095
C10   C     C_R   0.536960 0.760623 0.605748 -0.124313
C11   C     C_R   0.532757 0.844775 0.588371 -0.151454
C12   C     C_R   0.003332 0.302293 0.439684 0.064528
C13   C     C_R   0.610955 0.953879 0.669919 0.105344
C14   C     C_R   0.690099 0.978167 0.770634 -0.172151
C15   C     C_R   0.694482 0.893722 0.787289 -0.149488
C16   C     C_R   0.246396 0.220759 0.812706 -0.158036
C17   C     C_R   0.618471 0.785005 0.704585 -0.120379
C18   C     C_R   0.536103 0.071557 0.672949 -0.229714
C19   C     C_R   0.494338 0.122236 0.622592 0.042521
C20   C     C_R   0.556606 0.182216 0.587277 0.033591
C21   C     C_R   0.637741 0.161840 0.573781 -0.230863
C22   C     C_R   0.654404 0.081872 0.592313 0.063992
C23   C     C_R   0.271087 0.322102 0.822845 0.131865
C24   C     C_R   0.607436 0.041832 0.649825 0.027379
C25   C     C_R   0.532698 0.268677 0.469830 -0.171003
C26   C     C_R   0.515948 0.347173 0.449364 -0.091305
C27   C     C_R   0.506744 0.423776 0.524028 -0.101178
C28   C     C_R   0.743416 0.058175 0.470019 -0.123991
C29   C     C_R   0.514355 0.422112 0.619360 -0.111913
C30   C     C_R   0.531600 0.344118 0.640547 -0.135009
C31   C     C_R   0.540226 0.266109 0.565523 0.109093
C32   C     C_R   0.816470 0.119990 0.089139 -0.120049
C33   C     C_R   0.891567 0.219211 0.186814 -0.139484
C34   C     C_R   0.713449 0.038497 0.544736 0.056639
C35   C     C_R   0.854911 0.286027 0.234680 0.120486
C36   C     C_R   0.742097 0.252597 0.181585 -0.168965
C37   C     C_R   0.667347 0.153455 0.083593 -0.115713
C38   C     C_R   0.704429 0.087037 0.037690 -0.103093
C39   C     C_R   0.934477 0.485021 0.352107 -0.269940
C40   C     C_R   0.247007 0.312215 0.720957 -0.119748
C41   C     C_R   0.009318 0.582699 0.451628 0.101878
C42   C     C_R   0.087477 0.587925 0.541136 0.097999
C43   C     C_R   0.088292 0.494626 0.528626 -0.244312
C44   C     C_R   0.010212 0.395937 0.432027 0.057098
C45   C     C_R   0.702760 0.694673 0.286171 -0.170515
C46   C     C_R   0.933992 0.389606 0.340738 0.027131
C47   C     C_R   0.278757 0.736004 0.690137 -0.281758
C48   C     C_R   0.352979 0.828994 0.793160 -0.098852
C49   C     C_R   0.314103 0.871830 0.859925 -0.143040
C50   C     C_R   0.200865 0.821554 0.824087 -0.299651
C51   C     C_R   0.124806 0.728057 0.719844 0.576824
C52   C     C_R   0.746891 0.967743 0.562380 -0.135811
C53   C     C_R   0.164423 0.685881 0.652057 0.019418
C54   C     C_2   0.364771 0.519444 0.933462 -0.122105
C55   C     C_2   0.320733 0.421370 0.925216 -0.192621
C56   C     C_R   0.307932 0.102492 0.510972 -0.155374
C57   C     C_2   0.462457 0.614162 0.034925 -0.118901
C58   C     C_2   0.533117 0.601052 0.104922 -0.207055
C59   C     C_R   0.396744 0.216866 0.114463 -0.115036
C60   C     C_R   0.306708 0.113966 0.071285 -0.190184
C61   C     C_R   0.199729 0.098324 0.037402 0.116738
C62   C     C_R   0.184487 0.187384 0.049555 -0.124673
C63   C     C_R   0.275039 0.290566 0.094833 -0.138776
C64   C     C_R   0.909825 0.210474 0.408837 -0.117972
C65   C     C_R   0.381007 0.305235 0.126726 -0.118877
C66   C     C_R   0.110247 0.970381 0.086339 -0.225654
C67   C     C_R   0.093507 0.780893 0.527144 -0.141250
C68   C     C_R   0.012514 0.904262 0.079525 0.053622
C69   C     C_R   0.917832 0.828348 0.975988 0.018907
C70   C     C_R   0.916067 0.840231 0.885963 -0.257620
C71   C     C_R   0.007219 0.927522 0.900730 0.046290
C72   C     C_R   0.106159 0.992751 0.003213 0.008765
C73   C     C_R   0.845779 0.661644 0.992330 -0.118744
C74   C     C_R   0.759575 0.572816 0.979740 -0.112768
C75   C     C_R   0.652604 0.555902 0.936684 -0.077339
C76   C     C_R   0.090797 0.000402 0.800400 -0.131326
C77   C     C_R   0.631917 0.628240 0.906938 -0.109913
C78   C     C_R   0.911543 0.933294 0.188071 -0.127177
C79   C     C_R   0.717794 0.716757 0.918966 -0.208944
C80   C     C_R   0.825355 0.733917 0.961075 0.133294
C81   C     C_R   0.000968 0.949051 0.810393 0.051856
C82   C     C_R   0.095092 0.021309 0.282824 -0.125513
H1    H     H_    0.824052 0.852200 0.685086 0.109931
H2    H     H_    0.477793 0.676573 0.542240 0.104285
H3    H     H_    0.470052 0.825287 0.511019 0.116885
H4    H     H_    0.178796 0.352019 0.522545 0.095123
H5    H     H_    0.749849 0.062015 0.834575 0.127314
H6    H     H_    0.758050 0.913224 0.863783 0.116140
H7    H     H_    0.499347 0.037146 0.713917 0.124759
H8    H     H_    0.683491 0.204637 0.543439 0.128427
H9    H     H_    0.537972 0.208962 0.410218 0.108811
H10   H     H_    0.509596 0.348286 0.375317 0.115502
H11   H     H_    0.493452 0.484282 0.507905 0.096797
H12   H     H_    0.333242 0.160743 0.484833 0.118411
H13   H     H_    0.506394 0.481049 0.676549 0.109401
H14   H     H_    0.537291 0.343882 0.714809 0.113767
H15   H     H_    0.646328 0.010049 0.962309 0.106547
H16   H     H_    0.256119 0.200765 0.877072 0.128685
H17   H     H_    0.845255 0.068626 0.053577 0.108478
H18   H     H_    0.978161 0.243619 0.225414 0.112484
H19   H     H_    0.711660 0.302222 0.216968 0.105974
H20   H     H_    0.580505 0.127768 0.043611 0.100148
H21   H     H_    0.876698 0.483601 0.284002 0.128046
H22   H     H_    0.144839 0.498000 0.599301 0.131943
H23   H     H_    0.179496 0.804809 0.557161 0.113302
H24   H     H_    0.310109 0.703885 0.639024 0.145656
H25   H     H_    0.440734 0.867855 0.821180 0.120837
H26   H     H_    0.371952 0.943813 0.939823 0.117104
H27   H     H_    0.172520 0.855328 0.877602 0.127715
H28   H     H_    0.730134 0.108799 0.436638 0.092722
H29   H     H_    0.342789 0.528511 0.861526 0.117818
H30   H     H_    0.337524 0.414030 0.997878 0.134951
H31   H     H_    0.484546 0.693921 0.042989 0.122772
H32   H     H_    0.514434 0.521687 0.096299 0.125485
H33   H     H_    0.451013 0.385207 0.161743 0.094429
H34   H     H_    0.826985 0.884079 0.123203 0.111391
H35   H     H_    0.478940 0.228490 0.140135 0.101072
H36   H     H_    0.320220 0.046776 0.065328 0.110210
H37   H     H_    0.103068 0.177366 0.026791 0.111314
H38   H     H_    0.263070 0.359304 0.105921 0.113661
H39   H     H_    0.255972 0.375015 0.699362 0.089135
H40   H     H_    0.186808 0.022430 0.163273 0.127006
H41   H     H_    0.843196 0.783455 0.805995 0.136847
H42   H     H_    0.928333 0.673837 0.025918 0.109365
H43   H     H_    0.775750 0.517176 0.003492 0.109687
H44   H     H_    0.585933 0.487282 0.927120 0.107985
H45   H     H_    0.181141 0.049795 0.308752 0.099557
H46   H     H_    0.549430 0.616161 0.875150 0.105652
H47   H     H_    0.701338 0.774334 0.900267 0.107854
H48   H     H_    0.743204 0.936841 0.616565 0.133791
H49   H     H_    0.824965 0.183251 0.355061 0.103462
H50   H     H_    0.174147 0.019361 0.847079 0.111655
H51   H     H_    0.673168 0.638188 0.313462 0.093900
H52   H     H_    0.998963 0.717661 0.739320 0.314185
H53   H     H_    0.823898 0.619160 0.399786 0.089002
H54   H     H_    0.672781 0.815981 0.141951 0.085218
H55   H     H_    0.331873 0.990853 0.664115 0.096887
H56   H     H_    0.622639 0.719260 0.716114 0.108932
N1    N     N_R   0.941940 0.944580 0.650780 -0.041216
N2    N     N_R   0.204460 0.150250 0.707090 -0.042447
N3    N     N_R   0.794270 0.003240 0.446420 -0.041952
N4    N     N_R   0.204920 0.207570 0.650770 -0.043169
N5    N     N_R   0.793810 0.945920 0.502740 -0.043662
N6    N     N_R   0.943620 0.152590 0.446420 -0.040830
N7    N     N_R   0.055110 0.000900 0.707100 -0.039382
N8    N     N_R   0.795080 0.792430 0.349230 -0.042473
N9    N     N_R   0.206190 0.054080 0.497260 -0.041406
N10   N     N_R   0.056380 0.847410 0.553580 -0.039111
N11   N     N_R   0.944890 0.999100 0.292900 -0.042511
N12   N     N_R   0.058060 0.055420 0.349220 -0.041867
N13   N     N_R   0.943200 0.791100 0.497260 -0.042443
N14   N     N_R   0.795540 0.849750 0.292910 -0.045746
N15   N     N_R   0.205730 0.996760 0.553580 -0.040625
N16   N     N_R   0.056800 0.208900 0.502740 -0.036443
Ni1   Ni    Ni4+2 0.869690 0.869690 0.500000 0.218674
Ni2   Ni    Ni4+2 0.130310 0.130310 0.500000 0.210830
Ni3   Ni    Ni4+2 0.129250 0.998840 0.629170 0.217005
Ni4   Ni    Ni4+2 0.870750 0.001160 0.370830 0.213476
O1    O     O_3   0.012579 0.676920 0.682751 -0.769581

loop_
_geom_bond_atom_site_label_1
_geom_bond_atom_site_label_2
_ccdc_geom_bond_type
C25   C31   A    
C66   C68   A    
C63   C65   A    
C6    C45   A    
C40   N4    A    
C55   H30   S    
C27   C29   A    
C76   H50   S    
C41   C42   A    
C6    C58   S    
C4    N16   A    
C35   C36   A    
N10   N13   A    
C3    C6    A    
C39   C41   A    
C56   H12   S    
C40   H39   S    
C3    N14   A    
C37   C38   A    
C18   C24   A    
C36   C37   A    
N2    N4    A    
C14   H5    S    
C18   C19   A    
N3    N5    A    
C42   C53   S    
C37   H20   S    
C12   C64   A    
C48   H25   S    
C4    H4    S    
C10   C17   A    
C1    C81   A    
C23   C40   A    
C79   H47   S    
C3    H54   S    
C73   C74   A    
C51   O1    S    
C43   H22   S    
C30   H14   S    
C70   H41   S    
C66   C72   A    
N8    Ni1   S    
C19   C20   A    
C68   C69   A    
C66   H40   S    
C60   H36   S    
C17   H56   S    
C32   C38   A    
C4    C12   A    
C29   C30   A    
N11   Ni4   S    
N16   Ni2   S    
C61   C62   A    
C1    N1    A    
C9    C82   A    
C47   C53   A    
C73   H42   S    
H52   O1    S    
C28   C34   A    
C59   C60   A    
C59   H35   S    
N12   Ni2   S    
C13   C14   A    
N15   Ni3   S    
C65   H33   S    
C16   N2    A    
C7    C56   A    
C38   H15   S    
C44   C46   A    
C49   H26   S    
C21   H8    S    
C77   C79   A    
C22   C34   S    
N14   Ni4   S    
C25   H9    S    
C52   N5    A    
C74   C75   A    
C45   N8    A    
C8    C41   S    
C29   H13   S    
C67   H23   S    
C57   H31   S    
C64   N6    A    
C28   H28   S    
C25   C26   A    
C50   H27   S    
C13   C24   S    
C36   H19   S    
C51   C53   A    
C43   C44   A    
C62   C63   A    
N2    Ni3   S    
N7    Ni3   S    
N5    Ni1   S    
C47   C48   A    
C64   H49   S    
N1    Ni1   S    
C47   H24   S    
C50   C51   A    
C26   C27   A    
C5    H55   S    
N9    Ni2   S    
C75   C77   A    
C62   H37   S    
C82   N12   A    
C77   H46   S    
C39   C46   A    
N8    N14   A    
C61   C72   S    
C48   C49   A    
C76   N7    A    
C16   C23   A    
N13   Ni1   S    
C22   C24   A    
C27   H11   S    
C42   C43   A    
N6    Ni4   S    
C70   C71   A    
C5    C7    A    
C2    N13   A    
C15   C17   A    
C54   C55   D    
N1    N7    A    
C18   H7    S    
C34   C52   A    
C78   H34   S    
C76   C81   A    
C39   H21   S    
C23   C55   S    
C45   H51   S    
C1    H1    S    
C7    C19   S    
C2    H53   S    
C32   H17   S    
C33   H18   S    
C52   H48   S    
C32   C33   A    
C75   H44   S    
C56   N9    A    
C9    C68   S    
C71   C72   A    
C12   C44   S    
N11   N12   A    
C59   C65   A    
C63   H38   S    
C11   C13   A    
C16   H16   S    
C57   C58   D    
C30   C31   A    
C11   H3    S    
C5    N15   A    
C10   H2    S    
C33   C35   A    
C73   C80   A    
C54   H29   S    
N10   Ni3   S    
N6    N16   A    
C69   C70   A    
N9    N15   A    
C82   H45   S    
C10   C11   A    
C79   C80   A    
C74   H43   S    
N3    Ni4   S    
C20   C21   A    
C8    C67   A    
C49   C50   A    
C9    C78   A    
C2    C8    A    
C67   N10   A    
C58   H32   S    
C14   C15   A    
C60   C61   A    
C69   C80   S    
C28   N3    A    
N4    Ni2   S    
C21   C22   A    
C35   C46   S    
C26   H10   S    
C54   C57   S    
C78   N11   A    
C15   H6    S    
C71   C81   S    
C20   C31   S    
