data_mof_unit_34392.cif
_audit_creation_date              2012-12-10T16:45:22-0500
_audit_creation_method            fapswitch 2.2
_symmetry_space_group_name_H-M    P1
_symmetry_Int_Tables_number       1
_space_group_crystal_system       triclinic
_cell_length_a                    7.51254
_cell_length_b                    8.674251
_cell_length_c                    15.698515
_cell_angle_alpha                 95.037751
_cell_angle_beta                  75.239243
_cell_angle_gamma                 103.658276
_cell_volume                      960.852267459

loop_
_atom_site_label
_atom_site_type_symbol
_atom_type_description
_atom_site_fract_x
_atom_site_fract_y
_atom_site_fract_z
_atom_type_partial_charge
C1    C     C_R   0.545414 0.800105 0.502617 0.831105
C2    C     C_R   0.454702 0.199885 0.497205 0.875954
C3    C     C_R   0.313430 0.376464 0.075868 -0.156838
C4    C     C_R   0.730146 0.573782 0.911533 -0.194633
C5    C     C_R   0.188931 0.310947 0.023424 0.445033
C6    C     C_R   0.865029 0.617038 0.960906 0.434960
C7    C     C_2   0.570435 0.968615 0.503699 -0.347930
C8    C     C_2   0.429885 0.031331 0.495777 -0.356178
C9    C     C_R   0.384611 0.489274 0.666404 0.824043
C10   C     C_R   0.616605 0.522552 0.333820 0.818018
C11   C     C_R   0.312486 0.466821 0.762048 -0.156393
C12   C     C_R   0.688957 0.554258 0.237742 -0.225397
C13   C     C_R   0.091005 0.316391 0.884632 0.316583
C14   C     C_R   0.946273 0.622650 0.105330 0.401884
C15   C     C_R   0.144589 0.354046 0.794334 0.277270
C16   C     C_R   0.883528 0.600536 0.197520 0.278366
C17   C     C_R   0.424149 0.542655 0.819891 0.195801
C18   C     C_R   0.560071 0.548229 0.185740 0.112397
C19   C     C_R   0.398181 0.473054 0.901808 -0.013696
C20   C     C_R   0.619542 0.537193 0.093617 -0.033242
C21   C     C_R   0.224918 0.364239 0.936470 -0.042701
C22   C     C_R   0.812816 0.592855 0.052946 -0.061626
C23   C     C_R   0.538620 0.511717 0.951037 -0.004714
C24   C     C_R   0.487665 0.479699 0.041425 0.038327
Cu1   Cu    Cu3+1 0.322120 0.483240 0.490330 1.050983
Cu2   Cu    Cu3+1 0.677880 0.516760 0.509670 1.039126
H1    H     H_    0.279935 0.333042 0.141873 0.162244
H2    H     H_    0.780191 0.584886 0.840950 0.211717
H3    H     H_    0.705280 0.041266 0.511109 0.196957
H4    H     H_    0.295079 0.958669 0.488310 0.187459
N1    N     N_2   0.945180 0.542040 0.524240 0.145193
N2    N     N_2   0.054820 0.457960 0.475760 0.144262
O1    O     O_R   0.384450 0.714270 0.493720 -0.551490
O2    O     O_R   0.615550 0.285730 0.506280 -0.534069
O3    O     O_R   0.684880 0.742590 0.510050 -0.617286
O4    O     O_R   0.315120 0.257410 0.489950 -0.596184
O5    O     O_R   0.265540 0.477900 0.617090 -0.471433
O6    O     O_R   0.734460 0.522100 0.382910 -0.518359
O7    O     O_R   0.565970 0.506210 0.633420 -0.621888
O8    O     O_R   0.434030 0.493790 0.366580 -0.612125
O9    O     O_3   0.036023 0.193416 0.059440 -0.696496
H5    H     H_    0.027755 0.105537 0.014771 0.345805
O10   O     O_3   0.044533 0.688636 0.916962 -0.713100
H6    H     H_    0.078512 0.790943 0.948814 0.342038
N3    N     N_2   0.388992 0.599424 0.222245 -0.391159
H7    H     H_    0.277789 0.516407 0.256454 0.312423
C25   C     C_3   0.408538 0.761170 0.258467 -0.555394
H8    H     H_    0.338567 0.760572 0.329870 0.232532
H9    H     H_    0.340991 0.829489 0.224540 0.231254
H10   H     H_    0.558808 0.824726 0.249648 0.196005
N4    N     N_2   0.552202 0.693278 0.798748 -0.442470
H11   H     H_    0.594586 0.723347 0.733623 0.253389
C26   C     C_3   0.504269 0.826740 0.854645 -0.598814
H12   H     H_    0.626378 0.929974 0.842002 0.212777
H13   H     H_    0.470200 0.799602 0.925535 0.268457
H14   H     H_    0.382467 0.860160 0.839134 0.236362
O11   O     O_3   0.013266 0.637370 0.247853 -0.734751
H15   H     H_    0.971254 0.715735 0.293943 0.328920
O12   O     O_3   0.037836 0.279901 0.736342 -0.711696
H16   H     H_    0.963297 0.175452 0.759566 0.321685
O13   O     O_3   0.909556 0.236366 0.923072 -0.733111
H17   H     H_    0.822328 0.253374 0.888731 0.328637
O14   O     O_3   0.136088 0.670189 0.065065 -0.737344
H18   H     H_    0.212320 0.690235 0.109235 0.373007
O15   O     O_3   0.014728 0.634813 0.586251 -0.596017
H19   H     H_    0.912690 0.688267 0.617481 0.328411
O16   O     O_3   0.985263 0.365153 0.413766 -0.596605
H20   H     H_    0.087215 0.311518 0.382635 0.323755

loop_
_geom_bond_atom_site_label_1
_geom_bond_atom_site_label_2
_ccdc_geom_bond_type
C19   C23   A    
O10   H6    S    
C7    H3    S    
Cu2   O6    S    
O9    H5    S    
C26   H13   S    
C25   H8    S    
C13   C15   A    
C10   O6    A    
C8    H4    S    
C17   N4    S    
Cu1   N2    S    
C9    O5    A    
O11   H15   S    
C13   C21   A    
O12   H16   S    
C25   H9    S    
Cu1   Cu2   S    
C1    C7    S    
C26   H12   S    
C9    C11   S    
C14   C22   A    
C3    C24   A    
C10   C12   S    
N2    O16   S    
C14   O14   S    
C2    C8    S    
C3    H1    S    
O16   H20   S    
C19   C21   A    
C20   C22   A    
C25   H10   S    
C18   C20   A    
C16   O11   S    
N3    C25   S    
Cu1   O8    S    
Cu2   N1    S    
O13   H17   S    
C20   C24   A    
C14   C16   A    
Cu2   O7    S    
C7    C8    D    
Cu1   O4    S    
C1    O1    A    
N4    H11   S    
C6    C22   A    
C18   N3    S    
C12   C16   A    
Cu2   O3    S    
C9    O7    A    
C13   O13   S    
N4    C26   S    
C1    O3    A    
C4    C6    A    
O15   H19   S    
C4    H2    S    
C26   H14   S    
C2    O4    A    
N1    O15   S    
C4    C23   A    
C5    O9    S    
C6    O10   S    
C17   C19   A    
C10   O8    A    
C15   O12   S    
C23   C24   A    
Cu1   O5    S    
C2    O2    A    
N3    H7    S    
C11   C15   A    
Cu2   O2    S    
C11   C17   A    
N1    N2    D    
Cu1   O1    S    
O14   H18   S    
C3    C5    A    
C5    C21   A    
C12   C18   A    
