data_mof_unit_61821.cif
_audit_creation_date              2012-12-11T17:24:13-0500
_audit_creation_method            fapswitch 2.2
_symmetry_space_group_name_H-M    P1
_symmetry_Int_Tables_number       1
_space_group_crystal_system       triclinic
_cell_length_a                    19.934411
_cell_length_b                    19.990188
_cell_length_c                    19.810821
_cell_angle_alpha                 110.729312
_cell_angle_beta                  107.292525
_cell_angle_gamma                 110.549343
_cell_volume                      6060.18534287

loop_
_atom_site_label
_atom_site_type_symbol
_atom_type_description
_atom_site_fract_x
_atom_site_fract_y
_atom_site_fract_z
_atom_type_partial_charge
C1    C     C_R   0.995822 0.725530 0.067984 -0.151911
C2    C     C_R   0.015001 0.281147 0.943937 -0.185490
C3    C     C_R   0.755650 0.272466 0.756347 -0.094611
C4    C     C_R   0.226891 0.776864 0.228710 -0.102919
C5    C     C_R   0.043889 0.500890 0.769405 0.024274
C6    C     C_R   0.024603 0.502000 0.244337 0.020705
C7    C     C_R   0.771759 0.501657 0.047549 -0.069039
C8    C     C_R   0.243599 0.499149 0.013112 -0.055917
C9    C     C_3   0.462082 0.423142 0.044777 0.570156
C10   C     C_3   0.584663 0.579857 0.132884 0.568985
C11   C     C_3   0.516139 0.464689 0.013787 -0.269082
C12   C     C_3   0.530078 0.538493 0.164328 -0.252051
C13   C     C_1   0.714735 0.503287 0.075449 0.098789
C14   C     C_1   0.317097 0.498666 0.040798 0.084187
C15   C     C_3   0.537661 0.459945 0.127268 -0.229881
C16   C     C_3   0.509625 0.542742 0.050640 -0.251952
C17   C     C_3   0.591398 0.502710 0.096503 -0.048318
C18   C     C_3   0.455427 0.500321 0.081155 -0.046521
C19   C     C_1   0.661969 0.503542 0.091529 0.127550
C20   C     C_1   0.379621 0.499095 0.062578 0.115480
C21   C     C_R   0.471157 0.050752 0.396596 0.374046
C22   C     C_R   0.468667 0.116156 0.546548 0.372285
C23   C     C_R   0.832604 0.296277 0.763604 0.479621
C24   C     C_R   0.155405 0.730038 0.225710 0.430455
C25   C     C_R   0.398617 0.016335 0.400380 -0.345013
C26   C     C_R   0.542758 0.144174 0.544311 -0.345753
C27   C     C_R   0.396101 0.051800 0.474077 0.387363
C28   C     C_R   0.543734 0.115082 0.469056 0.388139
C29   C     C_1   0.333298 0.934815 0.335168 0.279256
C30   C     C_1   0.618133 0.192592 0.619566 0.279454
C31   C     C_1   0.680957 0.229303 0.682134 0.117049
C32   C     C_1   0.282925 0.863449 0.284814 0.131173
C33   C     C_R   0.152599 0.579275 0.602641 -0.123066
C34   C     C_R   0.077322 0.428498 0.455515 -0.120403
C35   C     C_R   0.114392 0.503525 0.598921 0.123312
C36   C     C_R   0.109264 0.504073 0.457524 0.123305
C37   C     C_R   0.079886 0.428223 0.526449 -0.121765
C38   C     C_R   0.150021 0.579550 0.531706 -0.130444
C39   C     C_1   0.095219 0.502662 0.662468 -0.004119
C40   C     C_1   0.085052 0.503705 0.382076 -0.010683
C41   C     C_1   0.059002 0.503089 0.318964 0.029330
C42   C     C_1   0.073338 0.501857 0.712400 0.035152
C43   C     C_R   0.031161 0.088095 0.112802 0.521339
C44   C     C_R   0.131289 0.038146 0.061749 0.526873
C45   C     C_R   0.068640 0.569534 0.841386 -0.063877
C46   C     C_R   0.971215 0.431951 0.167252 -0.055117
C47   C     C_R   0.060700 0.114530 0.065472 -0.097054
C48   C     C_R   0.094598 0.004684 0.101357 -0.094703
C49   C     C_R   0.114033 0.093363 0.043872 -0.295159
C50   C     C_R   0.048423 0.032884 0.130676 -0.289372
C51   C     C_1   0.030445 0.156193 0.031797 0.127026
C52   C     C_1   0.083056 0.926668 0.090022 0.133372
C53   C     C_1   0.065167 0.856829 0.071122 0.117303
C54   C     C_1   0.005177 0.191830 0.004419 0.075381
C55   C     C_R   0.774295 0.431970 0.005213 0.440085
C56   C     C_R   0.236538 0.568709 0.031548 0.464988
C57   C     C_R   0.004326 0.432034 0.773832 -0.030557
C58   C     C_R   0.040658 0.570612 0.236005 -0.078231
C59   C     C_R   0.841953 0.570355 0.070503 -0.147483
C60   C     C_R   0.166686 0.429973 0.964141 -0.183669
C61   C     C_R   0.764293 0.302066 0.834347 -0.112761
C62   C     C_R   0.224524 0.730581 0.156864 -0.074599
C63   C     C_R   0.068438 0.728279 0.001589 0.458451
C64   C     C_R   0.941628 0.278070 0.009370 0.433729
C65   C     C_R   0.039075 0.771921 0.042591 -0.070695
C66   C     C_R   0.980669 0.240807 0.978885 -0.020660
H1    H     H_    0.975909 0.746829 0.112288 0.171362
H2    H     H_    0.043410 0.262277 0.908219 0.150124
H3    H     H_    0.178357 0.637668 0.658343 0.154588
H4    H     H_    0.044714 0.369909 0.397931 0.160823
H5    H     H_    0.019602 0.006188 0.160554 0.200848
H6    H     H_    0.137596 0.115130 0.008334 0.202195
H7    H     H_    0.864748 0.634282 0.114760 0.164303
H8    H     H_    0.151946 0.366235 0.935506 0.151836
N1    N     N_R   0.999080 0.655880 0.043180 -0.068178
N2    N     N_R   0.000920 0.344120 0.956820 -0.067674
N3    N     N_R   0.887710 0.344150 0.844460 -0.098399
N4    N     N_R   0.112290 0.655850 0.155540 -0.101200
N5    N     N_R   0.043250 0.542980 0.887390 -0.059910
N6    N     N_R   0.956750 0.457020 0.112610 -0.050099
N7    N     N_R   0.843540 0.457050 0.000250 -0.094739
N8    N     N_R   0.156460 0.542950 0.999750 -0.091527
N9    N     N_R   0.000630 0.457060 0.844460 -0.065710
N10   N     N_R   0.999370 0.542940 0.155540 -0.051161
N11   N     N_R   0.886170 0.542970 0.043180 -0.068357
N12   N     N_R   0.113830 0.457030 0.956820 -0.069863
N13   N     N_R   0.844420 0.344140 0.887390 -0.066282
N14   N     N_R   0.155580 0.655860 0.112610 -0.084395
N15   N     N_R   0.042380 0.655890 0.000250 -0.097535
N16   N     N_R   0.957620 0.344110 0.999750 -0.095774
Ni1   Ni    Ni4+2 0.999230 0.598520 0.098470 0.257483
Ni2   Ni    Ni4+2 0.000770 0.401480 0.901530 0.244764
Ni3   Ni    Ni4+2 0.098520 0.598520 0.000000 0.272939
Ni4   Ni    Ni4+2 0.901480 0.401480 0.000000 0.315066
Cl1   Cl    Cl    0.378950 0.318513 0.985432 -0.545473
Cl2   Cl    Cl    0.667726 0.684479 0.191868 -0.539268
H9    H     H_    0.497712 0.577031 0.019501 0.199562
H10   H     H_    0.550190 0.425758 0.158250 0.197247
Cl3   Cl    Cl    0.636929 0.154132 0.466525 -0.435033
Cl4   Cl    Cl    0.303471 0.010308 0.477131 -0.440276
Cl5   Cl    Cl    0.472625 0.007965 0.302509 -0.434469
Cl6   Cl    Cl    0.467717 0.156607 0.641184 -0.482674
H11   H     H_    0.173810 0.638151 0.533234 0.151560
H12   H     H_    0.049230 0.369427 0.523037 0.156327
Cl7   Cl    Cl    0.966003 0.116269 0.143177 -0.538911
Cl8   Cl    Cl    0.190376 0.004187 0.024845 -0.484547
Cl9   Cl    Cl    0.850549 0.253083 0.681791 -0.590357
Cl10  Cl    Cl    0.111344 0.772912 0.279784 -0.610192
H13   H     H_    0.113869 0.632293 0.863566 0.188996
H14   H     H_    0.947743 0.369120 0.154126 0.176925
Cl11  Cl    Cl    0.719649 0.335373 0.995536 -0.549219
Cl12  Cl    Cl    0.317049 0.668059 0.069564 -0.593972
H15   H     H_    0.995918 0.372048 0.737394 0.175592
H16   H     H_    0.081260 0.634587 0.284797 0.172104
H17   H     H_    0.715848 0.294160 0.849987 0.199391
H18   H     H_    0.260482 0.757089 0.132132 0.231505
Cl13  Cl    Cl    0.152096 0.773956 0.987564 -0.578965
Cl14  Cl    Cl    0.858028 0.226366 0.021122 -0.516764
H19   H     H_    0.510661 0.433791 0.951891 0.197927
H20   H     H_    0.534527 0.569226 0.225691 0.191720

loop_
_geom_bond_atom_site_label_1
_geom_bond_atom_site_label_2
_ccdc_geom_bond_type
C44   C49   A    
C46   N6    A    
C5    C42   S    
C63   C65   A    
N3    Ni2   S    
C34   C37   A    
C6    C58   A    
C3    C23   A    
C64   N16   A    
N6    N10   A    
C11   H19   S    
C8    C56   A    
N11   Ni1   S    
C47   C49   A    
N9    Ni2   S    
C35   C37   A    
N5    Ni3   S    
C29   C32   T    
C2    H2    S    
C30   C31   T    
C4    C24   A    
C45   H13   S    
C16   H9    S    
C10   C17   S    
N13   Ni4   S    
C4    C62   A    
C64   Cl14  S    
C43   Cl7   S    
C61   N13   A    
C1    H1    S    
C12   H20   S    
C49   H6    S    
C61   H17   S    
C1    C65   A    
C57   N9    A    
C24   Cl10  S    
N10   Ni1   S    
C7    C55   A    
C55   N7    A    
C53   C65   S    
C9    Cl1   S    
C18   C20   S    
N1    Ni1   S    
C21   Cl5   S    
C48   C50   A    
N8    Ni3   S    
C7    C59   A    
N16   Ni4   S    
C39   C42   T    
C3    C61   A    
C25   C29   S    
C27   Cl4   S    
C13   C19   T    
C1    N1    A    
C14   C20   T    
C36   C40   S    
C60   N12   A    
C34   H4    S    
C57   H15   S    
N8    N12   A    
C5    C45   A    
C6    C41   S    
C64   C66   A    
C35   C39   S    
C50   H5    S    
C59   N11   A    
C62   H18   S    
C38   H11   S    
C58   N10   A    
C11   C16   S    
C12   C15   S    
C10   Cl2   S    
C23   Cl9   S    
C63   N15   A    
C45   N5    A    
C23   N3    A    
C3    C31   S    
C9    C11   S    
C4    C32   S    
C10   C12   S    
N2    Ni2   S    
C28   Cl3   S    
C24   N4    A    
C40   C41   T    
C21   C28   A    
C26   C30   S    
C44   Cl8   S    
C22   C27   A    
C46   H14   S    
C15   H10   S    
N6    Ni4   S    
C2    N2    A    
C52   C53   T    
N4    N14   A    
C15   C17   S    
C21   C25   A    
N14   Ni3   S    
C11   C17   S    
C8    C14   S    
C6    C46   A    
C55   Cl11  S    
C2    C66   A    
C37   H12   S    
C47   C51   S    
C43   C50   A    
C56   N8    A    
C54   C66   S    
C33   H3    S    
N4    Ni1   S    
C25   C27   A    
C26   C28   A    
C33   C38   A    
C22   Cl6   S    
C5    C57   A    
C51   C54   T    
C36   C38   A    
C9    C15   S    
N12   Ni2   S    
C8    C60   A    
N5    N9    A    
N7    Ni4   S    
C33   C35   A    
C62   N14   A    
C63   Cl13  S    
C60   H8    S    
C17   C19   S    
C34   C36   A    
N15   Ni3   S    
C59   H7    S    
N1    N15   A    
C9    C18   S    
C7    C13   S    
N3    N13   A    
C16   C18   S    
C22   C26   A    
C12   C18   S    
C58   H16   S    
C10   C16   S    
C48   C52   S    
C43   C47   A    
C56   Cl12  S    
N7    N11   A    
C44   C48   A    
N2    N16   A    
