data_mof_unit_32677.cif
_audit_creation_date              2012-12-10T19:01:22-0500
_audit_creation_method            fapswitch 2.2
_symmetry_space_group_name_H-M    P1
_symmetry_Int_Tables_number       1
_space_group_crystal_system       triclinic
_cell_length_a                    9.574944
_cell_length_b                    10.858653
_cell_length_c                    15.351919
_cell_angle_alpha                 90.683452
_cell_angle_beta                  73.546955
_cell_angle_gamma                 90.166658
_cell_volume                      1530.68613842

loop_
_atom_site_label
_atom_site_type_symbol
_atom_type_description
_atom_site_fract_x
_atom_site_fract_y
_atom_site_fract_z
_atom_type_partial_charge
C1    C     C_R   0.997015 0.262918 0.505723 0.891658
C2    C     C_R   0.679506 0.508543 0.913721 0.033992
C3    C     C_R   0.749569 0.418418 0.952914 0.021540
C4    C     C_R   0.548844 0.565055 0.967164 -0.035688
C5    C     C_R   0.470403 0.507018 0.048913 0.038918
C6    C     C_R   0.540815 0.415734 0.085624 -0.115915
C7    C     C_R   0.679914 0.375198 0.039782 -0.187971
C8    C     C_R   0.499497 0.681811 0.946114 0.465201
C9    C     C_R   0.370984 0.732783 0.001984 -0.240689
C10   C     C_R   0.288602 0.670618 0.078230 0.029068
C11   C     C_R   0.330733 0.551606 0.097633 -0.014249
C12   C     C_R   0.917395 0.497748 0.672384 0.845186
C13   C     C_R   0.168367 0.728762 0.138250 -0.168957
C14   C     C_R   0.095824 0.671877 0.219217 -0.250113
C15   C     C_R   0.234136 0.485155 0.168528 0.315294
C16   C     C_R   0.118044 0.061632 0.503144 -0.079787
C17   C     C_R   0.990573 0.130077 0.515794 -0.198280
C18   C     C_R   0.856294 0.063228 0.539826 0.414403
C19   C     C_R   0.859714 0.933669 0.532593 -0.230399
C20   C     C_R   0.992379 0.869329 0.514605 -0.133193
C21   C     C_R   0.116133 0.937810 0.509278 -0.001867
C22   C     C_3   0.273382 0.925700 0.501841 0.147842
C23   C     C_R   0.997940 0.737019 0.504545 0.834311
C24   C     C_3   0.279055 0.067492 0.492192 0.259092
C25   C     C_R   0.609414 0.496909 0.420131 0.255476
C26   C     C_R   0.537997 0.492244 0.578824 -0.019836
C27   C     C_R   0.389856 0.491708 0.578765 -0.031549
C28   C     C_R   0.462646 0.498089 0.420591 0.238201
C29   C     C_3   0.489561 0.588654 0.345844 -0.667081
C30   C     C_3   0.652467 0.584947 0.342278 0.821733
C31   C     C_R   0.082452 0.506030 0.327987 0.881081
C32   C     C_R   0.870308 0.482989 0.770991 -0.115276
C33   C     C_R   0.128547 0.550041 0.234734 -0.090791
C34   C     C_R   0.886415 0.370648 0.903440 0.495240
C35   C     C_R   0.948478 0.407381 0.813547 -0.247020
C36   C     C_R   0.737384 0.533238 0.820917 -0.188415
Cu1   Cu    Cu3+1 0.140670 0.499980 0.500000 1.030196
Cu2   Cu    Cu3+1 0.859330 0.500020 0.500000 1.072652
H1    H     H_    0.730991 0.307273 0.071891 0.210548
H2    H     H_    0.138295 0.821826 0.126205 0.161437
H3    H     H_    0.758542 0.883156 0.545054 0.238622
H4    H     H_    0.332104 0.871935 0.440597 0.098335
H5    H     H_    0.306408 0.120044 0.547650 0.161567
H6    H     H_    0.562110 0.488087 0.643218 0.154134
H7    H     H_    0.306375 0.486802 0.642872 0.162171
H8    H     H_    0.465621 0.547677 0.285013 0.202941
H9    H     H_    0.431631 0.676485 0.369659 0.183478
H10   H     H_    0.016205 0.723771 0.270693 0.184562
H11   H     H_    0.338373 0.823803 0.986907 0.177026
H12   H     H_    0.052788 0.369707 0.775302 0.162803
H13   H     H_    0.675930 0.585460 0.784917 0.211788
H14   H     H_    0.493073 0.380760 0.153040 0.201751
N1    N     N_R   0.648210 0.500930 0.499430 -0.201815
N2    N     N_R   0.352300 0.500890 0.499430 -0.183475
O1    O     O_R   0.118810 0.319640 0.500000 -0.557312
O2    O     O_R   0.881230 0.319680 0.499990 -0.507524
O3    O     O_R   0.055580 0.499970 0.629840 -0.586757
O4    O     O_R   0.818000 0.500010 0.629830 -0.586603
O5    O     O_R   0.118770 0.680320 0.500010 -0.564872
O6    O     O_R   0.881190 0.680360 0.500000 -0.559075
O7    O     O_R   0.182000 0.499990 0.370170 -0.577665
O8    O     O_R   0.944420 0.500030 0.370160 -0.524051
S1    S     S_3+6 0.685535 0.133152 0.593115 0.033045
O9    O     O_2   0.623831 0.188273 0.522664 -0.243866
O10   O     O_2   0.581159 0.038971 0.645746 -0.206467
O11   O     O_3   0.706927 0.243913 0.665787 -0.564300
H15   H     H_    0.606887 0.271298 0.698095 0.364453
S2    S     S_3+6 0.302264 0.872109 0.605970 0.040121
O12   O     O_2   0.275509 0.973934 0.675937 -0.240169
O13   O     O_2   0.201287 0.767486 0.644078 -0.284468
O14   O     O_3   0.474744 0.822649 0.585110 -0.473786
H16   H     H_    0.481774 0.750855 0.543771 0.330958
S3    S     S_3+6 0.383971 0.112697 0.381168 0.026556
O15   O     O_2   0.330631 0.045923 0.310384 -0.281405
O16   O     O_2   0.370886 0.249108 0.371438 -0.239962
O17   O     O_3   0.559789 0.077547 0.366868 -0.528858
H17   H     H_    0.611134 0.105853 0.304950 0.375108
S4    S     S_3+6 0.207194 0.324526 0.158039 0.015116
O18   O     O_2   0.267731 0.256521 0.223536 -0.242229
O19   O     O_2   0.046595 0.298988 0.180106 -0.263522
O20   O     O_3   0.288573 0.274802 0.051565 -0.510743
H18   H     H_    0.269012 0.185120 0.052418 0.376164
O21   O     O_3   0.743647 0.522016 0.265688 -0.555294
C37   C     C_3   0.767250 0.592024 0.185994 -0.256677
H19   H     H_    0.829829 0.676890 0.189614 0.176154
H20   H     H_    0.663878 0.615092 0.170651 0.127719
H21   H     H_    0.834306 0.536586 0.128184 0.214576
O22   O     O_3   0.718874 0.690833 0.369029 -0.588892
C38   C     C_3   0.673688 0.802791 0.339810 -0.330706
H22   H     H_    0.585938 0.843446 0.395735 0.224637
H23   H     H_    0.636082 0.794578 0.277827 0.154197
H24   H     H_    0.766799 0.867821 0.324802 0.212042
O23   O     O_3   0.961358 0.291175 0.943953 -0.556774
C39   C     C_3   0.950760 0.170665 0.911067 -0.248639
H25   H     H_    0.010321 0.161785 0.837688 0.178978
H26   H     H_    0.835075 0.141976 0.923145 0.145967
H27   H     H_    0.001962 0.106184 0.948439 0.201282
O24   O     O_3   0.581544 0.753328 0.876158 -0.565881
C40   C     C_3   0.676583 0.827342 0.909723 -0.272930
H28   H     H_    0.751463 0.770361 0.936413 0.150199
H29   H     H_    0.615057 0.892873 0.963047 0.160845
H30   H     H_    0.744614 0.882540 0.852992 0.211432

loop_
_geom_bond_atom_site_label_1
_geom_bond_atom_site_label_2
_ccdc_geom_bond_type
C8    C9    A    
S1    O10   D    
C16   C21   A    
S3    O15   D    
C31   O7    A    
C19   C20   A    
C37   H21   S    
C4    C8    A    
C14   C33   A    
O20   H18   S    
C27   N2    A    
C26   H6    S    
C25   C28   A    
C23   O5    A    
C26   C27   A    
C29   C30   S    
C29   H9    S    
C32   C36   A    
C28   C29   S    
C1    O2    A    
C37   H20   S    
C5    C11   A    
C3    C7    A    
C5    C6    A    
S4    O19   D    
C18   S1    S    
C15   S4    S    
C34   C35   A    
C30   O21   S    
C8    O24   S    
C13   H2    S    
Cu2   O4    S    
C11   C15   A    
O21   C37   S    
C16   C17   A    
C34   O23   S    
C38   H23   S    
C9    C10   A    
C12   O4    A    
O22   C38   S    
C27   H7    S    
O11   H15   S    
S1    O11   S    
C16   C24   S    
C21   C22   S    
C12   C32   S    
S3    O16   D    
C31   O8    A    
C23   O6    A    
C32   C35   A    
C9    H11   S    
O17   H17   S    
C28   N2    A    
S4    O18   D    
C18   C19   A    
C14   H10   S    
C3    C34   A    
C2    C4    A    
Cu1   Cu2   S    
C40   H28   S    
C20   C23   S    
C35   H12   S    
C31   C33   S    
C17   C18   A    
O23   C39   S    
C37   H19   S    
C38   H24   S    
C39   H26   S    
C22   S2    S    
Cu1   O5    S    
C36   H13   S    
Cu2   O6    S    
C12   O3    A    
C40   H29   S    
S3    O17   S    
C22   C24   S    
Cu1   N2    S    
C30   O22   S    
C26   N1    A    
C2    C36   A    
C25   C30   S    
S2    O12   D    
C25   N1    A    
C4    C5    A    
C10   C13   A    
Cu1   O7    S    
C6    C7    A    
C1    C17   S    
C39   H27   S    
C29   H8    S    
C2    C3    A    
C1    O1    A    
O14   H16   S    
S4    O20   S    
C22   H4    S    
Cu2   N1    S    
S2    O14   S    
C39   H25   S    
C24   S3    S    
C10   C11   A    
S1    O9    D    
Cu1   O1    S    
C40   H30   S    
Cu2   O2    S    
C20   C21   A    
S2    O13   D    
O24   C40   S    
C24   H5    S    
C7    H1    S    
C6    H14   S    
C38   H22   S    
C13   C14   A    
C15   C33   A    
Cu1   O3    S    
C19   H3    S    
Cu2   O8    S    
