data_mof_unit_58851.cif
_audit_creation_date              2013-03-05T15:58:28-0500
_audit_creation_method            fapswitch 2.2
_symmetry_space_group_name_H-M    P1
_symmetry_Int_Tables_number       1
_space_group_crystal_system       triclinic
_cell_length_a                    11.518106
_cell_length_b                    12.678936
_cell_length_c                    13.135934
_cell_angle_alpha                 82.105603
_cell_angle_beta                  91.873657
_cell_angle_gamma                 101.856599
_cell_volume                      1859.59659717

loop_
_atom_site_label
_atom_site_type_symbol
_atom_site_description
_atom_site_fract_x
_atom_site_fract_y
_atom_site_fract_z
_atom_type_partial_charge
O1    O     O_R   0.471500 0.366730 0.627160 -0.605000
O2    O     O_R   0.509620 0.544830 0.662520 -0.624142
C1    C     C_R   0.477704 0.439552 0.690444 0.839803
O3    O     O_R   0.646490 0.410960 0.482310 -0.533942
O4    O     O_R   0.684610 0.589050 0.517670 -0.629281
C2    C     C_R   0.717515 0.500623 0.500405 0.899957
Zn1   Zn    Zn3+2 0.474550 0.381080 0.476390 1.005888
Zn2   Zn    Zn3+2 0.525450 0.618920 0.523610 1.004901
O5    O     O_R   0.490380 0.455170 0.337480 -0.624097
O6    O     O_R   0.528500 0.633270 0.372840 -0.562624
O7    O     O_R   0.315390 0.410950 0.482330 -0.625416
O8    O     O_R   0.353510 0.589040 0.517690 -0.605394
C3    C     C_R   0.511309 0.560230 0.308399 0.915396
C4    C     C_R   0.282445 0.499075 0.500369 0.911972
C5    C     C_1   0.838526 0.501624 0.500945 -0.114361
C6    C     C_1   0.940729 0.500646 0.501034 0.052295
C7    C     C_1   0.059214 0.498683 0.500824 0.048349
C8    C     C_1   0.161414 0.497794 0.500565 -0.110310
C9    C     C_R   0.518729 0.726270 0.045102 0.352829
H1    H     H_    0.594059 0.759296 0.192582 0.223108
C10   C     C_R   0.502891 0.592669 0.197735 -0.100735
C11   C     C_R   0.451814 0.294787 0.839187 -0.164411
C12   C     C_R   0.445488 0.263040 0.944489 -0.084960
C13   C     C_R   0.441208 0.339161 0.010339 -0.150486
C14   C     C_R   0.434502 0.447858 0.970948 0.109897
C15   C     C_R   0.425817 0.475734 0.864151 0.028995
C16   C     C_R   0.448518 0.532624 0.032828 -0.001227
C17   C     C_R   0.462499 0.642654 0.987306 -0.084717
C18   C     C_R   0.419211 0.662775 0.886384 0.320849
C19   C     C_R   0.398698 0.577785 0.826481 -0.262483
C20   C     C_R   0.454570 0.511183 0.138573 -0.206892
C21   C     C_R   0.542616 0.698755 0.149754 -0.160134
C22   C     C_R   0.447154 0.402080 0.798522 -0.099888
H2    H     H_    0.420549 0.430060 0.175758 0.173845
H3    H     H_    0.465217 0.236425 0.790007 0.182052
H4    H     H_    0.448344 0.311230 0.091121 0.149599
H5    H     H_    0.451457 0.180674 0.975582 0.196715
H6    H     H_    0.361708 0.592061 0.750291 0.202270
C23   C     C_R   0.277972 0.079994 0.413786 0.255632
H7    H     H_    0.275896 0.249935 0.384089 0.192637
H8    H     H_    0.221707 0.864866 0.412139 0.225104
N1    N     N_R   0.440320 0.222190 0.444690 -0.150244
C24   C     C_R   0.650125 0.800317 0.621741 0.055631
C25   C     C_R   0.676240 0.900983 0.656984 -0.142973
C26   C     C_R   0.611204 0.979364 0.620085 -0.023260
C27   C     C_R   0.521662 0.958267 0.545636 0.050508
C28   C     C_R   0.490936 0.851837 0.518667 0.143660
C29   C     C_R   0.459423 0.038090 0.498101 -0.114685
C30   C     C_R   0.345014 0.003078 0.456222 -0.054786
C31   C     C_R   0.305451 0.892771 0.449108 -0.185149
C32   C     C_R   0.387779 0.825568 0.457729 0.300965
C33   C     C_R   0.509076 0.150435 0.483267 0.457311
C34   C     C_R   0.327507 0.189653 0.412144 -0.122410
N2    N     N_R   0.559060 0.776980 0.554780 -0.134113
H9    H     H_    0.699755 0.738738 0.650807 0.146352
H10   H     H_    0.628578 0.054608 0.653108 0.184303
H11   H     H_    0.745680 0.917766 0.713534 0.188152
N3    N     N_R   0.161718 0.049250 0.370832 0.204707
O9    O     O_R   0.148022 0.998192 0.290470 -0.338806
O10   O     O_R   0.076275 0.093319 0.396449 -0.345479
Cl1   Cl    Cl    0.663803 0.197578 0.489693 -0.569745
N4    N     N_R   0.391194 0.771210 0.370581 0.234256
O11   O     O_R   0.295419 0.707221 0.342858 -0.395843
O12   O     O_R   0.465956 0.821496 0.299359 -0.372979
N5    N     N_R   0.385913 0.764124 0.847172 0.239213
O13   O     O_R   0.384744 0.795411 0.748645 -0.405478
O14   O     O_R   0.338497 0.816245 0.907940 -0.322706
N6    N     N_R   0.564751 0.835222 0.997276 0.237625
O15   O     O_R   0.617861 0.851622 0.908893 -0.390269
O16   O     O_R   0.570264 0.916887 0.048649 -0.315348

loop_
_geom_bond_atom_site_label_1
_geom_bond_atom_site_label_2
_geom_bond_distance
_ccdc_geom_bond_type
O4    Zn2   1.952686 S    
C28   C32   1.418401 A    
C24   C25   1.388980 A    
H7    C34   1.080915 S    
N4    O11   1.301881 A    
C9    C17   1.423583 A    
C14   C16   1.414898 A    
C18   C19   1.397261 A    
C4    C8    1.390882 S    
C15   C22   1.415990 A    
C25   H11   1.082336 S    
Zn2   O8    1.939424 S    
C7    C8    1.179638 T    
N3    O9    1.301220 A    
C20   H2    1.076553 S    
C3    C10   1.461051 S    
C9    N6    1.437495 S    
C14   C15   1.404329 A    
C13   H4    1.077604 S    
C26   C27   1.408613 A    
C13   C14   1.420662 A    
Zn1   O7    1.952686 S    
C11   H3    1.083289 S    
C10   C20   1.391794 A    
C11   C12   1.386469 A    
C23   C34   1.387690 A    
C32   N4    1.420509 S    
C28   N2    1.378240 A    
C18   N5    1.439249 S    
C9    C21   1.403627 A    
C24   H9    1.081384 S    
C29   C30   1.419686 A    
C23   C30   1.410683 A    
O8    C4    1.303192 A    
C15   C19   1.413047 A    
O2    C1    1.313047 A    
C33   Cl1   1.762608 S    
O3    Zn1   1.939423 S    
N1    C34   1.353966 A    
O4    C2    1.304670 A    
O7    C4    1.304382 A    
C27   C29   1.422454 A    
O3    C2    1.302869 A    
C6    C7    1.370155 S    
C1    C22   1.464170 S    
C12   C13   1.390604 A    
C16   C20   1.380576 A    
C5    C6    1.179757 T    
C10   C21   1.396018 A    
Zn1   O5    1.930227 S    
H8    C31   1.080619 S    
C29   C33   1.410776 A    
C25   C26   1.390515 A    
C19   H6    1.081657 S    
N6    O16   1.301409 A    
N5    O13   1.301019 A    
H1    C21   1.080157 S    
Zn1   N1    2.068959 S    
Zn2   N2    2.056671 S    
C16   C17   1.419346 A    
C30   C31   1.394141 A    
C11   C22   1.402610 A    
O5    C3    1.308692 A    
C27   C28   1.413698 A    
C17   C18   1.409722 A    
O1    Zn1   1.964607 S    
N4    O12   1.298667 A    
C24   N2    1.358327 A    
C31   C32   1.391587 A    
C2    C5    1.391060 S    
C12   H5    1.082890 S    
C23   N3    1.435216 S    
N3    O10   1.301246 A    
Zn2   O6    1.964606 S    
O2    Zn2   1.930228 S    
N5    O14   1.301495 A    
C26   H10   1.080705 S    
N1    C33   1.361930 A    
N6    O15   1.301245 A    
O1    C1    1.314723 A    
O6    C3    1.319999 A    
