data_mof_unit_56483.cif
_audit_creation_date              2012-12-10T17:53:44-0500
_audit_creation_method            fapswitch 2.2
_symmetry_space_group_name_H-M    P1
_symmetry_Int_Tables_number       1
_space_group_crystal_system       triclinic
_cell_length_a                    11.182491
_cell_length_b                    11.694613
_cell_length_c                    10.45165
_cell_angle_alpha                 89.697637
_cell_angle_beta                  90.028898
_cell_angle_gamma                 89.731514
_cell_volume                      1366.77930212

loop_
_atom_site_label
_atom_site_type_symbol
_atom_type_description
_atom_site_fract_x
_atom_site_fract_y
_atom_site_fract_z
_atom_type_partial_charge
C1    C     C_R   0.497129 0.283397 0.500131 0.959501
C2    C     C_3   0.122467 0.502411 0.505726 -0.483108
C3    C     C_3   0.878848 0.496209 0.502987 -0.491661
C4    C     C_1   0.497717 0.838050 0.499329 -0.063857
C5    C     C_1   0.496309 0.940313 0.499355 0.039127
C6    C     C_R   0.259314 0.504873 0.501052 1.006635
C7    C     C_R   0.741096 0.497403 0.500541 1.016471
C8    C     C_1   0.500309 0.499704 0.072001 0.147440
C9    C     C_1   0.500091 0.499695 0.928017 0.180216
C10   C     C_R   0.499113 0.716656 0.499793 0.952625
C11   C     C_1   0.495214 0.161991 0.500128 -0.079295
C12   C     C_3   0.075742 0.506118 0.662392 0.036619
C13   C     C_3   0.078130 0.373063 0.441731 0.041892
C14   C     C_3   0.925879 0.512872 0.662315 0.024474
C15   C     C_3   0.928554 0.367902 0.451247 0.027243
C16   C     C_1   0.495108 0.059723 0.499756 0.028016
C17   C     C_3   0.072021 0.618809 0.423800 0.407668
C18   C     C_3   0.925209 0.601872 0.402063 0.413797
Cu1   Cu    Cu3+1 0.500000 0.500000 0.625300 1.168371
Cu2   Cu    Cu3+1 0.500000 0.500000 0.374700 1.195716
N1    N     N_1   0.500000 0.499990 0.186410 -0.090209
N2    N     N_1   0.500000 0.499990 0.813590 -0.063247
O1    O     O_R   0.500000 0.337200 0.605810 -0.563524
O2    O     O_R   0.500000 0.337200 0.394190 -0.528546
O3    O     O_R   0.317690 0.499990 0.605810 -0.508432
O4    O     O_R   0.317690 0.499990 0.394190 -0.504072
O5    O     O_R   0.682310 0.499990 0.605810 -0.505796
O6    O     O_R   0.682310 0.499990 0.394190 -0.484904
O7    O     O_R   0.500000 0.662810 0.605810 -0.547445
O8    O     O_R   0.500000 0.662810 0.394190 -0.549493
S1    S     S_3+6 0.142408 0.612559 0.781335 0.154648
O9    O     O_2   0.275337 0.628203 0.774878 -0.259109
O10   O     O_2   0.093025 0.730859 0.788171 -0.103359
O11   O     O_3   0.118024 0.557901 0.928125 -0.378584
H1    H     H_    0.193840 0.521250 0.954281 0.376391
S2    S     S_3+6 0.145663 0.318881 0.284475 0.128946
O12   O     O_2   0.116684 0.371520 0.158624 -0.135476
O13   O     O_2   0.279551 0.314909 0.292485 -0.298614
O14   O     O_3   0.107261 0.181438 0.260940 -0.389845
H2    H     H_    0.164828 0.151321 0.197204 0.385559
S3    S     S_3+6 0.856881 0.632068 0.767521 0.146276
O15   O     O_2   0.901392 0.618540 0.902048 -0.165009
O16   O     O_2   0.876090 0.755494 0.740184 -0.123478
O17   O     O_3   0.708392 0.621946 0.785383 -0.497346
H3    H     H_    0.686876 0.677856 0.852610 0.351946
S4    S     S_3+6 0.859245 0.299758 0.305621 0.137003
O18   O     O_2   0.725833 0.312079 0.301210 -0.270708
O19   O     O_2   0.902408 0.334405 0.176615 -0.131724
O20   O     O_3   0.885022 0.157471 0.315882 -0.401928
H4    H     H_    0.806881 0.121260 0.333989 0.372673
C19   C     C_2   0.128421 0.396195 0.734411 0.897411
O21   O     O_2   0.072958 0.308017 0.747943 -0.561326
O22   O     O_R   0.243894 0.394411 0.787668 -0.689495
H5    H     H_    0.265630 0.319427 0.831314 0.352499
C20   C     C_2   0.141670 0.270160 0.510542 0.927023
O23   O     O_2   0.241872 0.281325 0.555084 -0.641601
O24   O     O_R   0.101258 0.157294 0.497228 -0.586087
H6    H     H_    0.156117 0.098587 0.538837 0.368016
C21   C     C_2   0.876133 0.420903 0.760689 0.941354
O25   O     O_2   0.781267 0.371869 0.746841 -0.557266
O26   O     O_R   0.928804 0.408367 0.882136 -0.610794
H7    H     H_    0.886948 0.349580 0.937570 0.394810
C22   C     C_2   0.872923 0.276677 0.543091 0.890580
O27   O     O_2   0.929815 0.214894 0.614131 -0.489674
O28   O     O_R   0.749091 0.259251 0.542149 -0.749724
H8    H     H_    0.723103 0.194901 0.601279 0.351131
S5    S     S_3+6 0.108492 0.759191 0.500152 0.133854
O29   O     O_2   0.120911 0.854448 0.403262 -0.161032
O30   O     O_2   0.017709 0.804924 0.588309 -0.147027
O31   O     O_3   0.241413 0.752922 0.573727 -0.528409
H9    H     H_    0.253926 0.830446 0.608929 0.375116
S6    S     S_3+6 0.165003 0.653593 0.275881 0.149591
O32   O     O_2   0.101664 0.737198 0.189779 -0.116610
O33   O     O_2   0.278474 0.712626 0.315443 -0.284464
O34   O     O_3   0.215560 0.548773 0.184165 -0.441538
H10   H     H_    0.279659 0.584190 0.132402 0.347199
S7    S     S_3+6 0.826291 0.732014 0.419493 0.096596
O35   O     O_2   0.766738 0.744452 0.545557 -0.266843
O36   O     O_2   0.888824 0.841463 0.385807 -0.162274
O37   O     O_3   0.709399 0.726033 0.318011 -0.523450
H11   H     H_    0.684932 0.806453 0.302276 0.360401
S8    S     S_3+6 0.892333 0.585974 0.225253 0.179979
O38   O     O_2   0.987166 0.530200 0.149785 -0.095296
O39   O     O_2   0.778247 0.526185 0.192673 -0.228583
O40   O     O_3   0.880276 0.716549 0.155435 -0.387585
H12   H     H_    0.810026 0.713519 0.097822 0.383032

loop_
_geom_bond_atom_site_label_1
_geom_bond_atom_site_label_2
_ccdc_geom_bond_type
C20   O23   D    
C22   O28   S    
S3    O15   D    
Cu1   Cu2   S    
C1    C11   S    
C2    C12   S    
Cu2   O8    S    
O40   H12   S    
C14   C21   S    
S4    O20   S    
S2    O12   D    
C3    C7    S    
O37   H11   S    
C9    N2    T    
C6    O3    A    
C7    O5    A    
C3    C18   S    
O11   H1    S    
C2    C13   S    
C5    C16   S    
Cu2   O2    S    
C8    C9    S    
S1    O10   D    
O31   H9    S    
Cu1   O5    S    
C21   O25   D    
C2    C17   S    
S3    O16   D    
C2    C6    S    
S6    O34   S    
C8    N1    T    
S7    O36   D    
S4    O19   D    
C21   O26   S    
C17   S5    S    
S5    O29   D    
Cu1   N2    S    
C13   S2    S    
S6    O33   D    
O14   H2    S    
C4    C5    T    
Cu2   O6    S    
S7    O35   D    
S8    O38   D    
C7    O6    A    
C19   O21   D    
S5    O30   D    
Cu1   O1    S    
O34   H10   S    
C11   C16   T    
C10   O8    A    
S1    O9    D    
C17   C18   S    
S1    O11   S    
C3    C14   S    
C1    O2    A    
C14   S3    S    
C12   C14   S    
C1    O1    A    
S8    O39   D    
C13   C15   S    
C12   S1    S    
S3    O17   S    
C4    C10   S    
Cu1   O7    S    
C12   C19   S    
C3    C15   S    
O17   H3    S    
S7    O37   S    
S4    O18   D    
S2    O14   S    
S6    O32   D    
O22   H5    S    
S8    O40   S    
S5    O31   S    
C20   O24   S    
C10   O7    A    
O24   H6    S    
C6    O4    A    
Cu2   O4    S    
C18   S7    S    
S2    O13   D    
C18   S8    S    
O28   H8    S    
O26   H7    S    
Cu1   O3    S    
C22   O27   D    
Cu2   N1    S    
C17   S6    S    
O20   H4    S    
C15   C22   S    
C15   S4    S    
C19   O22   S    
C13   C20   S    
