data_mof_unit_41998.cif
_audit_creation_date              2013-03-05T15:47:34-0500
_audit_creation_method            fapswitch 2.2
_symmetry_space_group_name_H-M    P1
_symmetry_Int_Tables_number       1
_space_group_crystal_system       triclinic
_cell_length_a                    7.22796
_cell_length_b                    14.930102
_cell_length_c                    22.399295
_cell_angle_alpha                 89.992198
_cell_angle_beta                  90.003858
_cell_angle_gamma                 90.005768
_cell_volume                      2417.20151353

loop_
_atom_site_label
_atom_site_type_symbol
_atom_site_description
_atom_site_fract_x
_atom_site_fract_y
_atom_site_fract_z
_atom_type_partial_charge
O1    O     O_R   0.390810 0.844810 0.447340 -0.599714
O2    O     O_R   0.109190 0.155190 0.947340 -0.599754
O3    O     O_R   0.890810 0.655190 0.552660 -0.599653
O4    O     O_R   0.609190 0.344810 0.052660 -0.599646
O5    O     O_R   0.720550 0.655820 0.440420 -0.599909
O6    O     O_R   0.779450 0.344180 0.940420 -0.599737
O7    O     O_R   0.220550 0.844180 0.559580 -0.599733
O8    O     O_R   0.279450 0.155820 0.059580 -0.599405
C1    C     C_R   0.553412 0.626472 0.426204 0.928750
C2    C     C_R   0.946568 0.373575 0.926229 0.929229
C3    C     C_R   0.053440 0.873563 0.573779 0.929352
C4    C     C_R   0.446554 0.126398 0.073756 0.930171
O9    O     O_R   0.720530 0.844130 0.440420 -0.578045
O10   O     O_R   0.779470 0.155870 0.940420 -0.578139
O11   O     O_R   0.220530 0.655870 0.559580 -0.578038
O12   O     O_R   0.279470 0.344130 0.059580 -0.578145
O13   O     O_R   0.890830 0.844810 0.552660 -0.568574
O14   O     O_R   0.609170 0.155190 0.052660 -0.568128
O15   O     O_R   0.390830 0.655190 0.447340 -0.568809
O16   O     O_R   0.109170 0.344810 0.947340 -0.568616
C5    C     C_R   0.552385 0.873086 0.425947 1.084614
C6    C     C_R   0.947613 0.126917 0.925946 1.084317
C7    C     C_R   0.052378 0.626908 0.574048 1.084397
C8    C     C_R   0.447646 0.373074 0.074056 1.084220
O17   O     O_3   0.557310 0.749980 0.536820 -0.304445
O18   O     O_3   0.942690 0.250020 0.036820 -0.304261
O19   O     O_3   0.057310 0.750020 0.463180 -0.304543
O20   O     O_3   0.442690 0.249980 0.963180 -0.304636
V1    V     V_3+5 0.832160 0.749980 0.493170 1.181172
V2    V     V_3+5 0.667840 0.250020 0.993170 1.181667
V3    V     V_3+5 0.332160 0.750020 0.506830 1.181095
V4    V     V_3+5 0.167840 0.249980 0.006830 1.181547
C9    C     C_R   0.793455 0.587051 0.853811 -0.054567
C10   C     C_R   0.705906 0.412875 0.353895 -0.056625
C11   C     C_R   0.293427 0.912853 0.146150 -0.052888
C12   C     C_R   0.206573 0.087045 0.646178 -0.054753
H1    H     H_    0.784631 0.532670 0.942042 0.158333
H2    H     H_    0.714667 0.467263 0.442110 0.157984
H3    H     H_    0.284668 0.967242 0.057913 0.158506
H4    H     H_    0.215440 0.032660 0.557960 0.158245
H5    H     H_    0.712448 0.644704 0.867057 0.222067
H6    H     H_    0.786577 0.355134 0.367196 0.221613
H7    H     H_    0.212444 0.855185 0.132896 0.222160
H8    H     H_    0.287591 0.144703 0.632924 0.221984
C13   C     C_R   0.941652 0.447924 0.882710 -0.148626
C14   C     C_R   0.558268 0.552158 0.382681 -0.148759
C15   C     C_R   0.441611 0.052022 0.117264 -0.148698
C16   C     C_R   0.058382 0.947904 0.617299 -0.148678
C17   C     C_R   0.124969 0.469401 0.597488 0.521132
C18   C     C_R   0.375694 0.530674 0.097389 0.521366
C19   C     C_R   0.624895 0.030609 0.402481 0.520836
C20   C     C_R   0.874974 0.969408 0.902525 0.521259
C21   C     C_R   0.121463 0.394777 0.634647 0.591366
C22   C     C_R   0.379545 0.605344 0.134491 0.591409
C23   C     C_R   0.621244 0.105232 0.365318 0.591403
C24   C     C_R   0.878461 0.894783 0.865380 0.591398
C25   C     C_R   0.054429 0.401402 0.692835 0.485114
C26   C     C_R   0.446371 0.598704 0.192709 0.484443
C27   C     C_R   0.554177 0.098567 0.307133 0.486920
C28   C     C_R   0.945497 0.901407 0.807190 0.485072
C29   C     C_R   0.996584 0.484836 0.716149 -0.223654
C30   C     C_R   0.503696 0.515219 0.216102 -0.223609
C31   C     C_R   0.496491 0.015103 0.283823 -0.224015
C32   C     C_R   0.003362 0.984840 0.783858 -0.223648
C33   C     C_R   0.976432 0.557852 0.675405 -0.114676
C34   C     C_R   0.523582 0.442124 0.175413 -0.115148
C35   C     C_R   0.476484 0.942078 0.324564 -0.114460
C36   C     C_R   0.023519 0.057863 0.824589 -0.114726
C37   C     C_R   0.950524 0.497423 0.777750 0.149710
C38   C     C_R   0.549527 0.502643 0.277731 0.150678
C39   C     C_R   0.450409 0.002507 0.222224 0.149109
C40   C     C_R   0.049453 0.997418 0.722253 0.149756
C41   C     C_R   0.849561 0.575297 0.794294 -0.082652
C42   C     C_R   0.650039 0.424665 0.294353 -0.084206
C43   C     C_R   0.349520 0.924599 0.205674 -0.081337
C44   C     C_R   0.150430 0.075297 0.705695 -0.082664
C45   C     C_R   0.803526 0.639923 0.751075 0.630553
C46   C     C_R   0.695762 0.359923 0.251195 0.631525
C47   C     C_R   0.303541 0.859952 0.248895 0.629945
C48   C     C_R   0.196444 0.139936 0.748901 0.630628
C49   C     C_R   0.880419 0.634677 0.693977 -0.225719
C50   C     C_R   0.619200 0.365205 0.194064 -0.225690
C51   C     C_R   0.380581 0.865213 0.305990 -0.225515
C52   C     C_R   0.119539 0.134692 0.806000 -0.225563
C53   C     C_R   0.001818 0.435907 0.823593 -0.178548
C54   C     C_R   0.498403 0.564245 0.323528 -0.178599
C55   C     C_R   0.501661 0.064053 0.176392 -0.179058
C56   C     C_R   0.998186 0.935888 0.676419 -0.178542
C57   C     C_R   0.837102 0.523707 0.897111 -0.095614
C58   C     C_R   0.662421 0.476276 0.397151 -0.093977
C59   C     C_R   0.337101 0.976212 0.102852 -0.097012
C60   C     C_R   0.162948 0.023694 0.602890 -0.095637
C61   C     C_R   0.047961 0.550748 0.616395 -0.452277
C62   C     C_R   0.452189 0.449245 0.116379 -0.452322
C63   C     C_R   0.547984 0.949223 0.383579 -0.452244
C64   C     C_R   0.951997 0.050760 0.883604 -0.452347
H9    H     H_    0.086112 0.377871 0.814634 0.185752
H10   H     H_    0.414401 0.622368 0.314509 0.185746
H11   H     H_    0.585780 0.122150 0.185373 0.185635
H12   H     H_    0.913882 0.877847 0.685386 0.185779
H13   H     H_    0.856636 0.689847 0.663668 0.128114
H14   H     H_    0.642876 0.309973 0.163801 0.128739
H15   H     H_    0.356948 0.810034 0.336302 0.127491
H16   H     H_    0.143317 0.189866 0.836297 0.128113
O21   O     O_3   0.691020 0.711714 0.765638 -0.584141
C65   C     C_3   0.511349 0.699141 0.741484 0.194232
H17   H     H_    0.410005 0.700423 0.778786 0.157328
H18   H     H_    0.490470 0.633623 0.718206 0.013701
C66   C     C_3   0.464872 0.774630 0.697646 -0.244536
H19   H     H_    0.567081 0.774966 0.660637 0.191367
H20   H     H_    0.325750 0.762029 0.678169 0.166126
C67   C     C_3   0.464103 0.866352 0.727804 -0.775082
H21   H     H_    0.360200 0.868048 0.764298 0.268602
H22   H     H_    0.428637 0.918545 0.694432 0.227776
H23   H     H_    0.602518 0.882067 0.746377 0.267980
O22   O     O_3   0.807671 0.287957 0.265807 -0.584097
C68   C     C_3   0.989197 0.301736 0.243473 0.194317
H24   H     H_    0.087488 0.298478 0.281574 0.158589
H25   H     H_    0.011902 0.368437 0.221897 0.013037
C69   C     C_3   0.039205 0.228503 0.198365 -0.247359
H26   H     H_    0.940349 0.230326 0.160431 0.191977
H27   H     H_    0.180100 0.241855 0.180489 0.166768
C70   C     C_3   0.036629 0.135241 0.226395 -0.772523
H28   H     H_    0.137458 0.131390 0.263717 0.267351
H29   H     H_    0.074408 0.084722 0.192161 0.228787
H30   H     H_    0.896564 0.118892 0.243403 0.267347
O23   O     O_3   0.191014 0.788141 0.234317 -0.584549
C71   C     C_3   0.012318 0.799854 0.259394 0.194252
H31   H     H_    0.909402 0.799461 0.222533 0.156959
H32   H     H_    0.992170 0.864708 0.283534 0.014191
C72   C     C_3   0.967968 0.723184 0.302543 -0.243261
H33   H     H_    0.072027 0.721796 0.339000 0.190829
H34   H     H_    0.829886 0.735278 0.322890 0.166236
C73   C     C_3   0.965409 0.632318 0.271288 -0.776978
H35   H     H_    0.859773 0.631684 0.235303 0.269229
H36   H     H_    0.931353 0.579240 0.304188 0.227291
H37   H     H_    0.102837 0.617052 0.251842 0.268020
O24   O     O_3   0.308950 0.211738 0.734325 -0.584114
C74   C     C_3   0.488656 0.199150 0.758445 0.194238
H38   H     H_    0.589947 0.200521 0.721130 0.157375
H39   H     H_    0.509587 0.133589 0.781675 0.013648
C75   C     C_3   0.535176 0.274564 0.802327 -0.244577
H40   H     H_    0.433038 0.274804 0.839356 0.191345
H41   H     H_    0.674341 0.261954 0.821768 0.166162
C76   C     C_3   0.535842 0.366345 0.772231 -0.775047
H42   H     H_    0.639683 0.368136 0.735721 0.268527
H43   H     H_    0.571337 0.418482 0.805632 0.227806
H44   H     H_    0.397390 0.382065 0.753692 0.267963
F1    F     F_    0.194013 0.460925 0.541356 -0.637133
F2    F     F_    0.306862 0.539174 0.041226 -0.637019
F3    F     F_    0.693894 0.039130 0.458619 -0.637050
F4    F     F_    0.805937 0.960927 0.958659 -0.636925
F5    F     F_    0.026605 0.324167 0.723148 -0.676464
F6    F     F_    0.474316 0.675945 0.222998 -0.676460
F7    F     F_    0.525741 0.175786 0.276862 -0.676489
F8    F     F_    0.973301 0.824170 0.776894 -0.676401
F9    F     F_    0.180000 0.314498 0.613572 -0.610136
F10   F     F_    0.321535 0.685679 0.113335 -0.609862
F11   F     F_    0.679495 0.185560 0.386410 -0.610583
F12   F     F_    0.819911 0.814502 0.886472 -0.610003

loop_
_geom_bond_atom_site_label_1
_geom_bond_atom_site_label_2
_geom_bond_distance
_ccdc_geom_bond_type
O17   V3    1.760527 S    
C39   C43   1.421993 A    
C26   C30   1.414135 A    
O1    C5    1.331031 A    
C23   C27   1.394086 A    
O19   V1    1.760610 S    
O13   V1    1.990064 S    
O3    C7    1.330993 A    
C10   H6    1.082561 S    
C40   C44   1.421961 A    
C72   C73   1.526813 S    
O15   V3    1.990163 S    
C71   H31   1.111312 S    
C73   H37   1.108379 S    
C10   C58   1.390666 A    
C76   H42   1.110375 S    
C36   C52   1.403765 A    
C70   H28   1.110510 S    
C49   H13   1.081090 S    
O7    C3    1.323910 A    
C11   C43   1.404570 A    
C17   C61   1.401627 A    
C36   C64   1.423352 A    
C51   H15   1.081064 S    
C32   C36   1.429143 A    
O9    V1    2.005658 S    
C8    C62   1.481026 S    
C66   H20   1.112124 S    
O16   V4    1.989867 S    
O4    C8    1.330918 A    
C74   C75   1.532024 S    
C48   O24   1.384503 S    
C70   H29   1.109820 S    
C22   F10   1.356057 S    
C65   H17   1.111368 S    
O1    V3    1.989388 S    
O22   C68   1.419192 S    
C30   C38   1.431954 A    
O2    V4    1.989607 S    
O3    V1    1.989410 S    
C46   C50   1.396403 A    
C12   C44   1.404522 A    
C76   H43   1.109758 S    
C1    O15   1.337589 A    
C2    O16   1.337648 A    
C38   C42   1.421913 A    
C16   C56   1.405385 A    
O23   C71   1.419331 S    
C37   C41   1.421969 A    
O14   V2    1.989844 S    
C11   H7    1.082589 S    
O5    V1    2.005814 S    
C69   C70   1.527454 S    
C48   C52   1.396753 A    
C34   C62   1.423360 A    
O11   C7    1.330071 A    
C12   C60   1.390814 A    
C23   F11   1.356034 S    
C19   F3    1.358696 S    
C1    C14   1.477485 S    
O12   C8    1.330176 A    
C35   C63   1.423303 A    
C75   C76   1.527066 S    
C3    C16   1.477740 S    
C15   C59   1.398508 A    
O10   V2    2.005947 S    
C4    C15   1.477773 S    
H3    C59   1.083860 S    
C67   H21   1.110380 S    
C40   C56   1.426659 A    
C69   H27   1.112282 S    
C55   H11   1.078160 S    
C31   C35   1.429035 A    
O7    V3    2.005992 S    
C30   C34   1.429201 A    
O8    V4    2.005703 S    
C53   H9    1.078170 S    
C66   H19   1.110425 S    
C68   C69   1.532136 S    
C21   C25   1.394076 A    
O18   V4    1.760611 S    
C18   C62   1.401650 A    
C70   H30   1.108884 S    
C73   H36   1.109735 S    
C5    C63   1.481054 S    
C25   F5    1.353129 S    
C7    C61   1.481018 S    
C15   C55   1.405248 A    
C13   C53   1.405318 A    
C28   F8    1.353126 S    
O5    C1    1.323889 A    
C9    C57   1.390807 A    
C34   C50   1.403937 A    
C18   F2    1.358700 S    
C33   C49   1.403785 A    
C45   C49   1.396747 A    
O8    C4    1.323876 A    
C2    C13   1.477625 S    
C50   H14   1.081197 S    
O9    C5    1.330065 A    
C18   C22   1.390875 A    
C35   C51   1.403744 A    
H4    C60   1.083857 S    
C25   C29   1.414041 A    
C56   H12   1.078166 S    
C10   C42   1.404518 A    
C39   C55   1.426621 A    
C67   H22   1.109759 S    
C9    C41   1.404517 A    
O6    V2    2.005653 S    
C31   C39   1.431792 A    
C16   C60   1.398412 A    
C52   H16   1.081095 S    
C75   H41   1.112126 S    
C27   C31   1.413987 A    
C66   C67   1.527054 S    
C72   H33   1.110372 S    
C38   C54   1.426572 A    
C71   C72   1.531957 S    
C76   H44   1.108580 S    
C37   C53   1.426584 A    
C69   H26   1.110498 S    
C22   C26   1.394095 A    
C29   C37   1.431858 A    
C47   O23   1.384752 S    
C3    O13   1.337674 A    
C27   F7    1.353121 S    
C13   C57   1.398419 A    
C6    C64   1.481124 S    
C46   O22   1.384160 S    
C44   C48   1.406668 A    
C72   H34   1.112007 S    
C71   H32   1.118628 S    
O6    C2    1.323873 A    
C74   H38   1.111361 S    
O11   V3    2.005608 S    
C73   H35   1.110256 S    
C14   C58   1.398333 A    
H1    C57   1.083861 S    
O12   V4    2.005769 S    
O21   C65   1.419268 S    
H2    C58   1.083868 S    
C21   F9    1.355996 S    
C17   F1    1.358688 S    
C28   C32   1.414032 A    
C9    H5    1.082579 S    
C20   F4    1.358689 S    
O10   C6    1.330105 A    
C68   H25   1.118960 S    
O20   V2    1.760527 S    
C24   F12   1.356004 S    
O2    C6    1.331021 A    
C47   C51   1.397040 A    
C74   H39   1.118757 S    
C65   H18   1.118755 S    
C17   C21   1.390856 A    
C45   O21   1.384506 S    
C33   C61   1.423296 A    
C20   C64   1.401631 A    
C19   C23   1.390918 A    
C32   C40   1.431915 A    
C54   H10   1.078209 S    
C12   H8    1.082577 S    
O24   C74   1.419258 S    
C29   C33   1.429086 A    
C24   C28   1.394080 A    
C42   C46   1.406582 A    
C4    O14   1.337727 A    
C41   C45   1.406643 A    
C75   H40   1.110423 S    
C26   F6    1.353209 S    
C68   H24   1.111466 S    
C43   C47   1.406775 A    
C67   H23   1.108586 S    
O4    V2    1.989706 S    
C20   C24   1.390865 A    
C19   C63   1.401685 A    
C14   C54   1.405452 A    
C65   C66   1.532021 S    
C11   C59   1.390975 A    
