data_mof_unit_64508.cif
_audit_creation_date              2013-03-05T16:19:36-0500
_audit_creation_method            fapswitch 2.2
_symmetry_space_group_name_H-M    P1
_symmetry_Int_Tables_number       1
_space_group_crystal_system       triclinic
_cell_length_a                    18.977012
_cell_length_b                    18.833759
_cell_length_c                    18.791
_cell_angle_alpha                 109.41041
_cell_angle_beta                  109.467912
_cell_angle_gamma                 109.795227
_cell_volume                      5153.32785026

loop_
_atom_site_label
_atom_site_type_symbol
_atom_site_description
_atom_site_fract_x
_atom_site_fract_y
_atom_site_fract_z
_atom_type_partial_charge
O1    O     O_R   0.409840 0.357650 0.447820 -0.533576
O2    O     O_R   0.409810 0.462010 0.552170 -0.603545
C1    C     C_R   0.380212 0.381134 0.498924 0.892350
O3    O     O_R   0.590190 0.447820 0.538000 -0.547464
O4    O     O_R   0.590150 0.552180 0.642350 -0.594383
C2    C     C_R   0.618563 0.500270 0.618966 0.876857
Cu1   Cu    Cu3+1 0.500020 0.438210 0.438210 1.067767
Cu2   Cu    Cu3+1 0.499980 0.561790 0.561790 1.102284
O5    O     O_R   0.590190 0.537990 0.447830 -0.598428
O6    O     O_R   0.590160 0.642350 0.552180 -0.542674
O7    O     O_R   0.409850 0.447820 0.357650 -0.591673
O8    O     O_R   0.409810 0.552180 0.462000 -0.540599
C3    C     C_R   0.619115 0.618858 0.500764 0.828300
C4    C     C_R   0.383330 0.501997 0.381234 0.856170
H1    H     H_    0.525108 0.200949 0.568767 0.189716
C5    C     C_R   0.777086 0.660502 0.756809 -0.259161
C6    C     C_R   0.847248 0.739526 0.828968 0.636065
C7    C     C_R   0.902072 0.740579 0.900583 0.600357
C8    C     C_R   0.889820 0.662357 0.898059 -0.317758
C9    C     C_R   0.822138 0.580879 0.822968 0.004626
C10   C     C_R   0.760684 0.580303 0.754711 -0.021903
C11   C     C_R   0.814429 0.500507 0.814415 -0.056975
C12   C     C_R   0.741280 0.420125 0.742435 0.007635
C13   C     C_R   0.671806 0.420410 0.683832 -0.036864
C14   C     C_R   0.684354 0.500236 0.686836 -0.094700
C15   C     C_R   0.735067 0.338827 0.727790 -0.147234
C16   C     C_R   0.658184 0.260633 0.664458 -0.173147
C17   C     C_R   0.586018 0.261598 0.614916 -0.145216
C18   C     C_R   0.591879 0.340265 0.624272 0.591269
H2    H     H_    0.736588 0.663446 0.702905 0.198941
H3    H     H_    0.933483 0.667090 0.956064 0.204393
H4    H     H_    0.789276 0.334443 0.764577 0.161604
H5    H     H_    0.653809 0.199155 0.655426 0.206875
C19   C     C_R   0.293412 0.228933 0.462184 -0.008040
C20   C     C_R   0.312281 0.314939 0.498019 -0.007073
C21   C     C_R   0.263238 0.335767 0.535146 -0.159505
H6    H     H_    0.274296 0.401527 0.563486 0.172586
C22   C     C_R   0.198536 0.270856 0.535219 -0.172532
H7    H     H_    0.161188 0.287682 0.563391 0.145289
C23   C     C_R   0.183619 0.185118 0.499984 -0.060176
C24   C     C_R   0.233046 0.167456 0.464564 -0.022916
C25   C     C_3   0.248604 0.097903 0.419693 1.136314
C26   C     C_3   0.317316 0.167679 0.416691 -0.453730
H8    H     H_    0.384524 0.184414 0.457842 0.224988
H9    H     H_    0.299947 0.156578 0.349779 0.229960
C27   C     C_R   0.258627 0.432306 0.234694 0.004147
C28   C     C_R   0.320431 0.506316 0.315349 -0.238645
C29   C     C_R   0.314889 0.583345 0.332157 0.231487
C30   C     C_R   0.246888 0.581231 0.267675 0.241277
C31   C     C_R   0.184733 0.502703 0.187247 -0.188580
C32   C     C_R   0.193200 0.430089 0.174446 -0.014060
C33   C     C_3   0.151867 0.335423 0.111834 -0.438994
C34   C     C_3   0.226071 0.337525 0.181191 0.205749
H10   H     H_    0.086486 0.296551 0.101095 0.255640
H11   H     H_    0.155264 0.324119 0.051423 0.174935
H12   H     H_    0.271037 0.324587 0.160500 0.122272
C35   C     C_R   0.772053 0.713015 0.550694 0.079023
C36   C     C_R   0.685240 0.686746 0.502222 -0.222227
C37   C     C_R   0.663936 0.735299 0.465421 -0.194810
H13   H     H_    0.597425 0.719667 0.432398 0.214396
C38   C     C_R   0.727949 0.801396 0.466861 0.691087
C39   C     C_R   0.814438 0.819631 0.505976 -0.181122
C40   C     C_R   0.835605 0.778214 0.552336 0.004106
C41   C     C_3   0.886561 0.732805 0.549936 -0.403785
C42   C     C_3   0.816164 0.660769 0.547275 0.443690
H14   H     H_    0.890006 0.711623 0.489122 0.219860
H15   H     H_    0.949933 0.769715 0.611306 0.247224
H16   H     H_    0.778673 0.596864 0.485845 0.113026
O9    O     O_R   0.947790 0.357650 0.909890 -0.555893
O10   O     O_R   0.052170 0.462000 0.909870 -0.593767
C43   C     C_R   0.000087 0.381120 0.881544 0.763210
O11   O     O_R   0.857610 0.447830 0.909870 -0.567078
O12   O     O_R   0.962000 0.552180 0.909850 -0.585968
C44   C     C_R   0.881381 0.500240 0.881377 0.763381
Cu3   Cu    Cu3+1 0.938170 0.438220 0.000040 1.099144
Cu4   Cu    Cu3+1 0.061780 0.561790 0.000020 1.056571
O13   O     O_R   0.947780 0.538010 0.090190 -0.572076
O14   O     O_R   0.052160 0.642360 0.090170 -0.570826
O15   O     O_R   0.037950 0.447840 0.090220 -0.562200
O16   O     O_R   0.142340 0.552190 0.090190 -0.570550
C45   C     C_R   0.999846 0.619146 0.118347 0.882575
C46   C     C_R   0.118330 0.499611 0.118292 0.867125
O17   O     O_R   0.052210 0.090180 0.642410 -0.586625
O18   O     O_R   0.947830 0.090230 0.538080 -0.549823
C47   C     C_R   0.000450 0.118592 0.618847 0.790547
O19   O     O_R   0.142360 0.090200 0.552220 -0.557790
O20   O     O_R   0.037990 0.090250 0.447890 -0.574894
C48   C     C_R   0.118241 0.118087 0.499508 0.800890
Cu5   Cu    Cu3+1 0.061800 0.000020 0.561820 1.101859
Cu6   Cu    Cu3+1 0.938200 0.000080 0.438280 1.132110
O21   O     O_R   0.052170 0.909870 0.462020 -0.527940
O22   O     O_R   0.947790 0.909920 0.357690 -0.585937
O23   O     O_R   0.962010 0.909850 0.552210 -0.591025
O24   O     O_R   0.857640 0.909910 0.447880 -0.511250
C49   C     C_R   0.999434 0.881156 0.380919 0.883235
C50   C     C_R   0.881131 0.882045 0.501106 0.875100
C51   C     C_R   0.928119 0.234087 0.753897 -0.116115
C52   C     C_R   0.001859 0.314779 0.816685 -0.026310
C53   C     C_R   0.079053 0.330143 0.814197 -0.162239
H17   H     H_    0.138796 0.391576 0.862040 0.162077
C54   C     C_R   0.079451 0.265157 0.749820 -0.180367
H18   H     H_    0.139192 0.277728 0.749018 0.149083
C55   C     C_R   0.002175 0.185324 0.685942 -0.045303
C56   C     C_R   0.928102 0.172920 0.690603 -0.050928
C57   C     C_3   0.834273 0.109539 0.648153 1.077724
C58   C     C_3   0.833473 0.179530 0.719466 0.016459
H19   H     H_    0.794910 0.207343 0.694069 0.085844
C59   C     C_R   0.922986 0.685192 0.173351 0.002995
C60   C     C_R   0.000041 0.687812 0.183107 -0.204812
C61   C     C_R   0.078766 0.763044 0.252472 -0.142539
H20   H     H_    0.139874 0.770794 0.258049 0.233892
C62   C     C_R   0.079270 0.826349 0.318476 0.685169
C63   C     C_R   0.000587 0.817399 0.312651 -0.163038
C64   C     C_R   0.923243 0.749537 0.236290 -0.112973
C65   C     C_3   0.839429 0.685514 0.221717 0.106942
C66   C     C_3   0.840102 0.614705 0.152790 0.431797
H21   H     H_    0.785777 0.697835 0.195078 0.175963
H22   H     H_    0.846794 0.564131 0.167654 0.140199
F1    F     F_    0.282888 0.068106 0.472607 -0.586109
F2    F     F_    0.177947 0.032274 0.338456 -0.619012
N1    N     N_R   0.376191 0.662838 0.414109 0.176348
O25   O     O_R   0.458599 0.697552 0.440888 -0.332086
O26   O     O_R   0.349586 0.702539 0.460608 -0.240155
N2    N     N_R   0.239292 0.657563 0.285294 0.153650
O27   O     O_R   0.168144 0.654167 0.280340 -0.370902
O28   O     O_R   0.304819 0.731571 0.311542 -0.252946
N3    N     N_R   0.196954 0.287911 0.221308 0.158728
O29   O     O_R   0.223472 0.234143 0.228801 -0.316691
O30   O     O_R   0.147571 0.299277 0.252810 -0.318715
F3    F     F_    0.704279 0.844627 0.427365 -0.577346
F4    F     F_    0.845491 0.655717 0.622435 -0.633823
F5    F     F_    0.787023 0.094175 0.565106 -0.625080
F6    F     F_    0.860823 0.815422 0.829954 -0.566700
F7    F     F_    0.819005 0.034023 0.652120 -0.594553
N4    N     N_R   0.816000 0.154357 0.780194 0.187356
O31   O     O_R   0.863534 0.130964 0.823815 -0.248866
O32   O     O_R   0.754738 0.159490 0.794102 -0.305606
F8    F     F_    0.156148 0.894598 0.388531 -0.556039
N5    N     N_R   0.848203 0.674510 0.297196 0.092255
O33   O     O_R   0.909477 0.662149 0.337656 -0.367594
O34   O     O_R   0.792642 0.674952 0.323024 -0.384174
F9    F     F_    0.774585 0.581234 0.069328 -0.628241
F10   F     F_    0.968302 0.817612 0.972456 -0.572204
F11   F     F_    0.517545 0.337202 0.578770 -0.697883

loop_
_geom_bond_atom_site_label_1
_geom_bond_atom_site_label_2
_geom_bond_distance
_ccdc_geom_bond_type
O20   C48   1.292890 A    
C15   H4    1.079068 S    
C54   H18   1.083289 S    
C39   C50   1.460468 S    
O12   C44   1.294847 A    
C8    C9    1.418909 A    
C26   H8    1.110088 S    
C8    H3    1.079790 S    
C64   C65   1.499983 S    
C9    C11   1.418152 A    
N4    O31   1.302333 A    
C16   H5    1.082248 S    
Cu1   O7    1.979310 S    
C15   C16   1.391471 A    
C5    C10   1.419035 A    
C7    F10   1.356347 S    
Cu4   O14   1.972517 S    
C7    C8    1.393158 A    
O11   Cu3   1.976238 S    
C22   H7    1.083392 S    
O7    C4    1.298733 A    
O19   C48   1.293403 A    
C25   F1    1.383420 S    
C2    C14   1.457764 S    
C58   H19   1.109382 S    
C5    H2    1.080284 S    
C65   C66   1.526672 S    
C51   C52   1.388214 A    
C59   C60   1.393110 A    
C6    C7    1.388824 A    
C19   C20   1.388125 A    
C24   C25   1.485889 S    
C12   C15   1.417776 A    
C59   C64   1.380894 A    
O9    C43   1.294508 A    
O5    C3    1.293550 A    
C61   H20   1.082245 S    
C62   C63   1.406523 A    
C34   N3    1.463858 S    
C13   C18   1.423553 A    
C20   C21   1.415970 A    
C5    C6    1.392661 A    
C65   H21   1.112908 S    
C21   H6    1.082870 S    
C12   C13   1.411333 A    
C35   C40   1.382119 A    
O10   C43   1.292763 A    
O13   C45   1.297225 A    
Cu5   O21   1.969291 S    
C47   C55   1.435835 S    
C33   H11   1.111549 S    
C37   H13   1.081503 S    
C54   C55   1.409153 A    
N4    O32   1.300410 A    
C19   C24   1.350964 A    
O18   Cu6   1.969287 S    
O3    Cu1   1.975575 S    
C56   C57   1.487431 S    
C42   F4    1.383739 S    
C33   H10   1.111673 S    
Cu6   O24   1.970459 S    
C57   F5    1.383617 S    
C35   C36   1.391667 A    
O17   Cu5   1.973233 S    
C43   C52   1.446139 S    
C37   C38   1.399106 A    
C32   C33   1.490530 S    
C41   H15   1.111698 S    
C62   F8    1.355946 S    
Cu1   Cu2   2.686946 S    
O18   C47   1.294441 A    
O16   C46   1.292063 A    
C29   N1    1.435282 S    
C3    C36   1.441275 S    
C36   C37   1.400773 A    
C30   N2    1.432809 S    
C27   C32   1.349656 A    
O6    C3    1.290559 A    
O22   C49   1.294649 A    
O1    C1    1.296123 A    
C41   H14   1.110767 S    
Cu3   Cu4   2.687438 S    
N3    O30   1.302257 A    
C39   C40   1.399763 A    
O15   C46   1.292343 A    
C26   H9    1.111571 S    
Cu6   O22   1.973237 S    
C28   C29   1.427037 A    
C1    C20   1.448825 S    
Cu2   O8    1.975577 S    
C42   H16   1.111937 S    
C31   C32   1.382007 A    
C13   C14   1.418559 A    
O24   C50   1.297939 A    
Cu3   O13   1.970011 S    
N1    O25   1.300221 A    
C38   F3    1.357461 S    
C66   F9    1.383904 S    
C51   C58   1.494622 S    
O11   C44   1.294275 A    
C58   N4    1.463635 S    
O17   C47   1.292587 A    
C45   C60   1.449511 S    
C52   C53   1.414001 A    
O23   C50   1.300410 A    
C6    F6    1.356354 S    
O12   Cu4   1.978540 S    
O3    C2    1.294322 A    
C25   C26   1.538865 S    
C11   C44   1.463055 S    
O10   Cu4   1.970011 S    
N3    O29   1.300478 A    
C55   C56   1.382549 A    
C33   C34   1.545226 S    
C31   C46   1.442922 S    
N2    O28   1.301029 A    
C63   C64   1.397639 A    
C34   H12   1.112523 S    
Cu1   O5    1.970342 S    
C10   C14   1.417601 A    
C27   C28   1.385358 A    
C17   C18   1.393075 A    
C53   C54   1.410571 A    
O1    Cu1   1.973012 S    
O2    Cu2   1.970343 S    
C19   C26   1.491623 S    
Cu4   O16   1.976116 S    
C35   C42   1.491580 S    
O19   Cu5   1.970580 S    
O4    Cu2   1.979309 S    
N5    O33   1.302331 A    
C4    C28   1.453213 S    
C57   C58   1.544851 S    
C53   H17   1.083077 S    
C41   C42   1.520057 S    
C59   C66   1.491755 S    
C21   C22   1.409865 A    
O2    C1    1.292158 A    
O8    C4    1.290618 A    
C60   C61   1.406847 A    
C22   C23   1.407413 A    
N5    O34   1.300639 A    
O14   C45   1.291238 A    
C23   C48   1.434343 S    
H1    C17   1.082613 S    
O4    C2    1.291911 A    
C49   C63   1.449359 S    
C29   C30   1.423351 A    
C27   C34   1.491688 S    
C66   H22   1.111981 S    
O9    Cu3   1.972515 S    
Cu5   O23   1.973007 S    
C38   C39   1.413645 A    
C61   C62   1.400490 A    
N1    O26   1.301136 A    
C51   C56   1.352968 A    
O21   C49   1.298282 A    
C40   C41   1.494024 S    
C9    C10   1.410839 A    
C18   F11   1.353679 S    
Cu2   O6    1.973014 S    
C30   C31   1.416774 A    
O20   Cu6   1.973009 S    
C16   C17   1.385910 A    
C25   F2    1.383819 S    
C11   C12   1.418592 A    
N2    O27   1.299814 A    
C23   C24   1.383379 A    
Cu5   Cu6   2.695333 S    
C65   N5    1.464124 S    
Cu3   O15   1.978538 S    
C57   F7    1.384944 S    
