data_mof_unit_34416.cif
_audit_creation_date              2012-12-10T18:49:24-0500
_audit_creation_method            fapswitch 2.2
_symmetry_space_group_name_H-M    P1
_symmetry_Int_Tables_number       1
_space_group_crystal_system       triclinic
_cell_length_a                    9.922867
_cell_length_b                    10.754706
_cell_length_c                    13.56019
_cell_angle_alpha                 91.46144
_cell_angle_beta                  81.190743
_cell_angle_gamma                 89.647475
_cell_volume                      1429.49992432

loop_
_atom_site_label
_atom_site_type_symbol
_atom_type_description
_atom_site_fract_x
_atom_site_fract_y
_atom_site_fract_z
_atom_type_partial_charge
C1    C     C_R   0.500996 0.739636 0.496457 0.874345
C2    C     C_R   0.499010 0.260362 0.503522 0.872770
C3    C     C_R   0.497522 0.127719 0.506375 -0.087707
C4    C     C_R   0.502493 0.872277 0.493556 -0.087505
C5    C     C_R   0.473839 0.499906 0.686059 0.899260
C6    C     C_R   0.526151 0.500083 0.313943 0.896965
C7    C     C_R   0.948377 0.444789 0.422194 0.446176
C8    C     C_R   0.051658 0.555281 0.577756 0.475918
C9    C     C_R   0.090609 0.445827 0.423644 -0.252147
C10   C     C_R   0.909402 0.554013 0.576436 -0.229261
C11   C     C_1   0.547896 0.500513 0.209129 -0.110806
C12   C     C_1   0.452047 0.499362 0.790872 -0.109216
C13   C     C_2   0.559581 0.500951 0.016433 -0.160023
C14   C     C_2   0.440262 0.498695 0.983574 -0.173892
C15   C     C_1   0.440709 0.498955 0.879379 0.047849
C16   C     C_1   0.559168 0.500804 0.120624 0.044660
C17   C     C_R   0.625130 0.937688 0.467275 -0.016064
C18   C     C_R   0.374889 0.062306 0.532651 -0.015355
C19   C     C_R   0.620980 0.065178 0.475571 -0.211205
C20   C     C_R   0.379034 0.934822 0.524332 -0.214296
H1    H     H_    0.160794 0.403503 0.363261 0.204080
H2    H     H_    0.839277 0.596057 0.637032 0.227527
H3    H     H_    0.343938 0.496707 0.034013 0.167167
H4    H     H_    0.655899 0.502946 0.965990 0.178954
H5    H     H_    0.714691 0.115413 0.454572 0.197066
H6    H     H_    0.285316 0.884597 0.545319 0.196714
N1    N     N_R   0.142790 0.500030 0.500020 -0.158795
N2    N     N_R   0.857210 0.499970 0.499980 -0.162955
O1    O     O_R   0.385380 0.683250 0.500010 -0.589652
O2    O     O_R   0.614620 0.316750 0.499990 -0.592769
O3    O     O_R   0.614710 0.683220 0.500000 -0.615472
O4    O     O_R   0.385290 0.316780 0.500000 -0.613773
O5    O     O_R   0.368830 0.499990 0.640350 -0.519016
O6    O     O_R   0.631170 0.500010 0.359650 -0.518288
O7    O     O_R   0.598160 0.499960 0.640350 -0.642130
O8    O     O_R   0.401840 0.500040 0.359650 -0.646947
Zn1   Zn    Zn3+2 0.346870 0.500020 0.500000 1.018188
Zn2   Zn    Zn3+2 0.653130 0.499980 0.500000 1.020905
S1    S     S_3+6 0.900935 0.374732 0.312704 0.020988
O9    O     O_2   0.779124 0.292963 0.334883 -0.270896
O10   O     O_2   0.871032 0.474579 0.243363 -0.341402
O11   O     O_3   0.029774 0.285240 0.253375 -0.569712
H7    H     H_    0.082059 0.339370 0.203509 0.358458
S2    S     S_3+6 0.099098 0.625529 0.687128 0.006607
O12   O     O_2   0.127538 0.525475 0.756669 -0.328509
O13   O     O_2   0.221108 0.707081 0.664816 -0.308930
O14   O     O_3   0.969632 0.714515 0.745868 -0.599605
H8    H     H_    0.000294 0.744254 0.808443 0.389096
C21   C     C_R   0.758334 0.878110 0.428186 0.134926
C22   C     C_R   0.864631 0.880777 0.485687 -0.124679
C23   C     C_R   0.990421 0.824902 0.448801 -0.146795
C24   C     C_R   0.011325 0.767176 0.354147 -0.135448
C25   C     C_R   0.906311 0.765240 0.296184 -0.061399
C26   C     C_R   0.779867 0.820060 0.333083 -0.096406
H9    H     H_    0.849552 0.925079 0.559231 0.151464
H10   H     H_    0.071460 0.825936 0.493773 0.158465
H11   H     H_    0.108791 0.723850 0.325805 0.141938
H12   H     H_    0.922915 0.721326 0.222599 0.164776
H13   H     H_    0.699013 0.817639 0.287728 0.114282
C27   C     C_R   0.241702 0.121866 0.571807 0.133985
C28   C     C_R   0.220216 0.179793 0.666955 -0.106768
C29   C     C_R   0.093774 0.234555 0.703940 -0.062317
C30   C     C_R   0.988715 0.232687 0.646016 -0.134619
C31   C     C_R   0.009573 0.175088 0.551315 -0.147657
C32   C     C_R   0.135362 0.119265 0.514345 -0.125025
H14   H     H_    0.301102 0.182153 0.712283 0.115019
H15   H     H_    0.077208 0.278370 0.777562 0.168995
H16   H     H_    0.891246 0.275964 0.674428 0.145975
H17   H     H_    0.928496 0.174104 0.506377 0.160324
H18   H     H_    0.150405 0.075048 0.440769 0.153602

loop_
_geom_bond_atom_site_label_1
_geom_bond_atom_site_label_2
_ccdc_geom_bond_type
C14   H3    S    
C8    S2    S    
C25   H12   S    
S2    O14   S    
O3    Zn2   S    
C3    C19   A    
C29   C30   A    
C30   C31   A    
C31   H17   S    
C11   C16   T    
O14   H8    S    
C14   C15   S    
C12   C15   T    
N2    Zn2   S    
C2    O2    A    
C1    C4    S    
C31   C32   A    
C1    O1    A    
C22   C23   A    
C23   C24   A    
S1    O10   D    
C13   C14   D    
C10   H2    S    
C9    H1    S    
C20   H6    S    
C29   H15   S    
N1    Zn1   S    
C4    C17   A    
C5    O7    A    
C13   H4    S    
C18   C27   S    
O8    Zn1   S    
C17   C19   A    
S2    O13   D    
C27   C32   A    
C21   C22   A    
S1    O11   S    
C18   C20   A    
C26   H13   S    
C28   C29   A    
C19   H5    S    
O5    Zn1   S    
O4    Zn1   S    
C24   H11   S    
C7    N2    A    
S1    O9    D    
O1    Zn1   S    
C21   C26   A    
C4    C20   A    
C5    O5    A    
C6    O6    A    
C1    O3    A    
O7    Zn2   S    
C24   C25   A    
C9    N1    A    
C3    C18   A    
C2    O4    A    
C23   H10   S    
O11   H7    S    
C13   C16   S    
C10   N2    A    
C6    C11   S    
C7    C9    A    
C8    N1    A    
C7    S1    S    
C30   H16   S    
C2    C3    S    
O2    Zn2   S    
C32   H18   S    
O6    Zn2   S    
C28   H14   S    
C8    C10   A    
C17   C21   S    
S2    O12   D    
C22   H9    S    
C25   C26   A    
C6    O8    A    
C27   C28   A    
C5    C12   S    
