data_mof_unit_50245.cif
_audit_creation_date              2012-12-11T16:26:35-0500
_audit_creation_method            fapswitch 2.2
_symmetry_space_group_name_H-M    P1
_symmetry_Int_Tables_number       1
_space_group_crystal_system       triclinic
_cell_length_a                    6.928435
_cell_length_b                    17.608291
_cell_length_c                    19.524425
_cell_angle_alpha                 108.507113
_cell_angle_beta                  89.528209
_cell_angle_gamma                 90.753361
_cell_volume                      2258.53914062

loop_
_atom_site_label
_atom_site_type_symbol
_atom_type_description
_atom_site_fract_x
_atom_site_fract_y
_atom_site_fract_z
_atom_type_partial_charge
O1    O     O_R   0.494330 0.415720 0.413720 -0.545131
O2    O     O_R   0.819330 0.430070 0.560210 -0.542838
O3    O     O_R   0.994320 0.584280 0.586280 -0.535028
C1    C     C_R   0.649864 0.413610 0.580794 0.688579
O4    O     O_R   0.823730 0.406300 0.412670 -0.548383
O5    O     O_R   0.998760 0.560340 0.437690 -0.514284
C2    C     C_R   0.653543 0.382891 0.385204 0.666838
O6    O     O_R   0.489890 0.439660 0.562310 -0.531221
O7    O     O_3   0.662340 0.550560 0.508380 -0.358358
V1    V     V_3+5 0.935370 0.490620 0.498450 1.461030
O8    O     O_R   0.328750 0.569930 0.439790 -0.562696
C3    C     C_R   0.161573 0.583741 0.416994 0.745956
O9    O     O_R   0.324340 0.593700 0.587330 -0.537285
C4    C     C_R   0.155476 0.616717 0.614973 0.685278
V2    V     V_3+5 0.435940 0.509380 0.501550 1.455496
O10   O     O_3   0.159100 0.449440 0.491620 -0.375906
C5    C     C_R   0.287021 0.600227 0.749207 -0.166701
C6    C     C_R   0.354825 0.587565 0.811839 -0.095518
C7    C     C_R   0.343800 0.649365 0.878054 -0.084548
C8    C     C_R   0.264780 0.723916 0.880636 0.318493
C9    C     C_R   0.198965 0.738053 0.816505 0.012756
C10   C     C_R   0.211411 0.674388 0.749686 -0.012722
C11   C     C_R   0.120117 0.813212 0.817264 -0.148858
C12   C     C_R   0.055353 0.823128 0.751683 0.050354
C13   C     C_R   0.067828 0.758951 0.685537 -0.007366
C14   C     C_R   0.145697 0.684537 0.684350 -0.128892
C15   C     C_R   0.981378 0.897285 0.750333 -0.203647
C16   C     C_R   0.919718 0.907666 0.686220 -0.191303
C17   C     C_R   0.931387 0.844678 0.621073 0.434316
C18   C     C_R   0.005540 0.771382 0.621038 -0.132574
H1    H     H_    0.295674 0.550809 0.699434 0.164061
H2    H     H_    0.971352 0.948609 0.798592 0.121463
H3    H     H_    0.863864 0.965264 0.687457 0.150120
H4    H     H_    0.015259 0.724640 0.569454 0.152616
C19   C     C_R   0.302511 0.624408 0.312869 -0.109695
C20   C     C_R   0.156827 0.632164 0.366381 -0.184063
C21   C     C_R   0.000556 0.683849 0.370172 0.351402
C22   C     C_R   0.991446 0.730184 0.322829 0.023129
C23   C     C_R   0.139403 0.724868 0.271286 -0.047753
C24   C     C_R   0.299567 0.673631 0.267132 0.053025
C25   C     C_R   0.840868 0.784779 0.328667 -0.099162
C26   C     C_R   0.825355 0.830258 0.281650 -0.081965
C27   C     C_R   0.967126 0.822148 0.227145 0.048671
C28   C     C_R   0.128089 0.772039 0.224390 0.113753
C29   C     C_R   0.279952 0.770366 0.175432 0.090537
C30   C     C_R   0.440825 0.723108 0.173639 -0.260219
C31   C     C_R   0.453857 0.675020 0.218636 0.371195
C32   C     C_R   0.955740 0.863800 0.176139 -0.208517
C33   C     C_R   0.109849 0.863710 0.128979 -0.035014
C34   C     C_R   0.272705 0.817887 0.129970 -0.095718
H5    H     H_    0.735005 0.794214 0.371451 0.182683
H6    H     H_    0.830978 0.898931 0.173843 0.095556
H7    H     H_    0.394041 0.818826 0.094916 0.142004
H8    H     H_    0.559407 0.724428 0.137447 0.157287
C35   C     C_R   0.773490 0.185210 0.868635 -0.210191
C36   C     C_R   0.621214 0.131793 0.867130 -0.073741
C37   C     C_R   0.468628 0.125494 0.818645 -0.150281
C38   C     C_R   0.463094 0.173588 0.772966 -0.064955
C39   C     C_R   0.617351 0.227785 0.775234 0.035726
C40   C     C_R   0.771348 0.233853 0.823878 0.083694
C41   C     C_R   0.308110 0.168601 0.724766 0.313290
C42   C     C_R   0.312023 0.214128 0.677474 0.410931
C43   C     C_R   0.471462 0.265744 0.676612 -0.042096
C44   C     C_R   0.620320 0.274860 0.728175 -0.056759
C45   C     C_R   0.774356 0.329999 0.732141 0.053802
C46   C     C_R   0.918507 0.340021 0.785755 0.328167
C47   C     C_R   0.919619 0.289737 0.828441 -0.173500
C48   C     C_R   0.488866 0.306165 0.624282 0.391567
C49   C     C_R   0.640445 0.362557 0.629032 -0.111901
C50   C     C_R   0.782572 0.372575 0.682005 -0.225474
H9    H     H_    0.891759 0.189937 0.905673 0.169059
H10   H     H_    0.357026 0.081246 0.816304 0.120239
H11   H     H_    0.900658 0.413692 0.682974 0.142145
H12   H     H_    0.035025 0.296288 0.867152 0.165102
C51   C     C_R   0.837804 0.391596 0.254055 -0.095236
C52   C     C_R   0.934514 0.398805 0.193498 0.352050
C53   C     C_R   0.931460 0.333839 0.128474 -0.052551
C54   C     C_R   0.829133 0.263723 0.126246 -0.165404
C55   C     C_R   0.731488 0.255610 0.187564 0.031609
C56   C     C_R   0.738621 0.320609 0.253186 -0.003478
C57   C     C_R   0.622547 0.185211 0.183691 -0.149577
C58   C     C_R   0.519398 0.180967 0.245544 0.043069
C59   C     C_R   0.517756 0.247676 0.309665 0.084752
C60   C     C_R   0.638140 0.315730 0.315417 -0.144506
C61   C     C_R   0.418535 0.110381 0.245025 -0.190641
C62   C     C_R   0.300370 0.107691 0.302847 0.020423
C63   C     C_R   0.282956 0.176530 0.363551 -0.063412
C64   C     C_R   0.394343 0.244344 0.366739 -0.232514
H13   H     H_    0.839447 0.443834 0.301709 0.134854
H14   H     H_    0.821560 0.216636 0.074886 0.161093
H15   H     H_    0.428363 0.056477 0.199098 0.136631
H16   H     H_    0.381006 0.294414 0.414996 0.125329
O11   O     O_R   0.775200 0.060470 0.937800 -0.547048
O12   O     O_R   0.441110 0.093720 0.087350 -0.533700
O13   O     O_R   0.266330 0.939630 0.062280 -0.547482
C65   C     C_R   0.610606 0.117129 0.114735 0.684117
O14   O     O_R   0.445750 0.069950 0.939820 -0.536856
O15   O     O_R   0.271000 0.915700 0.913700 -0.538145
C66   C     C_R   0.614814 0.084078 0.917511 0.701469
O16   O     O_R   0.770530 0.084400 0.086380 -0.544832
O17   O     O_3   0.602830 0.949510 0.991680 -0.375669
V3    V     V_3+5 0.329710 0.009370 0.001550 1.462749
O18   O     O_R   0.940990 0.906170 0.912570 -0.539856
C67   C     C_R   0.109990 0.882823 0.885211 0.780150
O19   O     O_R   0.936350 0.929940 0.060100 -0.541346
C68   C     C_R   0.103948 0.914438 0.081245 0.750185
V4    V     V_3+5 0.829160 0.990450 0.998310 1.446703
O20   O     O_3   0.105910 0.050480 0.008320 -0.364255
O21   O     O_3   0.873066 0.852921 0.556433 -0.614011
H17   H     H_    0.824626 0.908017 0.565487 0.312150
O22   O     O_3   0.860482 0.689592 0.422239 -0.623579
H18   H     H_    0.732878 0.686056 0.398913 0.279866
C69   C     C_2   0.665227 0.888825 0.294192 0.453596
H19   H     H_    0.669323 0.937900 0.272061 0.054525
O23   O     O_2   0.526054 0.883840 0.331415 -0.491246
O24   O     O_3   0.620561 0.632382 0.217829 -0.633810
H20   H     H_    0.713460 0.641226 0.182112 0.300333
O25   O     O_3   0.147255 0.120685 0.722457 -0.610845
H21   H     H_    0.114995 0.121815 0.772196 0.279650
O26   O     O_3   0.151311 0.209077 0.635071 -0.571664
H22   H     H_    0.113682 0.264570 0.639699 0.328144
O27   O     O_3   0.364311 0.286070 0.566564 -0.641216
H23   H     H_    0.434993 0.291675 0.524334 0.262774
O28   O     O_3   0.060931 0.398012 0.798532 -0.628379
H24   H     H_    0.005698 0.446545 0.791507 0.292792
C70   C     C_2   0.155316 0.180669 0.426157 0.411963
H25   H     H_    0.101026 0.238271 0.459340 0.079641
O29   O     O_2   0.115510 0.121428 0.443326 -0.489650
O30   O     O_3   0.028133 0.470748 0.201078 -0.631204
H26   H     H_    0.123500 0.463992 0.161807 0.305932
C71   C     C_2   0.025951 0.338674 0.061460 0.345747
H27   H     H_    0.046085 0.395679 0.051975 0.061486
O31   O     O_2   0.082951 0.278287 0.015552 -0.544130
C72   C     C_2   0.439898 0.509095 0.806821 0.397283
H28   H     H_    0.532192 0.502435 0.849091 0.039577
O32   O     O_2   0.406386 0.450253 0.755026 -0.527364
C73   C     C_2   0.193140 0.032964 0.297210 0.425031
H29   H     H_    0.048976 0.034386 0.319582 0.078529
O33   O     O_2   0.267251 0.968365 0.267819 -0.528088
C74   C     C_2   0.400622 0.633505 0.945511 0.367627
H30   H     H_    0.363053 0.576674 0.953093 0.055396
O34   O     O_2   0.495835 0.682017 0.991827 -0.550160
O35   O     O_3   0.237384 0.780224 0.946906 -0.650940
H31   H     H_    0.367945 0.796143 0.967046 0.317162
C75   C     C_2   0.446160 0.559547 0.301087 0.523722
H32   H     H_    0.554184 0.561860 0.341543 0.031241
O36   O     O_2   0.444195 0.502792 0.245448 -0.512609

loop_
_geom_bond_atom_site_label_1
_geom_bond_atom_site_label_2
_ccdc_geom_bond_type
O17   V4    S    
C24   C31   A    
C35   C36   A    
C70   H25   S    
C25   C26   A    
O22   H18   S    
C12   C15   A    
C1    O6    A    
C57   C58   A    
C61   H15   S    
C29   C30   A    
C54   H14   S    
C73   O33   D    
C39   C44   A    
C42   C43   A    
C17   O21   S    
C16   C17   A    
C21   C22   A    
C74   O34   D    
O30   H26   S    
C53   C71   S    
C22   C23   A    
V2    O10   S    
O24   H20   S    
C6    C7    A    
C19   C75   S    
O25   H21   S    
C62   C73   S    
O14   C66   A    
C9    C10   A    
C43   C48   A    
O8    V2    S    
C64   H16   S    
C40   C47   A    
C48   C49   A    
V4    O20   S    
V3    O20   S    
O1    V2    S    
C3    C20   S    
O7    V1    S    
O11   C66   A    
C42   O26   S    
O14   V3    S    
O13   V3    S    
C56   C60   A    
C38   C41   A    
C59   C64   A    
C15   H2    S    
C73   H29   S    
C39   C40   A    
C37   H10   S    
C35   C40   A    
C8    O35   S    
C41   C42   A    
C1    C49   S    
C75   O36   D    
C75   H32   S    
C52   C53   A    
C31   O24   S    
C34   H7    S    
C18   H4    S    
O17   V3    S    
C12   C13   A    
C22   C25   A    
C48   O27   S    
C23   C24   A    
O4    C2    A    
C57   C65   S    
C62   C63   A    
C7    C74   S    
C72   O32   D    
C38   C39   A    
C53   C54   A    
C4    C14   S    
C55   C56   A    
C19   C20   A    
C45   C50   A    
O2    C1    A    
C51   C52   A    
C17   C18   A    
O13   C68   A    
O19   V4    S    
C52   O30   S    
C26   C69   S    
C59   C60   A    
C11   C12   A    
C27   C32   A    
C30   H8    S    
C50   H11   S    
C5    C6    A    
C47   H12   S    
C74   H30   S    
O12   C65   A    
C61   C62   A    
C23   C28   A    
O3    C4    A    
C32   C33   A    
C16   H3    S    
C58   C59   A    
O6    V2    S    
C2    C60   S    
C9    C11   A    
C27   C28   A    
C5    H1    S    
C46   O28   S    
C26   C27   A    
C71   H27   S    
O2    V1    S    
O18   C67   A    
O26   H22   S    
C55   C57   A    
C69   H19   S    
C51   C56   A    
C13   C18   A    
C36   C37   A    
C30   C31   A    
C20   C21   A    
O16   V4    S    
C70   O29   D    
C41   O25   S    
O1    C2    A    
C28   C29   A    
C71   O31   D    
O5    V1    S    
O18   V4    S    
O8    C3    A    
C33   C68   S    
C58   C61   A    
O19   C68   A    
C72   H28   S    
C5    C10   A    
C44   C45   A    
C7    C8    A    
O9    V2    S    
C19   C24   A    
C13   C14   A    
O4    V1    S    
O3    V1    S    
O15   V3    S    
O21   H17   S    
O11   V4    S    
O5    C3    A    
C54   C55   A    
C37   C38   A    
C29   C34   A    
O15   C67   A    
C65   O16   A    
C46   C47   A    
C6    C72   S    
C45   C46   A    
C11   C67   S    
O7    V2    S    
C49   C50   A    
C21   O22   S    
C51   H13   S    
C43   C44   A    
C32   H6    S    
C8    C9    A    
O12   V3    S    
C63   C64   A    
C33   C34   A    
C10   C14   A    
C15   C16   A    
V1    O10   S    
C36   C66   S    
O27   H23   S    
O9    C4    A    
C25   H5    S    
C63   C70   S    
C35   H9    S    
O35   H31   S    
O28   H24   S    
C69   O23   D    
