data_mof_unit_49611.cif
_audit_creation_date              2013-03-05T15:48:55-0500
_audit_creation_method            fapswitch 2.2
_symmetry_space_group_name_H-M    P1
_symmetry_Int_Tables_number       1
_space_group_crystal_system       triclinic
_cell_length_a                    6.94349
_cell_length_b                    13.527082
_cell_length_c                    20.094347
_cell_angle_alpha                 103.996666
_cell_angle_beta                  90.041865
_cell_angle_gamma                 90.564973
_cell_volume                      1831.23002382

loop_
_atom_site_label
_atom_site_type_symbol
_atom_site_description
_atom_site_fract_x
_atom_site_fract_y
_atom_site_fract_z
_atom_type_partial_charge
O1    O     O_R   0.506780 0.600060 0.449950 -0.588716
O2    O     O_R   0.179840 0.597110 0.589410 -0.585970
O3    O     O_R   0.004570 0.399940 0.550050 -0.566305
C1    C     C_R   0.348647 0.618492 0.616906 1.025016
O4    O     O_R   0.177380 0.612160 0.452890 -0.604196
O5    O     O_R   0.002100 0.415100 0.412560 -0.606130
C2    C     C_R   0.346968 0.639052 0.436258 0.975498
O6    O     O_R   0.509250 0.584900 0.587440 -0.605375
O7    O     O_3   0.337570 0.435330 0.486930 -0.273537
V1    V     V_3+5 0.064650 0.512000 0.502430 1.198933
O8    O     O_R   0.672090 0.402890 0.410590 -0.575142
C3    C     C_R   0.840604 0.380546 0.383281 0.950053
O9    O     O_R   0.674540 0.387840 0.547110 -0.597840
C4    C     C_R   0.843124 0.360724 0.563370 0.953351
V2    V     V_3+5 0.564040 0.488000 0.497570 1.203032
O10   O     O_3   0.840990 0.564670 0.513070 -0.284984
C5    C     C_R   0.912601 0.109869 0.608091 -0.130023
H1    H     H_    0.907646 0.159653 0.514513 0.117866
H2    H     H_    0.952425 0.986228 0.691161 0.124943
H3    H     H_    0.942978 0.031806 0.581646 0.123056
C6    C     C_R   0.852703 0.283130 0.602622 -0.116404
C7    C     C_R   0.821686 0.316783 0.932287 -0.185420
C8    C     C_R   0.797406 0.392103 0.896858 -0.056326
C9    C     C_R   0.808144 0.368491 0.825538 -0.077995
C10   C     C_R   0.846141 0.267881 0.787504 0.072464
C11   C     C_R   0.872704 0.191122 0.824305 0.080130
C12   C     C_R   0.858039 0.240828 0.714333 0.076875
C13   C     C_R   0.897375 0.138179 0.679870 0.151536
C14   C     C_R   0.922759 0.064574 0.717138 -0.199419
C15   C     C_R   0.910459 0.090364 0.788138 -0.117958
C16   C     C_R   0.834116 0.312174 0.673935 -0.131492
C17   C     C_R   0.891889 0.182184 0.569752 -0.145273
C18   C     C_R   0.858939 0.216631 0.896786 -0.162444
H4    H     H_    0.804714 0.391346 0.696069 0.130542
H5    H     H_    0.809475 0.336414 0.987694 0.109793
H6    H     H_    0.785286 0.430899 0.801970 0.143603
H7    H     H_    0.768035 0.469454 0.924861 0.127253
H8    H     H_    0.931252 0.030250 0.814471 0.133101
C19   C     C_3   0.685428 0.199633 0.235329 -0.230801
C20   C     C_3   0.816631 0.192635 0.296674 -0.206644
H9    H     H_    0.784497 0.147808 0.334948 0.130745
H10   H     H_    0.542635 0.162127 0.222633 0.122432
C21   C     C_3   0.850165 0.309040 0.313220 -0.154332
C22   C     C_3   0.722928 0.315123 0.252448 0.586370
C23   C     C_3   0.897990 0.302740 0.204524 -0.241260
C24   C     C_3   0.028410 0.294973 0.265911 -0.149207
C25   C     C_3   0.995012 0.177797 0.248670 -0.072262
C26   C     C_3   0.864088 0.186409 0.188214 -0.138566
H11   H     H_    0.928441 0.348475 0.166639 0.136338
H12   H     H_    0.169911 0.333830 0.278827 0.168347
H13   H     H_    0.108926 0.120079 0.246555 0.110219
C27   C     C_3   0.540168 0.731923 0.728188 -0.256022
C28   C     C_3   0.439834 0.835931 0.748526 0.616744
H14   H     H_    0.690995 0.719689 0.709960 0.153559
C29   C     C_3   0.356310 0.810899 0.813079 -0.188717
C30   C     C_3   0.454586 0.705658 0.793678 -0.277350
C31   C     C_3   0.272791 0.662915 0.752296 0.468036
C32   C     C_3   0.172463 0.766911 0.772592 -0.255916
C33   C     C_3   0.257913 0.793306 0.707121 -0.307734
C34   C     C_3   0.356220 0.687789 0.687505 -0.273369
H15   H     H_    0.531949 0.668560 0.829346 0.156265
H16   H     H_    0.021748 0.779439 0.790900 0.159614
H17   H     H_    0.180879 0.830449 0.671429 0.137201
C35   C     C_R   0.452934 0.889750 0.393653 0.517419
H18   H     H_    0.455613 0.834393 0.485205 0.131247
H19   H     H_    0.510382 0.011786 0.304982 0.131396
C36   C     C_R   0.361807 0.718108 0.397937 -0.193018
C37   C     C_R   0.309959 0.684872 0.069669 -0.276336
C38   C     C_R   0.312008 0.607526 0.104082 -0.120565
C39   C     C_R   0.353758 0.628640 0.174076 0.471077
C40   C     C_R   0.371087 0.731952 0.213140 -0.057140
C41   C     C_R   0.386036 0.809357 0.176277 0.076388
C42   C     C_R   0.377811 0.761099 0.286675 0.068503
C43   C     C_R   0.430974 0.862951 0.320957 0.022018
C44   C     C_R   0.463724 0.934674 0.281948 -0.220540
C45   C     C_R   0.434298 0.909424 0.211559 -0.179354
C46   C     C_R   0.327223 0.693113 0.327441 -0.250110
C47   C     C_R   0.428709 0.815230 0.430402 -0.224783
C48   C     C_R   0.355208 0.784691 0.104406 -0.164866
H20   H     H_    0.262335 0.619595 0.305551 0.185005
H21   H     H_    0.282897 0.665968 0.014888 0.152143
H22   H     H_    0.292679 0.529349 0.075195 0.148591
H23   H     H_    0.453750 0.969204 0.184724 0.114684
O11   O     O_R   0.203580 0.914920 0.912610 -0.603670
O12   O     O_R   0.535710 0.887810 0.047120 -0.599898
O13   O     O_R   0.710730 0.084950 0.087430 -0.604523
C49   C     C_R   0.366462 0.861992 0.064526 0.943487
O14   O     O_R   0.533010 0.902850 0.910600 -0.588903
O15   O     O_R   0.708010 0.100090 0.949930 -0.580655
C50   C     C_R   0.364210 0.881362 0.883166 1.005199
O16   O     O_R   0.206300 0.899780 0.050100 -0.594840
O17   O     O_3   0.375170 0.064580 0.013100 -0.279180
V3    V     V_3+5 0.648200 0.988020 0.997570 1.182298
O18   O     O_R   0.038030 0.112330 0.952840 -0.596197
C51   C     C_R   0.869355 0.138842 0.936187 0.934653
O19   O     O_R   0.040730 0.097300 0.089360 -0.600053
C52   C     C_R   0.872550 0.117574 0.117315 0.938013
V4    V     V_3+5 0.148780 0.012220 0.002360 1.174343
O20   O     O_3   0.871930 0.935430 0.986900 -0.273669
O21   O     O_3   0.578944 0.387327 0.255535 -0.765176
H24   H     H_    0.503888 0.363486 0.212564 0.330393
O22   O     O_3   0.527593 0.929106 0.747857 -0.770736
H25   H     H_    0.564044 0.923569 0.699421 0.304442
N1    N     N_R   0.181162 0.567438 0.756857 0.217367
O23   O     O_R   0.114793 0.557679 0.815444 -0.446158
O24   O     O_R   0.175275 0.489928 0.703990 -0.437627
O25   O     O_3   0.502234 0.986477 0.430670 -0.770023
H26   H     H_    0.435499 0.036374 0.410274 0.302323
O26   O     O_3   0.398347 0.546338 0.199791 -0.774614
H27   H     H_    0.509750 0.566864 0.231174 0.341859

loop_
_geom_bond_atom_site_label_1
_geom_bond_atom_site_label_2
_geom_bond_distance
_ccdc_geom_bond_type
C32   H16   1.110450 S    
C20   C25   1.554939 S    
C29   C30   1.547692 S    
C44   C45   1.386898 A    
C49   O16   1.290139 A    
C42   C43   1.428120 A    
C36   C46   1.394581 A    
C1    O6    1.296695 A    
C48   C49   1.464750 S    
C28   C33   1.540237 S    
O17   V4    1.709628 S    
C23   C24   1.554233 S    
C27   C28   1.540597 S    
C7    H5    1.083899 S    
C6    C16   1.397646 A    
C9    H6    1.076138 S    
C37   H21   1.083983 S    
C4    C6    1.459455 S    
C13   C14   1.395416 A    
C39   O26   1.373725 S    
C3    C21   1.504888 S    
O5    C3    1.295265 A    
C23   C26   1.543438 S    
O18   V4    2.021540 S    
V2    O10   2.161964 S    
C5    H3    1.083998 S    
C30   C31   1.539694 S    
C15   H8    1.082783 S    
C31   N1    1.456824 S    
O13   C52   1.295719 A    
O21   H24   0.991224 S    
C38   H22   1.083249 S    
C27   C34   1.550291 S    
O14   V3    2.006738 S    
O12   V3    2.017943 S    
C20   C21   1.543895 S    
C37   C38   1.386837 A    
O19   V4    1.997328 S    
O25   H26   0.988931 S    
C39   C40   1.431632 A    
O1    V2    2.021011 S    
O7    V1    2.155710 S    
V3    O20   1.706987 S    
C41   C45   1.404881 A    
C37   C48   1.394470 A    
O12   C49   1.294961 A    
C33   C34   1.551146 S    
O9    C4    1.295143 A    
O15   V3    2.019220 S    
O18   C51   1.295397 A    
C36   C47   1.392949 A    
O11   C50   1.296576 A    
C18   C51   1.464155 S    
C45   H23   1.082509 S    
N1    O24   1.299930 A    
N1    O23   1.300211 A    
C27   H14   1.110395 S    
C19   H10   1.110235 S    
C28   C29   1.530770 S    
C6    C17   1.395059 A    
C43   C44   1.404005 A    
C12   C16   1.414195 A    
O22   H25   0.991196 S    
C9    C10   1.417799 A    
C19   C20   1.554006 S    
C40   C42   1.434841 A    
C29   C50   1.498175 S    
C31   C34   1.533948 S    
C25   H13   1.110483 S    
C32   C33   1.560291 S    
C8    H7    1.082871 S    
O15   C51   1.290353 A    
O2    C1    1.295310 A    
C21   C22   1.525462 S    
C14   C15   1.387260 A    
C26   C52   1.503211 S    
O13   V3    2.002632 S    
C11   C18   1.416756 A    
C25   C26   1.544262 S    
C23   H11   1.110161 S    
C28   O22   1.397535 S    
C8    C9    1.393075 A    
O19   C52   1.298909 A    
C1    C34   1.499883 S    
C16   H4    1.077264 S    
C30   H15   1.110315 S    
O3    C4    1.291155 A    
C20   H9    1.110013 S    
O14   C50   1.294962 A    
C11   C15   1.408098 A    
O6    V2    1.997460 S    
O8    V2    1.997183 S    
O9    V2    2.021669 S    
C10   C12   1.429363 A    
O2    V1    2.006595 S    
C22   C23   1.536443 S    
C35   O25   1.379299 S    
O4    C2    1.296750 A    
C46   H20   1.079238 S    
C7    C18   1.396737 A    
C24   C25   1.553443 S    
C42   C46   1.413736 A    
H18   C47   1.084172 S    
O1    C2    1.290941 A    
C5    C13   1.404278 A    
C35   C47   1.395231 A    
O5    V1    2.002636 S    
O8    C3    1.299707 A    
C19   C22   1.535786 S    
C41   C48   1.417005 A    
C24   H12   1.110141 S    
C33   H17   1.109951 S    
O11   V4    1.998067 S    
C10   C11   1.426179 A    
O4    V1    2.017915 S    
O3    V1    2.019214 S    
V1    O10   1.706955 S    
O26   H27   0.991705 S    
C22   O21   1.395475 S    
C31   C32   1.540391 S    
H19   C44   1.080197 S    
O17   V3    2.155726 S    
O16   V4    2.027412 S    
O7    V2    1.711662 S    
C38   C39   1.395446 A    
C21   C24   1.546135 S    
C2    C36   1.464050 S    
C40   C41   1.424413 A    
H1    C17   1.083580 S    
V4    O20   2.162037 S    
C29   C32   1.547514 S    
C12   C13   1.422967 A    
C5    C17   1.392214 A    
C35   C43   1.425125 A    
C7    C8    1.388307 A    
C27   C30   1.560236 S    
C19   C26   1.546410 S    
H2    C14   1.083939 S    
