data_mof_unit_8340.cif
_audit_creation_date              2012-12-11T15:38:58-0500
_audit_creation_method            fapswitch 2.2
_symmetry_space_group_name_H-M    P1
_symmetry_Int_Tables_number       1
_space_group_crystal_system       triclinic
_cell_length_a                    14.313618
_cell_length_b                    14.790665
_cell_length_c                    33.248455
_cell_angle_alpha                 97.777512
_cell_angle_beta                  90.244276
_cell_angle_gamma                 118.668663
_cell_volume                      6099.82340835

loop_
_atom_site_label
_atom_site_type_symbol
_atom_type_description
_atom_site_fract_x
_atom_site_fract_y
_atom_site_fract_z
_atom_type_partial_charge
C1    C     C_R   0.616770 0.910501 0.436922 0.550105
C2    C     C_R   0.712088 0.436155 0.949688 0.568348
C3    C     C_R   0.584053 0.890927 0.790252 -0.123561
C4    C     C_R   0.592688 0.906817 0.749793 -0.133665
C5    C     C_R   0.569459 0.823721 0.718513 0.028177
C6    C     C_R   0.530827 0.721699 0.728138 0.009674
C7    C     C_R   0.527262 0.707969 0.769086 -0.078441
C8    C     C_R   0.555884 0.792274 0.800353 0.038197
C9    C     C_R   0.495407 0.797693 0.648033 -0.130420
C10   C     C_R   0.507544 0.812664 0.607841 -0.119844
C11   C     C_R   0.696605 0.932527 0.623719 -0.133125
C12   C     C_3   0.535215 0.333966 0.096478 -0.249416
C13   C     C_R   0.710861 0.740566 0.950294 0.545207
C14   C     C_3   0.430387 0.278553 0.116981 -0.322538
C15   C     C_3   0.337384 0.277352 0.093651 -0.455791
C16   C     C_3   0.455578 0.196171 0.829024 -0.223148
C17   C     C_3   0.406444 0.257405 0.812489 -0.298229
C18   C     C_3   0.381066 0.322041 0.845938 -0.386913
C19   C     C_3   0.499777 0.344837 0.701152 -0.242588
C20   C     C_3   0.387962 0.251806 0.702282 -0.299191
C21   C     C_3   0.309835 0.286436 0.719900 -0.458574
C22   C     C_3   0.154596 0.959240 0.934743 -0.232007
C23   C     C_3   0.236001 0.967784 0.967490 -0.285531
C24   C     C_R   0.840739 0.473910 0.168210 -0.147880
C25   C     C_3   0.255381 0.052462 0.003361 -0.443558
C26   C     C_3   0.852782 0.286767 0.215724 -0.252970
C27   C     C_3   0.902151 0.231664 0.236850 -0.305212
C28   C     C_3   0.968535 0.200789 0.208097 -0.449970
C29   C     C_3   0.492779 0.625745 0.696145 -0.254391
C30   C     C_3   0.369990 0.562826 0.692934 -0.306624
C31   C     C_3   0.325507 0.491610 0.652066 -0.445116
C32   C     C_3   0.573763 0.231388 0.169304 -0.243370
C33   C     C_3   0.558891 0.139161 0.137305 -0.310361
C34   C     C_3   0.471088 0.035811 0.147515 -0.443487
C35   C     C_R   0.835852 0.494553 0.129351 -0.139000
C36   C     C_R   0.796306 0.333541 0.242821 0.007097
C37   C     C_R   0.779328 0.318079 0.283644 -0.086928
C38   C     C_R   0.726296 0.362524 0.307315 0.027711
C39   C     C_R   0.697229 0.429176 0.291593 -0.085827
C40   C     C_R   0.709879 0.442207 0.251139 -0.107991
C41   C     C_R   0.755217 0.391815 0.226353 0.012821
C42   C     C_R   0.751306 0.396792 0.182626 0.005744
C43   C     C_R   0.583330 0.280615 0.354216 0.097174
C44   C     C_R   0.593212 0.204290 0.456283 0.546700
C45   C     C_R   0.552946 0.246988 0.391465 -0.087734
C46   C     C_R   0.738047 0.310936 0.414361 -0.129578
C47   C     C_R   0.769512 0.347763 0.377586 -0.139471
C48   C     C_R   0.692655 0.331863 0.347149 0.030544
C49   C     C_R   0.629437 0.259502 0.421315 0.003220
C50   C     C_R   0.250795 0.880320 0.392197 0.021944
C51   C     C_R   0.213271 0.946710 0.380353 0.078334
C52   C     C_R   0.196465 0.948155 0.338892 -0.073834
C53   C     C_R   0.684834 0.913501 0.664165 -0.121481
C54   C     C_R   0.215327 0.883873 0.309053 0.017492
C55   C     C_R   0.245560 0.813674 0.320518 -0.113005
C56   C     C_R   0.295849 0.893056 0.434234 0.556685
C57   C     C_R   0.262846 0.811610 0.361606 -0.137850
C58   C     C_R   0.205406 0.813571 0.161600 -0.125910
C59   C     C_R   0.172406 0.788431 0.120143 -0.137262
C60   C     C_R   0.099299 0.906943 0.128635 -0.136602
C61   C     C_R   0.131890 0.931544 0.170259 -0.118211
C62   C     C_R   0.181413 0.881848 0.187022 0.033414
C63   C     C_1   0.195728 0.889736 0.230465 -0.010491
C64   C     C_R   0.583881 0.845286 0.676303 0.023843
C65   C     C_1   0.204743 0.889520 0.266518 -0.004103
C66   C     C_R   0.114642 0.831183 0.103583 0.015161
C67   C     C_R   0.636514 0.879153 0.395172 -0.001909
C68   C     C_R   0.609336 0.909176 0.553838 0.545650
C69   C     C_R   0.552370 0.797531 0.368944 -0.102689
C70   C     C_R   0.561912 0.783975 0.327038 0.101556
C71   C     C_R   0.656679 0.852018 0.311160 0.048491
C72   C     C_R   0.743292 0.928417 0.337386 -0.135678
C73   C     C_R   0.733517 0.941858 0.379157 -0.122574
C74   C     C_R   0.779020 0.914379 0.175353 -0.125053
C75   C     C_R   0.607805 0.881336 0.595014 0.023826
C76   C     C_R   0.795653 0.902603 0.134102 -0.130509
C77   C     C_R   0.615550 0.756975 0.120447 -0.130650
C78   C     C_R   0.598768 0.769838 0.161648 -0.109528
C79   C     C_R   0.681782 0.846234 0.189250 0.037183
C80   C     C_R   0.589704 0.199812 0.570887 0.562082
C81   C     C_1   0.671176 0.848347 0.232090 -0.008400
C82   C     C_1   0.664172 0.849229 0.268103 0.011685
C83   C     C_R   0.715551 0.820782 0.106572 0.023173
C84   C     C_R   0.619206 0.245016 0.614518 0.020649
C85   C     C_R   0.569890 0.298445 0.635644 0.087224
C86   C     C_R   0.052681 0.781574 0.063663 0.534310
C87   C     C_R   0.570591 0.308124 0.678723 0.028432
C88   C     C_R   0.629610 0.272838 0.700058 0.026996
C89   C     C_R   0.687337 0.230681 0.678965 -0.137535
C90   C     C_R   0.681206 0.215637 0.636713 -0.156635
C91   C     C_R   0.758141 0.370916 0.841892 -0.138981
C92   C     C_R   0.289981 0.887226 0.548894 0.541783
C93   C     C_R   0.775994 0.404616 0.883500 -0.153691
C94   C     C_R   0.586505 0.299968 0.891722 0.086928
C95   C     C_R   0.567515 0.267592 0.848821 0.038049
C96   C     C_R   0.654631 0.306713 0.824138 0.023217
C97   C     C_R   0.743225 0.485376 0.066015 0.536086
C98   C     C_1   0.640855 0.288988 0.780308 -0.041827
C99   C     C_1   0.633819 0.279966 0.743733 -0.039758
C100  C     C_R   0.690561 0.374522 0.908544 0.023899
C101  C     C_R   0.079595 0.762391 0.910956 0.012249
C102  C     C_R   0.122695 0.865322 0.901395 0.016703
C103  C     C_R   0.136096 0.878616 0.860078 0.101298
C104  C     C_R   0.738544 0.446713 0.105306 0.005685
C105  C     C_R   0.123380 0.794100 0.830867 0.025295
C106  C     C_R   0.099227 0.698550 0.842508 -0.133925
C107  C     C_R   0.075053 0.681970 0.882000 -0.134185
C108  C     C_R   0.742908 0.789287 0.066367 0.542010
C109  C     C_R   0.214816 0.796072 0.767813 -0.104428
C110  C     C_R   0.222350 0.803218 0.726590 -0.115886
C111  C     C_R   0.146959 0.817171 0.705033 0.024952
C112  C     C_R   0.062914 0.822140 0.724603 -0.105091
C113  C     C_R   0.054123 0.812794 0.765699 -0.083123
C114  C     C_R   0.131481 0.802206 0.787572 0.047848
C115  C     C_R   0.186400 0.924140 0.649858 -0.119226
C116  C     C_R   0.643092 0.370487 0.120283 -0.000906
C117  C     C_R   0.221373 0.941641 0.611160 -0.125400
C118  C     C_R   0.190310 0.763617 0.596087 -0.127692
C119  C     C_R   0.024018 0.733770 0.948081 0.534468
C120  C     C_R   0.156783 0.746783 0.634770 -0.124268
C121  C     C_R   0.158631 0.828083 0.662198 0.028376
C122  C     C_R   0.228157 0.862778 0.584722 0.023954
C123  C     C_R   0.660436 0.754767 0.914549 -0.003438
C124  C     C_R   0.555475 0.684402 0.898316 -0.106553
C125  C     C_R   0.515141 0.698732 0.862423 0.090545
C126  C     C_R   0.581654 0.783090 0.842190 0.041953
C127  C     C_R   0.684144 0.855041 0.859845 -0.139163
C128  C     C_R   0.654740 0.335913 0.157432 0.035014
C129  C     C_R   0.722517 0.841685 0.895433 -0.123822
Cr1   Cr    Cr6+3 0.424820 0.846020 0.489780 1.024024
Cr2   Cr    Cr6+3 0.657880 0.078580 0.505700 1.026506
Cr3   Cr    Cr6+3 0.417280 0.075360 0.504550 1.087703
Cr4   Cr    Cr6+3 0.903360 0.812540 0.006510 0.999681
Cr5   Cr    Cr6+3 0.914630 0.587050 0.006280 1.020721
Cr6   Cr    Cr6+3 0.673560 0.582680 0.008540 1.033949
H1    H     H_    0.468552 0.204095 0.395854 0.173261
H2    H     H_    0.908014 0.554745 0.119199 0.144970
H3    H     H_    0.170334 0.000752 0.329964 0.148670
H4    H     H_    0.873817 0.952195 0.124423 0.118920
H5    H     H_    0.843858 0.972690 0.196741 0.106303
H6    H     H_    0.816947 0.980737 0.325356 0.117120
H7    H     H_    0.799827 0.005237 0.398553 0.149916
H8    H     H_    0.476838 0.748159 0.380527 0.149651
H9    H     H_    0.523180 0.716751 0.172248 0.131461
H10   H     H_    0.552535 0.693279 0.099892 0.120023
H11   H     H_    0.856790 0.460653 0.895611 0.139524
H12   H     H_    0.914573 0.519485 0.187472 0.121425
H13   H     H_    0.853592 0.386087 0.372360 0.120257
H14   H     H_    0.825214 0.400143 0.823164 0.122658
H15   H     H_    0.733505 0.204616 0.695231 0.118011
H16   H     H_    0.720290 0.175075 0.621406 0.141000
H17   H     H_    0.046228 0.604069 0.889140 0.138743
H18   H     H_    0.135125 0.672238 0.644137 0.111463
H19   H     H_    0.802142 0.267939 0.296862 0.107552
H20   H     H_    0.287772 0.799484 0.711580 0.110427
H21   H     H_    0.274076 0.786530 0.784376 0.139435
H22   H     H_    0.004153 0.832291 0.708023 0.114506
H23   H     H_    0.798079 0.320071 0.436887 0.130295
H24   H     H_    0.988039 0.815139 0.780648 0.135580
H25   H     H_    0.188502 0.987599 0.671109 0.112914
H26   H     H_    0.250091 0.018718 0.603141 0.138430
H27   H     H_    0.091089 0.634119 0.820159 0.134406
H28   H     H_    0.193649 0.701040 0.576200 0.131721
H29   H     H_    0.505441 0.618440 0.913189 0.149296
H30   H     H_    0.803640 0.898381 0.906949 0.151641
H31   H     H_    0.753923 0.952412 0.686044 0.112021
H32   H     H_    0.619154 0.984606 0.742865 0.115161
H33   H     H_    0.606395 0.957310 0.813937 0.119432
H34   H     H_    0.185807 0.730224 0.101624 0.128153
H35   H     H_    0.507640 0.632009 0.776474 0.133077
H36   H     H_    0.416420 0.748518 0.657025 0.110339
H37   H     H_    0.435846 0.773651 0.587287 0.146614
H38   H     H_    0.737706 0.919586 0.844925 0.121687
H39   H     H_    0.773864 0.987874 0.615120 0.123895
H40   H     H_    0.658609 0.465820 0.309988 0.150883
H41   H     H_    0.680552 0.488654 0.238594 0.132560
H42   H     H_    0.350012 0.357923 0.094923 0.156376
H43   H     H_    0.329611 0.242009 0.061354 0.161324
H44   H     H_    0.261842 0.230699 0.107553 0.146071
H45   H     H_    0.244000 0.774916 0.174229 0.119245
H46   H     H_    0.408137 0.195930 0.117318 0.169663
H47   H     H_    0.438762 0.320395 0.148297 0.177209
H48   H     H_    0.534590 0.405329 0.090532 0.193906
H49   H     H_    0.530680 0.286594 0.066833 0.153719
H50   H     H_    0.325708 0.271396 0.866520 0.212758
H51   H     H_    0.455376 0.383626 0.863809 0.185622
H52   H     H_    0.341909 0.360482 0.831863 0.167905
H53   H     H_    0.461473 0.310237 0.792496 0.163104
H54   H     H_    0.331235 0.201164 0.793774 0.185210
H55   H     H_    0.458092 0.140862 0.803408 0.134869
H56   H     H_    0.258979 0.762521 0.297615 0.152479
H57   H     H_    0.402596 0.145760 0.849984 0.208107
H58   H     H_    0.344697 0.341631 0.748805 0.159917
H59   H     H_    0.288774 0.324836 0.697852 0.161892
H60   H     H_    0.235429 0.217218 0.725891 0.154539
H61   H     H_    0.355880 0.208371 0.671001 0.184094
H62   H     H_    0.393338 0.197506 0.721062 0.162567
H63   H     H_    0.534757 0.383600 0.732618 0.133558
H64   H     H_    0.494165 0.405190 0.686663 0.167176
H65   H     H_    0.282325 0.128571 0.992772 0.183939
H66   H     H_    0.180857 0.031610 0.018962 0.152497
H67   H     H_    0.291706 0.759976 0.369261 0.151666
H68   H     H_    0.318007 0.060259 0.025558 0.148228
H69   H     H_    0.208271 0.893339 0.979469 0.165912
H70   H     H_    0.312795 0.986667 0.953845 0.195120
H71   H     H_    0.192907 0.033650 0.922548 0.193924
H72   H     H_    0.083020 0.956477 0.948438 0.172992
H73   H     H_    0.919117 0.150836 0.179848 0.148808
H74   H     H_    0.037646 0.271493 0.199875 0.163122
H75   H     H_    0.999289 0.156896 0.223329 0.145340
H76   H     H_    0.955307 0.284639 0.263956 0.172198
H77   H     H_    0.837677 0.160095 0.246638 0.160799
H78   H     H_    0.112848 0.984495 0.189677 0.113916
H79   H     H_    0.795146 0.230354 0.190272 0.145346
H80   H     H_    0.917985 0.351043 0.202437 0.152477
H81   H     H_    0.347472 0.538434 0.626812 0.168371
H82   H     H_    0.357184 0.436177 0.647669 0.190568
H83   H     H_    0.237074 0.446498 0.651275 0.144353
H84   H     H_    0.343730 0.515162 0.717920 0.172330
H85   H     H_    0.334861 0.615873 0.696516 0.165511
H86   H     H_    0.522703 0.646150 0.666180 0.175714
H87   H     H_    0.526597 0.576753 0.704740 0.131231
H88   H     H_    0.491124 0.022776 0.177767 0.169648
H89   H     H_    0.054645 0.940871 0.116849 0.121779
H90   H     H_    0.393467 0.035780 0.147796 0.165946
H91   H     H_    0.462894 0.970642 0.124185 0.149342
H92   H     H_    0.538484 0.148352 0.106439 0.169204
H93   H     H_    0.635064 0.136287 0.136336 0.161271
H94   H     H_    0.600987 0.218478 0.198184 0.165711
H95   H     H_    0.497708 0.229132 0.176576 0.147926
I1    I     I_    0.178439 0.046634 0.422128 -0.348792
I2    I     I_    0.428446 0.664743 0.289014 -0.450219
I3    I     I_    0.500307 0.369103 0.602370 -0.427658
I4    I     I_    0.462053 0.235521 0.931818 -0.475166
I5    I     I_    0.163093 0.020707 0.840279 -0.521032
I6    I     I_    0.352899 0.594141 0.841815 -0.500451
I7    I     I_    0.457780 0.236304 0.308642 -0.420533
O1    O     O_R   0.318160 0.824460 0.443680 -0.521954
O2    O     O_R   0.668160 0.499860 0.053480 -0.524830
O3    O     O_R   0.689170 0.693840 0.050110 -0.499262
O4    O     O_R   0.525040 0.857250 0.449830 -0.500012
O5    O     O_R   0.803860 0.812940 0.962540 -0.520358
O6    O     O_R   0.982950 0.787950 0.964120 -0.502494
O7    O     O_R   0.007050 0.649970 0.960540 -0.519184
O8    O     O_R   0.807910 0.482370 0.965590 -0.506400
O9    O     O_R   0.643310 0.460980 0.963840 -0.473705
O10   O     O_R   0.666140 0.657800 0.967020 -0.495379
O11   O     O_3   0.830520 0.660760 0.007110 -0.238910
O12   O     O_R   0.645130 0.163230 0.552140 -0.512257
O13   O     O_R   0.684760 0.998800 0.456360 -0.507724
O14   O     O_R   0.647540 0.166310 0.470260 -0.500973
O15   O     O_R   0.500960 0.181750 0.467450 -0.488854
O16   O     O_R   0.331100 0.981120 0.457080 -0.463678
O17   O     O_R   0.315560 0.821140 0.532010 -0.528849
O18   O     O_R   0.522630 0.854180 0.531710 -0.504105
O19   O     O_R   0.682160 0.995480 0.544690 -0.513504
O20   O     O_R   0.498360 0.178430 0.555780 -0.469814
O21   O     O_R   0.328690 0.978040 0.538950 -0.491801
O22   O     O_3   0.499990 0.999990 0.500010 -0.256946
O23   O     O_R   0.828710 0.851830 0.052170 -0.520971
O24   O     O_R   0.005980 0.823990 0.047210 -0.506718
O25   O     O_R   0.031900 0.688850 0.050170 -0.518569
O26   O     O_R   0.830940 0.518420 0.048680 -0.496826

loop_
_geom_bond_atom_site_label_1
_geom_bond_atom_site_label_2
_ccdc_geom_bond_type
C44   C49   S    
C127  H38   S    
C87   C88   A    
C63   C65   T    
C58   C62   A    
C101  C102  A    
C115  C121  A    
C15   H44   S    
C111  C121  S    
C9    C64   A    
C24   C42   A    
C41   C42   S    
Cr4   O6    S    
C105  C106  A    
C111  C112  A    
C80   C84   S    
C33   H93   S    
C45   H1    S    
Cr1   O22   S    
C7    C8    A    
C54   C65   S    
C12   H49   S    
C77   C78   A    
C83   C108  S    
C68   C75   S    
Cr4   O24   S    
C46   C49   A    
Cr6   O11   S    
C26   C27   S    
Cr5   O26   S    
C74   C76   A    
C85   I3    S    
C13   O5    A    
C56   O1    A    
C36   C37   A    
C34   H91   S    
C2    O8    A    
C19   C87   S    
C59   C66   A    
C5    C6    A    
C13   C123  S    
Cr1   O4    S    
C12   H48   S    
C106  C107  A    
C77   C83   A    
C17   H53   S    
C10   H37   S    
C46   H23   S    
C18   H52   S    
Cr6   O3    S    
C22   H71   S    
C26   H79   S    
C118  C122  A    
C109  H21   S    
C110  C111  A    
C27   H77   S    
C110  H20   S    
C43   I7    S    
C91   C96   A    
C104  C116  A    
C44   O15   A    
Cr4   O23   S    
Cr1   O1    S    
C108  O3    A    
Cr2   O14   S    
C16   C17   S    
C115  C117  A    
C96   C98   S    
C57   H67   S    
C52   H3    S    
C70   C71   A    
C67   C73   A    
C94   C100  A    
C21   H59   S    
C16   H57   S    
C9    C10   A    
Cr5   O8    S    
C38   C48   S    
C11   C53   A    
Cr2   O13   S    
C42   C128  A    
C71   C82   S    
Cr1   O18   S    
C106  H27   S    
C32   H94   S    
C2    C100  S    
Cr5   O25   S    
C56   O16   A    
C123  C129  A    
Cr6   O9    S    
C36   C41   A    
C69   C70   A    
C84   C90   A    
C21   H58   S    
C88   C99   S    
C60   H89   S    
C76   C83   A    
Cr5   O11   S    
C112  C113  A    
C14   H47   S    
C52   C54   A    
C3    H33   S    
C81   C82   T    
Cr3   O22   S    
C118  C120  A    
C73   H7    S    
C85   C87   A    
C25   H68   S    
C72   H6    S    
C97   O2    A    
C86   O25   A    
C32   H95   S    
C118  H28   S    
C11   H39   S    
C24   C35   A    
C112  H22   S    
C51   I1    S    
C102  C103  A    
C101  C119  S    
Cr6   O10   S    
C105  C114  S    
C123  C124  A    
C34   H90   S    
C33   C34   S    
C84   C85   A    
C39   H40   S    
C3    C8    A    
C90   H16   S    
C39   C40   A    
C79   C81   S    
C40   C41   A    
C1    O13   A    
C94   I4    S    
Cr3   O21   S    
C31   H81   S    
C117  H26   S    
C28   H74   S    
C74   H5    S    
C53   C64   A    
C18   H51   S    
C50   C56   S    
C51   C52   A    
C5    C64   S    
C60   C61   A    
C21   H60   S    
C55   H56   S    
C37   C38   A    
C29   H86   S    
C117  C122  A    
C127  C129  A    
C29   C30   S    
C78   H9    S    
Cr4   O5    S    
C91   C93   A    
C10   C75   A    
C68   O19   A    
C44   O14   A    
C88   C89   A    
C47   C48   A    
C47   H13   S    
C45   C49   A    
C30   C31   S    
C31   H82   S    
C62   C63   S    
C27   H76   S    
C17   C18   S    
C93   H11   S    
C103  C105  A    
C46   C47   A    
C113  H24   S    
C43   C45   A    
C93   C100  A    
Cr5   O7    S    
C6    C7    A    
C1    O4    A    
Cr3   O16   S    
Cr2   O22   S    
C107  H17   S    
Cr1   O17   S    
C26   C36   S    
C89   H15   S    
C13   O10   A    
C12   C14   S    
C35   C104  A    
C94   C95   A    
C80   O12   A    
C15   H42   S    
C125  C126  A    
C28   H73   S    
C9    H36   S    
C3    C4    A    
C77   H10   S    
C27   C28   S    
C14   H46   S    
C34   H88   S    
Cr3   O15   S    
C30   H85   S    
C113  C114  A    
C43   C48   A    
C76   H4    S    
C67   C69   A    
C54   C55   A    
C16   H55   S    
C19   H63   S    
C103  I5    S    
C86   O24   A    
C78   C79   A    
C50   C57   A    
C37   H19   S    
C61   H78   S    
C22   C23   S    
C14   C15   S    
C72   C73   A    
C33   H92   S    
C24   H12   S    
C66   C86   S    
C92   O21   A    
Cr3   O20   S    
C119  O7    A    
C129  H30   S    
C69   H8    S    
C40   H41   S    
C23   H69   S    
C18   H50   S    
C19   H64   S    
C22   C102  S    
C4    H32   S    
C29   H87   S    
C115  H25   S    
C74   C79   A    
C17   H54   S    
C32   C33   S    
C31   H83   S    
C19   C20   S    
C55   C57   A    
C58   C59   A    
C28   H75   S    
C71   C72   A    
Cr6   O2    S    
C25   H65   S    
C11   C75   A    
C109  C110  A    
C35   H2    S    
C23   H70   S    
C16   C95   S    
C68   O18   A    
C32   C128  S    
C38   C39   A    
C25   H66   S    
C30   H84   S    
C126  C127  A    
C109  C114  A    
C120  H18   S    
C1    C67   S    
C92   C122  S    
C22   H72   S    
C23   C25   S    
C2    O9    A    
C61   C62   A    
C70   I2    S    
C20   H62   S    
C97   C104  S    
C108  O23   A    
C97   O26   A    
Cr4   O11   S    
C60   C66   A    
Cr2   O12   S    
C53   H31   S    
C4    C5    A    
C6    C29   S    
C20   C21   S    
Cr2   O19   S    
C98   C99   T    
C116  C128  A    
C7    H35   S    
C91   H14   S    
C101  C107  A    
C125  I6    S    
C50   C51   A    
C120  C121  A    
C26   H80   S    
C58   H45   S    
C80   O20   A    
C124  H29   S    
C89   C90   A    
C59   H34   S    
C119  O6    A    
C20   H61   S    
C95   C96   A    
C8    C126  S    
C15   H43   S    
C124  C125  A    
C12   C116  S    
C92   O17   A    
