data_mof_unit_20697.cif
_audit_creation_date              2012-12-10T17:48:16-0500
_audit_creation_method            fapswitch 2.2
_symmetry_space_group_name_H-M    P1
_symmetry_Int_Tables_number       1
_space_group_crystal_system       triclinic
_cell_length_a                    13.866616
_cell_length_b                    14.757171
_cell_length_c                    14.65346
_cell_angle_alpha                 114.970353
_cell_angle_beta                  106.050038
_cell_angle_gamma                 72.154718
_cell_volume                      2549.61834646

loop_
_atom_site_label
_atom_site_type_symbol
_atom_type_description
_atom_site_fract_x
_atom_site_fract_y
_atom_site_fract_z
_atom_type_partial_charge
C1    C     C_R   0.516819 0.118456 0.688251 0.785983
C2    C     C_R   0.482925 0.881682 0.311644 0.790696
C3    C     C_R   0.532286 0.361554 0.917602 0.086226
C4    C     C_R   0.501690 0.643195 0.073092 0.079580
C5    C     C_R   0.597324 0.320943 0.991478 0.072960
C6    C     C_R   0.465984 0.686245 0.997262 0.095543
C7    C     C_R   0.507780 0.470264 0.941195 -0.090805
C8    C     C_R   0.537050 0.535378 0.044526 -0.120612
C9    C     C_R   0.605805 0.491252 0.114760 0.444410
C10   C     C_R   0.460273 0.517192 0.866510 0.494105
C11   C     C_R   0.632975 0.385881 0.088022 -0.292722
C12   C     C_R   0.450580 0.622900 0.895332 -0.338620
C13   C     C_R   0.327981 0.296714 0.328958 0.352967
C14   C     C_R   0.638673 0.724614 0.695122 0.353472
C15   C     C_R   0.353764 0.215160 0.361712 -0.043028
C16   C     C_R   0.622529 0.800039 0.655963 -0.025793
C17   C     C_R   0.490461 0.282451 0.485738 0.047491
C18   C     C_R   0.526009 0.706509 0.502241 0.046570
C19   C     C_R   0.461937 0.373935 0.465093 -0.063856
C20   C     C_R   0.534600 0.628451 0.538884 -0.073423
C21   C     C_R   0.380998 0.377125 0.381777 -0.035233
C22   C     C_R   0.596867 0.637318 0.635412 -0.030666
C23   C     C_R   0.687062 0.986904 0.504269 0.812699
C24   C     C_R   0.313018 0.013798 0.496797 0.813052
C25   C     C_R   0.510075 0.460755 0.522084 -0.054787
C26   C     C_R   0.482890 0.544143 0.485609 -0.064796
C27   C     C_R   0.400290 0.542777 0.401571 0.417694
C28   C     C_R   0.579792 0.470664 0.616698 0.438267
C29   C     C_R   0.353191 0.459928 0.351083 -0.237340
C30   C     C_R   0.615760 0.560522 0.673176 -0.261580
C31   C     C_1   0.207546 0.023013 0.496365 -0.181479
C32   C     C_1   0.792756 0.980044 0.508064 -0.180468
C33   C     C_2   0.013076 0.037734 0.494737 -0.163594
C34   C     C_2   0.987577 0.968888 0.514908 -0.175750
C35   C     C_1   0.881763 0.974491 0.511441 0.006439
C36   C     C_1   0.118708 0.030611 0.495802 -0.001709
C37   C     C_R   0.535535 0.185157 0.796186 -0.097281
C38   C     C_R   0.475967 0.815720 0.202961 -0.088025
C39   C     C_R   0.629273 0.214618 0.967426 -0.174158
C40   C     C_R   0.442700 0.792857 0.024454 -0.183592
C41   C     C_R   0.600791 0.147027 0.869393 -0.197695
C42   C     C_R   0.449820 0.857256 0.126955 -0.196936
C43   C     C_R   0.495822 0.290539 0.823202 -0.153884
C44   C     C_R   0.498092 0.709463 0.175141 -0.162497
Cu1   Cu    Cu3+1 0.526370 0.916390 0.524860 0.935382
Cu2   Cu    Cu3+1 0.473630 0.083610 0.475140 0.933049
H1    H     H_    0.045838 0.907587 0.533293 0.148871
H2    H     H_    0.954774 0.098941 0.476219 0.155260
H3    H     H_    0.684824 0.354690 0.143382 0.161107
H4    H     H_    0.424783 0.656585 0.837387 0.135499
H5    H     H_    0.508835 0.679265 0.233555 0.213245
H6    H     H_    0.435057 0.313265 0.768738 0.212535
H7    H     H_    0.432355 0.939306 0.146401 0.146429
H8    H     H_    0.631602 0.065571 0.850336 0.144429
H9    H     H_    0.679854 0.183777 0.023477 0.133937
H10   H     H_    0.417881 0.826399 0.966458 0.123695
H11   H     H_    0.291894 0.462375 0.286923 0.202534
H12   H     H_    0.659549 0.569979 0.749094 0.195883
H13   H     H_    0.489628 0.702226 0.426430 0.212121
H14   H     H_    0.558216 0.264571 0.536583 0.203230
H15   H     H_    0.653693 0.867543 0.701760 0.142958
H16   H     H_    0.311491 0.154680 0.324467 0.147301
N1    N     N_R   0.433980 0.209250 0.437830 -0.228510
N2    N     N_R   0.566020 0.790750 0.562170 -0.219811
O1    O     O_R   0.534760 0.019630 0.662610 -0.593281
O2    O     O_R   0.465240 0.980370 0.337390 -0.584462
O3    O     O_R   0.490220 0.160840 0.620610 -0.567796
O4    O     O_R   0.509780 0.839160 0.379390 -0.587614
O5    O     O_R   0.663260 0.919400 0.523940 -0.565570
O6    O     O_R   0.336740 0.080600 0.476060 -0.571688
O7    O     O_R   0.618720 0.060610 0.481950 -0.585453
O8    O     O_R   0.381280 0.939390 0.518050 -0.573008
O9    O     O_3   0.246628 0.301139 0.249936 -0.586682
C45   C     C_3   0.280746 0.235771 0.156446 0.048122
H17   H     H_    0.300429 0.154212 0.149157 0.132162
H18   H     H_    0.349076 0.255707 0.149474 0.145887
C46   C     C_3   0.195190 0.247781 0.068697 -0.774664
H19   H     H_    0.174656 0.328287 0.073188 0.246455
H20   H     H_    0.221142 0.196664 0.994690 0.196218
H21   H     H_    0.126177 0.227108 0.072420 0.248954
O10   O     O_3   0.696568 0.735750 0.791212 -0.586809
C47   C     C_3   0.632059 0.797631 0.864759 0.041748
H22   H     H_    0.560454 0.769372 0.846776 0.137673
H23   H     H_    0.611144 0.878376 0.869327 0.135134
C48   C     C_3   0.688835 0.795129 0.968845 -0.767112
H24   H     H_    0.761010 0.822518 0.989597 0.248427
H25   H     H_    0.639705 0.845517 0.027666 0.204031
H26   H     H_    0.707675 0.715722 0.967226 0.243912
O11   O     O_3   0.362025 0.621879 0.365799 -0.607146
C49   C     C_3   0.274797 0.686819 0.409713 0.035087
H27   H     H_    0.298914 0.734365 0.490907 0.153222
H28   H     H_    0.219658 0.643419 0.405908 0.141282
C50   C     C_3   0.218653 0.757060 0.350960 -0.758726
H29   H     H_    0.193058 0.710859 0.269886 0.244876
H30   H     H_    0.150156 0.809287 0.384686 0.203801
H31   H     H_    0.270448 0.802949 0.353911 0.249709
O12   O     O_3   0.599380 0.402365 0.664884 -0.552941
C51   C     C_3   0.705138 0.354074 0.673775 0.022697
H32   H     H_    0.754506 0.409805 0.722897 0.147956
H33   H     H_    0.728662 0.313165 0.597115 0.130695
C52   C     C_3   0.724528 0.276264 0.723077 -0.746794
H34   H     H_    0.678670 0.217246 0.675666 0.247835
H35   H     H_    0.807253 0.237907 0.730341 0.194143
H36   H     H_    0.702970 0.315287 0.800318 0.255940
O13   O     O_3   0.652131 0.549577 0.209293 -0.592820
C53   C     C_3   0.739910 0.570326 0.197523 0.051981
H37   H     H_    0.721257 0.604935 0.138522 0.144086
H38   H     H_    0.800346 0.498735 0.176041 0.149808
C54   C     C_3   0.782366 0.646243 0.298523 -0.753023
H39   H     H_    0.803203 0.613896 0.359198 0.251792
H40   H     H_    0.851990 0.662754 0.290733 0.194785
H41   H     H_    0.723758 0.718920 0.320941 0.252362
O14   O     O_3   0.434879 0.459369 0.763715 -0.552602
C55   C     C_3   0.335088 0.501292 0.720622 0.047623
H42   H     H_    0.342467 0.545016 0.677889 0.159204
H43   H     H_    0.284379 0.552849 0.778389 0.128241
C56   C     C_3   0.281122 0.415465 0.646407 -0.779844
H44   H     H_    0.329896 0.358957 0.589745 0.276010
H45   H     H_    0.207423 0.447525 0.605433 0.203774
H46   H     H_    0.264526 0.376156 0.688511 0.225436

loop_
_geom_bond_atom_site_label_1
_geom_bond_atom_site_label_2
_ccdc_geom_bond_type
C28   O12   S    
C7    C10   A    
C50   H29   S    
C27   C29   A    
O9    C45   S    
C23   O5    A    
C4    C8    A    
O10   C47   S    
C24   O6    A    
C7    C8    A    
C39   C41   A    
Cu1   Cu2   S    
C25   C28   A    
C3    C43   A    
C26   C27   A    
C52   H34   S    
C45   H18   S    
C19   C21   A    
C5    C11   A    
C2    O4    A    
C54   H40   S    
C42   H7    S    
C6    C12   A    
C43   H6    S    
C46   H21   S    
C53   H37   S    
C9    O13   S    
O12   C51   S    
C33   C36   S    
C34   C35   S    
C47   H23   S    
C1    O3    A    
C39   H9    S    
C8    C9    A    
C40   H10   S    
C45   C46   S    
C1    O1    A    
C18   C20   A    
C1    C37   S    
C53   H38   S    
C40   C42   A    
C50   H30   S    
Cu1   O8    S    
C55   H42   S    
C46   H20   S    
C45   H17   S    
C48   H25   S    
Cu1   O5    S    
C32   C35   T    
C23   O7    A    
C4    C6    A    
C56   H46   S    
C4    C44   A    
C3    C5    A    
C25   C26   A    
C46   H19   S    
C21   C29   A    
C37   C43   A    
C38   C44   A    
C11   H3    S    
C2    C38   S    
C49   H28   S    
Cu1   O4    S    
C33   C34   D    
C13   C21   A    
C9    C11   A    
Cu2   O7    S    
C10   O14   S    
C10   C12   A    
C44   H5    S    
C29   H11   S    
C47   H22   S    
C50   H31   S    
C51   H33   S    
C13   C15   A    
Cu1   O1    S    
C14   C16   A    
C54   H41   S    
C16   H15   S    
C20   C22   A    
C47   C48   S    
C24   O8    A    
C49   C50   S    
O14   C55   S    
C48   H26   S    
C5    C39   A    
C22   C30   A    
C13   O9    S    
C2    O2    A    
C48   H24   S    
C55   H43   S    
Cu2   O2    S    
C52   H36   S    
C51   C52   S    
O13   C53   S    
Cu1   N2    S    
C3    C7    A    
Cu2   N1    S    
C23   C32   S    
C14   C22   A    
C56   H45   S    
C24   C31   S    
Cu2   O3    S    
C54   H39   S    
C17   N1    A    
C18   N2    A    
C49   H27   S    
C20   C26   A    
C30   H12   S    
C28   C30   A    
C17   C19   A    
C15   H16   S    
C27   O11   S    
C6    C40   A    
C37   C41   A    
C19   C25   A    
C41   H8    S    
Cu2   O6    S    
C55   C56   S    
C17   H14   S    
C38   C42   A    
C18   H13   S    
C52   H35   S    
C51   H32   S    
C33   H2    S    
C15   N1    A    
C31   C36   T    
C34   H1    S    
C16   N2    A    
C14   O10   S    
O11   C49   S    
C56   H44   S    
C12   H4    S    
C53   C54   S    
