data_mof_unit_29625.cif
_audit_creation_date              2012-12-10T17:35:00-0500
_audit_creation_method            fapswitch 2.2
_symmetry_space_group_name_H-M    P1
_symmetry_Int_Tables_number       1
_space_group_crystal_system       triclinic
_cell_length_a                    12.371641
_cell_length_b                    13.157164
_cell_length_c                    13.859814
_cell_angle_alpha                 104.545853
_cell_angle_beta                  74.814761
_cell_angle_gamma                 116.832127
_cell_volume                      1919.56687564

loop_
_atom_site_label
_atom_site_type_symbol
_atom_type_description
_atom_site_fract_x
_atom_site_fract_y
_atom_site_fract_z
_atom_type_partial_charge
C1    C     C_R   0.143851 0.713847 0.512243 0.843529
C2    C     C_1   0.978495 0.507770 0.790624 -0.141037
C3    C     C_R   0.723736 0.983444 0.353480 -0.185994
C4    C     C_R   0.772918 0.164109 0.466452 -0.057665
C5    C     C_R   0.183037 0.906778 0.608729 -0.204408
C6    C     C_R   0.264112 0.016530 0.642983 -0.125333
C7    C     C_R   0.387703 0.056649 0.599465 -0.138818
C8    C     C_R   0.431816 0.990116 0.514905 0.025150
C9    C     C_R   0.345358 0.883959 0.472301 -0.020320
C10   C     C_R   0.558522 0.025004 0.472084 0.043619
C11   C     C_R   0.596543 0.954445 0.387029 0.053071
C12   C     C_R   0.985222 0.504343 0.685903 0.785567
C13   C     C_R   0.507490 0.861745 0.333756 0.052430
C14   C     C_R   0.381593 0.829971 0.375212 0.311760
C15   C     C_R   0.649054 0.129755 0.509998 -0.206607
C16   C     C_R   0.810848 0.087419 0.392811 -0.162743
C17   C     C_R   0.223530 0.837767 0.526709 -0.047038
C18   C     C_R   0.617494 0.634291 0.689661 -0.002954
C19   C     C_R   0.256124 0.351669 0.364165 0.567248
C20   C     C_R   0.354088 0.319540 0.340869 -0.272794
C21   C     C_R   0.450070 0.376832 0.395005 -0.287508
C22   C     C_R   0.450099 0.468113 0.473238 0.004621
C23   C     C_R   0.855828 0.286186 0.486370 0.798674
C24   C     C_R   0.344720 0.493668 0.500018 0.213135
C25   C     C_R   0.549222 0.529390 0.529444 -0.044717
C26   C     C_R   0.529698 0.593403 0.625154 0.115194
C27   C     C_R   0.426012 0.618773 0.651033 -0.256301
C28   C     C_R   0.340169 0.575782 0.586655 -0.147281
C29   C     C_R   0.670265 0.536042 0.491002 0.220696
C30   C     C_R   0.723524 0.612625 0.654552 0.000782
C31   C     C_R   0.013756 0.493829 0.313971 0.912531
C32   C     C_1   0.020325 0.487895 0.208856 -0.119726
C33   C     C_2   0.036906 0.478405 0.014128 0.427058
C34   C     C_2   0.966893 0.513597 0.984029 -0.269915
C35   C     C_1   0.972606 0.510782 0.878943 0.093798
C36   C     C_1   0.028007 0.483032 0.119938 -0.024443
Cu1   Cu    Cu3+1 0.899780 0.525060 0.522890 0.930483
Cu2   Cu    Cu3+1 0.100220 0.474940 0.477110 1.003241
H1    H     H_    0.903847 0.545080 0.039000 0.119013
H2    H     H_    0.788088 0.638976 0.704868 0.144279
H3    H     H_    0.411647 0.675353 0.719779 0.161879
H4    H     H_    0.523431 0.348062 0.376282 0.172059
H5    H     H_    0.356194 0.249965 0.279975 0.189812
H6    H     H_    0.270519 0.607572 0.609356 0.194911
H7    H     H_    0.906857 0.110971 0.360288 0.207051
H8    H     H_    0.757778 0.928946 0.293856 0.148243
H9    H     H_    0.626137 0.190236 0.570145 0.142227
H10   H     H_    0.089730 0.873560 0.649949 0.147926
H11   H     H_    0.445249 0.140129 0.634457 0.129402
H12   H     H_    0.232313 0.068624 0.707340 0.159269
N1    N     N_R   0.748810 0.563010 0.557590 -0.198919
N2    N     N_R   0.250540 0.437620 0.443020 -0.240438
O1    O     O_R   0.025040 0.682470 0.528790 -0.596347
O2    O     O_R   0.194310 0.640150 0.490130 -0.588686
O3    O     O_R   0.903380 0.524130 0.659910 -0.596300
O4    O     O_R   0.072660 0.481800 0.621240 -0.581262
O5    O     O_R   0.805690 0.359850 0.509870 -0.582665
O6    O     O_R   0.974960 0.317530 0.471210 -0.537633
O7    O     O_R   0.927340 0.518200 0.378760 -0.604933
O8    O     O_R   0.096620 0.475870 0.340090 -0.493973
Cl1   Cl    Cl    0.269412 0.739212 0.297611 -0.684193
C37   C     C_3   0.598124 0.693825 0.797389 -0.453510
C38   C     C_3   0.499770 0.607335 0.865528 -0.294919
C39   C     C_3   0.478109 0.666681 0.973695 -0.794853
H13   H     H_    0.564667 0.707721 0.005145 0.235534
H14   H     H_    0.445456 0.733348 0.975827 0.260571
H15   H     H_    0.407111 0.602075 0.021253 0.277075
H16   H     H_    0.411397 0.564521 0.836712 0.267182
H17   H     H_    0.530068 0.539681 0.865822 0.222891
H18   H     H_    0.685222 0.734078 0.828315 0.193584
H19   H     H_    0.573283 0.765644 0.799346 0.204997
C40   C     C_3   0.721366 0.555340 0.381298 -0.390439
C41   C     C_3   0.820147 0.679168 0.375414 -0.298562
C42   C     C_3   0.876070 0.699786 0.266280 -0.841398
H20   H     H_    0.929451 0.647590 0.230049 0.265420
H21   H     H_    0.803494 0.676683 0.221745 0.234049
H22   H     H_    0.939001 0.792176 0.265223 0.257715
H23   H     H_    0.777248 0.740703 0.412592 0.195926
H24   H     H_    0.894954 0.699029 0.416283 0.271059
H25   H     H_    0.750352 0.487177 0.335830 0.211457
H26   H     H_    0.649467 0.548455 0.343155 0.180062
Cl2   Cl    Cl    0.141577 0.275357 0.288693 -0.634332
Cl3   Cl    Cl    0.140964 0.426845 0.928305 -0.621975
C43   C     C_3   0.546142 0.804455 0.228657 -0.344631
C44   C     C_3   0.574783 0.703922 0.233006 -0.434061
C45   C     C_3   0.458532 0.595526 0.253371 -0.672266
H27   H     H_    0.406052 0.610499 0.329621 0.274224
H28   H     H_    0.399608 0.569858 0.195685 0.275802
H29   H     H_    0.484404 0.524092 0.249835 0.216885
H30   H     H_    0.629295 0.683942 0.159156 0.206739
H31   H     H_    0.630672 0.728085 0.292700 0.225830
H32   H     H_    0.476786 0.774913 0.179504 0.249233
H33   H     H_    0.627845 0.868743 0.187417 0.156999

loop_
_geom_bond_atom_site_label_1
_geom_bond_atom_site_label_2
_ccdc_geom_bond_type
C2    C35   T    
C24   N2    A    
C23   O6    A    
C30   N1    A    
C41   C42   S    
C19   C20   A    
C18   C26   A    
C15   H9    S    
C9    C14   A    
C2    C12   S    
C44   H31   S    
C7    C8    A    
C44   C45   S    
C13   C43   S    
C26   C27   A    
Cu1   Cu2   S    
C42   H21   S    
C32   C36   T    
C10   C15   A    
C5    C6    A    
Cu1   N1    S    
C45   H28   S    
C5    C17   A    
C33   C36   S    
C37   H18   S    
C34   C35   S    
C31   O7    A    
C1    O1    A    
Cu2   O6    S    
C19   N2    A    
C38   H17   S    
C8    C9    A    
C42   H22   S    
C41   H23   S    
C18   C30   A    
C19   Cl2   S    
C40   H26   S    
C29   C40   S    
Cu1   O1    S    
C21   C22   A    
C25   C29   A    
C5    H10   S    
C42   H20   S    
C34   H1    S    
C39   H15   S    
C43   C44   S    
C7    H11   S    
C4    C23   S    
C45   H27   S    
C18   C37   S    
C25   C26   A    
C14   Cl1   S    
C28   H6    S    
C38   C39   S    
C39   H14   S    
C31   O8    A    
C4    C16   A    
C1    O2    A    
C37   C38   S    
C27   H3    S    
C31   C32   S    
Cu2   O2    S    
C33   C34   D    
C41   H24   S    
C30   H2    S    
Cu1   O7    S    
C6    H12   S    
C33   Cl3   S    
C12   O4    A    
Cu2   O8    S    
C9    C17   A    
C22   C25   A    
C22   C24   A    
C20   H5    S    
C29   N1    A    
C23   O5    A    
C38   H16   S    
C24   C28   A    
C40   C41   S    
C45   H29   S    
C16   H7    S    
C44   H30   S    
C6    C7    A    
C3    H8    S    
C1    C17   S    
C39   H13   S    
C4    C15   A    
C40   H25   S    
C11   C13   A    
Cu2   N2    S    
C37   H19   S    
C43   H33   S    
C12   O3    A    
C3    C11   A    
C10   C11   A    
C21   H4    S    
Cu1   O3    S    
Cu2   O4    S    
C20   C21   A    
C8    C10   A    
C27   C28   A    
C43   H32   S    
C13   C14   A    
Cu1   O5    S    
C3    C16   A    
