data_mof_unit_33680.cif
_audit_creation_date              2012-12-10T18:28:11-0500
_audit_creation_method            fapswitch 2.2
_symmetry_space_group_name_H-M    P1
_symmetry_Int_Tables_number       1
_space_group_crystal_system       triclinic
_cell_length_a                    23.18767
_cell_length_b                    20.180897
_cell_length_c                    14.95482
_cell_angle_alpha                 89.889285
_cell_angle_beta                  99.597372
_cell_angle_gamma                 90.079824
_cell_volume                      6900.1135567

loop_
_atom_site_label
_atom_site_type_symbol
_atom_type_description
_atom_site_fract_x
_atom_site_fract_y
_atom_site_fract_z
_atom_type_partial_charge
C1    C     C_R   0.574453 0.088942 0.552945 0.872756
C2    C     C_R   0.423405 0.913706 0.445458 0.873835
C3    C     C_R   0.423525 0.086433 0.445411 0.874161
C4    C     C_R   0.574506 0.911172 0.553068 0.873195
C5    C     C_R   0.074451 0.588942 0.552944 0.872815
C6    C     C_R   0.923409 0.413701 0.445461 0.873767
C7    C     C_R   0.923527 0.586433 0.445408 0.874228
C8    C     C_R   0.074501 0.411166 0.553063 0.873182
C9    C     C_R   0.204020 0.172864 0.630841 0.091533
C10   C     C_R   0.722592 0.741106 0.308862 0.068545
C11   C     C_R   0.716987 0.268737 0.309290 0.089065
C12   C     C_R   0.207098 0.826365 0.636582 0.077172
C13   C     C_R   0.703602 0.672536 0.630169 0.091550
C14   C     C_R   0.222140 0.240374 0.308813 0.068497
C15   C     C_R   0.217302 0.768181 0.309251 0.089007
C16   C     C_R   0.707570 0.325968 0.637231 0.077142
C17   C     C_R   0.627253 0.973357 0.206489 -0.338207
C18   C     C_R   0.371935 0.976158 0.793372 -0.329578
C19   C     C_R   0.127257 0.473383 0.206486 -0.338226
C20   C     C_R   0.871940 0.476130 0.793372 -0.329558
C21   C     C_R   0.606564 0.986516 0.286107 -0.026208
C22   C     C_R   0.393106 0.988121 0.713732 -0.022920
C23   C     C_R   0.106565 0.486522 0.286107 -0.026299
C24   C     C_R   0.893110 0.488094 0.713731 -0.022886
C25   C     C_R   0.509447 0.001368 0.206937 0.191896
C26   C     C_R   0.490399 0.000962 0.793203 0.192504
C27   C     C_R   0.009450 0.501387 0.206935 0.191864
C28   C     C_R   0.990396 0.500988 0.793205 0.192450
C29   C     C_R   0.527046 0.981948 0.124289 -0.042610
C30   C     C_R   0.472214 0.982385 0.875858 -0.042857
C31   C     C_R   0.027051 0.481977 0.124285 -0.042590
C32   C     C_R   0.972216 0.482405 0.875859 -0.042839
C33   C     C_R   0.587751 0.971061 0.125242 0.165087
C34   C     C_R   0.411264 0.973210 0.874798 0.165528
C35   C     C_R   0.087757 0.471096 0.125237 0.165073
C36   C     C_R   0.911269 0.473207 0.874799 0.165546
C37   C     C_R   0.488042 0.974278 0.041146 0.085919
C38   C     C_R   0.510960 0.973836 0.959045 0.085180
C39   C     C_R   0.988047 0.474305 0.041146 0.085920
C40   C     C_R   0.010963 0.473869 0.959044 0.085187
C41   C     C_R   0.570667 0.958989 0.963053 -0.255094
C42   C     C_R   0.427963 0.961236 0.037108 -0.254991
C43   C     C_R   0.070673 0.459036 0.963047 -0.255103
C44   C     C_R   0.927970 0.461251 0.037112 -0.255000
C45   C     C_R   0.608403 0.956979 0.045159 -0.203420
C46   C     C_R   0.390218 0.960105 0.954940 -0.200197
C47   C     C_R   0.108410 0.457027 0.045152 -0.203460
C48   C     C_R   0.890225 0.460102 0.954945 -0.200212
C49   C     C_R   0.610191 0.852281 0.579197 -0.080094
C50   C     C_R   0.373564 0.127993 0.407919 -0.109122
C51   C     C_R   0.372739 0.873194 0.408040 -0.073296
C52   C     C_R   0.610324 0.147703 0.579697 -0.116902
C53   C     C_R   0.110201 0.352288 0.579221 -0.080030
C54   C     C_R   0.873614 0.628053 0.407904 -0.109112
C55   C     C_R   0.872726 0.373209 0.408059 -0.073297
C56   C     C_R   0.110267 0.647751 0.579641 -0.117000
C57   C     C_R   0.639350 0.759081 0.679682 0.118730
C58   C     C_R   0.314885 0.185937 0.282220 0.101107
C59   C     C_R   0.309553 0.821495 0.281235 0.118040
C60   C     C_R   0.645225 0.234452 0.687779 0.096490
C61   C     C_R   0.139779 0.259476 0.680200 0.118737
C62   C     C_R   0.815273 0.686492 0.282345 0.101104
C63   C     C_R   0.809299 0.321867 0.281201 0.118094
C64   C     C_R   0.144605 0.734996 0.687221 0.096509
C65   C     C_R   0.609013 0.818882 0.660813 -0.273652
C66   C     C_R   0.364667 0.149657 0.317984 -0.192362
C67   C     C_R   0.360982 0.855687 0.316420 -0.275197
C68   C     C_R   0.613391 0.176337 0.665099 -0.172397
C69   C     C_R   0.109330 0.319184 0.661138 -0.273631
C70   C     C_R   0.864933 0.650012 0.318104 -0.192290
C71   C     C_R   0.860805 0.355926 0.316360 -0.275119
C72   C     C_R   0.112956 0.676729 0.664749 -0.172335
C73   C     C_R   0.641183 0.825696 0.516094 -0.251548
C74   C     C_R   0.331834 0.141261 0.461904 -0.254768
C75   C     C_R   0.332555 0.857889 0.464088 -0.258091
C76   C     C_R   0.638361 0.177870 0.515636 -0.251264
C77   C     C_R   0.140956 0.325465 0.515971 -0.251716
C78   C     C_R   0.831755 0.641158 0.461721 -0.254789
C79   C     C_R   0.832660 0.357755 0.464241 -0.258091
C80   C     C_R   0.138527 0.677699 0.515689 -0.251205
C81   C     C_R   0.668566 0.764215 0.529516 0.022234
C82   C     C_R   0.280168 0.174688 0.428105 0.043839
C83   C     C_R   0.279415 0.827390 0.430614 0.021924
C84   C     C_R   0.667781 0.238048 0.532829 0.058875
C85   C     C_R   0.168518 0.264096 0.529679 0.022185
C86   C     C_R   0.780217 0.674831 0.427917 0.043882
C87   C     C_R   0.779428 0.327448 0.430806 0.021898
C88   C     C_R   0.167748 0.738014 0.532628 0.058886
C89   C     C_R   0.670317 0.731261 0.614241 0.152755
C90   C     C_R   0.271973 0.200456 0.337843 0.115118
C91   C     C_R   0.268429 0.805638 0.338826 0.157674
C92   C     C_R   0.673379 0.267059 0.621283 0.068637
C93   C     C_R   0.170580 0.231462 0.614693 0.152793
C94   C     C_R   0.772270 0.700933 0.337836 0.115090
C95   C     C_R   0.768247 0.305965 0.338897 0.157604
C96   C     C_R   0.173007 0.767367 0.620816 0.068607
C97   C     C_R   0.697767 0.737705 0.461858 0.057425
C98   C     C_R   0.239037 0.187426 0.486047 0.064118
C99   C     C_R   0.239213 0.813868 0.489700 0.032775
C100  C     C_R   0.695731 0.266510 0.464657 0.063501
C101  C     C_R   0.197631 0.237426 0.462017 0.057450
C102  C     C_R   0.738992 0.687495 0.485728 0.064116
C103  C     C_R   0.739313 0.313866 0.490014 0.032790
C104  C     C_R   0.195791 0.766313 0.464461 0.063495
C105  C     C_R   0.238634 0.152494 0.567898 -0.297337
C106  C     C_R   0.687200 0.760198 0.371255 -0.271623
C107  C     C_R   0.682307 0.248258 0.372305 -0.298793
C108  C     C_R   0.240997 0.846808 0.572997 -0.210320
C109  C     C_R   0.738325 0.652296 0.567304 -0.297286
C110  C     C_R   0.186823 0.259572 0.371264 -0.271618
C111  C     C_R   0.182583 0.747743 0.372219 -0.298842
C112  C     C_R   0.741333 0.346562 0.573543 -0.210418
H1    H     H_    0.588456 0.944976 0.903895 0.141392
H2    H     H_    0.409776 0.947879 0.096241 0.138751
H3    H     H_    0.088463 0.445030 0.903886 0.141325
H4    H     H_    0.909786 0.447897 0.096250 0.138716
H5    H     H_    0.341301 0.127137 0.532393 0.170203
H6    H     H_    0.644865 0.854654 0.456591 0.163917
H7    H     H_    0.638533 0.152288 0.452457 0.168823
H8    H     H_    0.344032 0.868465 0.535567 0.165650
H9    H     H_    0.841038 0.626741 0.532112 0.170145
H10   H     H_    0.144353 0.354174 0.456147 0.164109
H11   H     H_    0.139000 0.651865 0.452784 0.168757
H12   H     H_    0.844283 0.368098 0.535773 0.165702
H13   H     H_    0.396730 0.138929 0.275026 0.182264
H14   H     H_    0.584483 0.838937 0.710190 0.158886
H15   H     H_    0.591808 0.152782 0.715747 0.180619
H16   H     H_    0.391592 0.868467 0.271711 0.154421
H17   H     H_    0.897091 0.639388 0.275264 0.182283
H18   H     H_    0.084982 0.339421 0.710631 0.158772
H19   H     H_    0.091151 0.653379 0.715292 0.180702
H20   H     H_    0.891335 0.368796 0.271559 0.154300
H21   H     H_    0.263807 0.107665 0.583444 0.146355
H22   H     H_    0.650191 0.791518 0.346306 0.152642
H23   H     H_    0.643794 0.219432 0.346676 0.152294
H24   H     H_    0.267038 0.891125 0.588516 0.152246
H25   H     H_    0.763359 0.607351 0.582673 0.146319
H26   H     H_    0.149682 0.290682 0.346256 0.152553
H27   H     H_    0.144190 0.718706 0.346627 0.152381
H28   H     H_    0.767464 0.390801 0.589191 0.152213
H29   H     H_    0.654161 0.945655 0.045747 0.142105
H30   H     H_    0.344194 0.950129 0.954332 0.141630
H31   H     H_    0.154170 0.445710 0.045737 0.142069
H32   H     H_    0.844203 0.450112 0.954338 0.141634
H33   H     H_    0.363667 0.987162 0.649498 0.135829
H34   H     H_    0.636064 0.984990 0.350240 0.143544
H35   H     H_    0.863672 0.487116 0.649496 0.135814
H36   H     H_    0.136064 0.484990 0.350240 0.143604
H37   H     H_    0.673411 0.963531 0.208647 0.147035
H38   H     H_    0.325528 0.967727 0.791093 0.155670
H39   H     H_    0.173417 0.463564 0.208643 0.147134
H40   H     H_    0.825536 0.467678 0.791092 0.155772
N1    N     N_R   0.549130 0.000000 0.284090 -0.093656
N2    N     N_R   0.450870 0.000000 0.715910 -0.092183
N3    N     N_R   0.049130 0.500000 0.284090 -0.093659
N4    N     N_R   0.950870 0.500000 0.715910 -0.092174
O1    O     O_R   0.541320 0.066090 0.608930 -0.590703
O2    O     O_R   0.458680 0.933910 0.391070 -0.613285
O3    O     O_R   0.458680 0.066090 0.391070 -0.593236
O4    O     O_R   0.541320 0.933910 0.608930 -0.612800
O5    O     O_R   0.041320 0.566090 0.608930 -0.590759
O6    O     O_R   0.958680 0.433910 0.391070 -0.613290
O7    O     O_R   0.958680 0.566090 0.391070 -0.593239
O8    O     O_R   0.041320 0.433910 0.608930 -0.612769
O9    O     O_R   0.572880 0.066110 0.470280 -0.616998
O10   O     O_R   0.427120 0.933890 0.529720 -0.623416
O11   O     O_R   0.427120 0.066110 0.529720 -0.617891
O12   O     O_R   0.572880 0.933890 0.470280 -0.622890
O13   O     O_R   0.072880 0.566110 0.470280 -0.616967
O14   O     O_R   0.927120 0.433890 0.529720 -0.623438
O15   O     O_R   0.927120 0.566110 0.529720 -0.617858
O16   O     O_R   0.072880 0.433890 0.470280 -0.622973
Zn1   Zn    Zn3+2 0.478910 0.000000 0.592580 0.944449
Zn2   Zn    Zn3+2 0.521090 0.000000 0.407420 0.941908
Zn3   Zn    Zn3+2 0.978910 0.500000 0.592580 0.944452
Zn4   Zn    Zn3+2 0.021090 0.500000 0.407420 0.941885
N5    N     N_3   0.205078 0.134621 0.711960 -0.431079
H41   H     H_    0.248294 0.132359 0.745852 0.187569
H42   H     H_    0.191607 0.086393 0.693346 0.185887
N6    N     N_3   0.708159 0.765134 0.217687 -0.493854
H43   H     H_    0.665931 0.748985 0.191016 0.193475
H44   H     H_    0.707736 0.816943 0.219385 0.184258
N7    N     N_3   0.700589 0.249034 0.216498 -0.430596
H45   H     H_    0.658660 0.267333 0.192708 0.187087
H46   H     H_    0.698569 0.197281 0.214190 0.187764
N8    N     N_3   0.208290 0.868615 0.713690 -0.486461
H47   H     H_    0.229018 0.845525 0.772720 0.181928
H48   H     H_    0.166060 0.884664 0.717947 0.186295
N9    N     N_3   0.704383 0.634019 0.710988 -0.431076
H49   H     H_    0.747541 0.631540 0.745079 0.187502
H50   H     H_    0.690825 0.585885 0.691989 0.185921
N10   N     N_3   0.207451 0.264018 0.217485 -0.493828
H51   H     H_    0.165251 0.247609 0.191127 0.193447
H52   H     H_    0.206838 0.315832 0.218802 0.184392
N11   N     N_3   0.201084 0.748209 0.216542 -0.430572
H53   H     H_    0.159122 0.766335 0.192543 0.187139
H54   H     H_    0.199202 0.696443 0.214503 0.187708
N12   N     N_3   0.708926 0.368020 0.714579 -0.486488
H55   H     H_    0.729789 0.344809 0.773425 0.181940
H56   H     H_    0.666718 0.383971 0.719161 0.186290
N13   N     N_3   0.638343 0.727583 0.765353 -0.434395
H57   H     H_    0.655304 0.760798 0.816668 0.180772
H58   H     H_    0.594746 0.718100 0.770987 0.185084
N14   N     N_3   0.310561 0.207484 0.190024 -0.468738
H59   H     H_    0.309647 0.259230 0.187674 0.207616
H60   H     H_    0.272868 0.187379 0.151538 0.210792
N15   N     N_3   0.300031 0.803151 0.187415 -0.435577
H61   H     H_    0.300523 0.846283 0.148676 0.177520
H62   H     H_    0.334981 0.773430 0.176007 0.184042
N16   N     N_3   0.650016 0.255011 0.780265 -0.478040
H63   H     H_    0.630971 0.301380 0.784569 0.185094
H64   H     H_    0.693640 0.253264 0.811921 0.186039
N17   N     N_3   0.139103 0.228305 0.766179 -0.434400
H65   H     H_    0.156182 0.261732 0.817152 0.180728
H66   H     H_    0.095575 0.218816 0.772243 0.185082
N18   N     N_3   0.811176 0.708341 0.190310 -0.468716
H67   H     H_    0.810425 0.760097 0.188289 0.207634
H68   H     H_    0.773475 0.688475 0.151546 0.210772
N19   N     N_3   0.799610 0.303726 0.187298 -0.435602
H69   H     H_    0.800067 0.346936 0.148706 0.177517
H70   H     H_    0.834498 0.274012 0.175611 0.183989
N20   N     N_3   0.148821 0.756055 0.779408 -0.478034
H71   H     H_    0.129633 0.802429 0.782941 0.185133
H72   H     H_    0.192321 0.754498 0.811669 0.186007
N21   N     N_3   0.546782 0.028383 0.788009 -0.432621
H73   H     H_    0.563508 0.055231 0.846262 0.172927
H74   H     H_    0.575123 0.991213 0.773652 0.183841
N22   N     N_3   0.453541 0.029764 0.212239 -0.434187
H75   H     H_    0.437249 0.057055 0.154088 0.173203
H76   H     H_    0.424601 0.993146 0.226705 0.184086
N23   N     N_3   0.046769 0.528439 0.788011 -0.432551
H77   H     H_    0.063486 0.555287 0.846268 0.172958
H78   H     H_    0.075123 0.491285 0.773649 0.183815
N24   N     N_3   0.953548 0.529797 0.212237 -0.434108
H79   H     H_    0.937257 0.557083 0.154080 0.173236
H80   H     H_    0.924602 0.493187 0.226707 0.184062

loop_
_geom_bond_atom_site_label_1
_geom_bond_atom_site_label_2
_ccdc_geom_bond_type
N3    Zn4   S    
C79   H12   S    
C3    O3    A    
C88   C96   A    
N4    Zn3   S    
N11   H54   S    
C7    O15   A    
C33   C45   A    
N13   H57   S    
C112  H28   S    
C5    C56   S    
C53   C77   A    
C6    C55   S    
C53   C69   A    
C76   C84   A    
N22   H76   S    
N14   H60   S    
C3    O11   A    
C46   H30   S    
N17   H65   S    
O12   Zn2   S    
C99   C108  A    
C30   C38   A    
C98   C105  A    
C57   C89   A    
C32   C36   A    
C51   C75   A    
C108  H24   S    
N18   H68   S    
C23   N3    A    
C50   C74   A    
N16   H63   S    
C42   C46   A    
O10   Zn1   S    
O5    Zn3   S    
C61   C93   A    
O6    Zn4   S    
C10   C94   A    
C26   N21   S    
C9    C105  A    
C47   H31   S    
C13   N9    S    
C48   H32   S    
O8    Zn3   S    
C109  H25   S    
O4    Zn1   S    
C63   N19   S    
C37   C42   A    
C16   N12   S    
C78   H9    S    
C20   C24   A    
C14   C90   A    
C107  H23   S    
C77   H10   S    
C86   C94   A    
C27   N24   S    
C59   C67   A    
C71   H20   S    
C85   C93   A    
C42   H2    S    
C40   C43   A    
C6    O6    A    
C29   C33   A    
N6    H44   S    
C69   H18   S    
C56   C72   A    
O3    Zn2   S    
C87   C95   A    
C19   H39   S    
N12   H55   S    
C34   C46   A    
C43   C47   A    
C2    O10   A    
C22   N2    A    
C97   C102  A    
C52   C68   A    
O11   Zn1   S    
C81   C89   A    
C78   C86   A    
N17   H66   S    
C99   C104  A    
N8    H47   S    
C58   N14   S    
C83   C99   A    
C45   H29   S    
N13   H58   S    
C62   C70   A    
N20   H71   S    
N24   H80   S    
C74   C82   A    
O7    Zn4   S    
C5    O13   A    
C79   C87   A    
N22   H75   S    
C88   C104  A    
C3    C50   S    
C58   C66   A    
O14   Zn3   S    
C60   C92   A    
C25   C29   A    
N21   H74   S    
C76   H7    S    
C82   C98   A    
C111  H27   S    
N15   H61   S    
C61   N17   S    
C15   C111  A    
C28   C32   A    
C63   C95   A    
C11   N7    S    
N18   H67   S    
C64   C96   A    
C38   C41   A    
C8    O8    A    
C57   C65   A    
N19   H69   S    
C12   C108  A    
C30   C34   A    
C51   C67   A    
N5    H42   S    
O9    Zn2   S    
C7    O7    A    
N1    Zn2   S    
C100  C103  A    
C17   C21   A    
C4    O12   A    
C43   H3    S    
C103  C112  A    
N10   H52   S    
C19   C23   A    
N7    H45   S    
C37   C38   A    
N19   H70   S    
C55   C79   A    
C54   C70   A    
C22   H33   S    
C1    O9    A    
C2    O2    A    
C12   N8    S    
N21   H73   S    
C64   N20   S    
C1    O1    A    
N23   H78   S    
C59   C91   A    
C82   C90   A    
N20   H72   S    
C18   C34   A    
C68   H15   S    
C44   H4    S    
C49   C65   A    
C73   C81   A    
C24   N4    A    
C87   C103  A    
C97   C106  A    
C11   C95   A    
C110  H26   S    
C63   C71   A    
C16   C92   A    
N16   H64   S    
C62   C94   A    
C27   C31   A    
C11   C107  A    
C31   C35   A    
C8    O16   A    
C26   N2    A    
N24   H79   S    
N8    H48   S    
C83   C91   A    
C86   C102  A    
C9    C93   A    
C39   C40   A    
C32   C40   A    
C85   C101  A    
N6    H43   S    
C16   C112  A    
C72   H19   S    
C105  H21   S    
C6    O14   A    
C61   C69   A    
C14   C110  A    
C74   H5    S    
C28   N4    A    
C100  C107  A    
C41   C45   A    
C73   H6    S    
N2    Zn1   S    
C13   C89   A    
C18   C22   A    
C62   N18   S    
C17   H37   S    
C75   H8    S    
C41   H1    S    
C52   C76   A    
C24   H35   S    
O2    Zn2   S    
C8    C53   S    
C104  C111  A    
C50   C66   A    
C26   C30   A    
C39   C44   A    
C13   C109  A    
C98   C101  A    
C28   N23   S    
C23   H36   S    
C25   N22   S    
C56   C80   A    
C66   H13   S    
C4    C49   S    
C58   C90   A    
C10   N6    S    
C65   H14   S    
N7    H46   S    
C101  C110  A    
C15   N11   S    
C80   C88   A    
C25   N1    A    
C19   C35   A    
C67   H16   S    
N10   H51   S    
C75   C83   A    
C4    O4    A    
O15   Zn3   S    
C77   C85   A    
C17   C33   A    
C81   C97   A    
O13   Zn4   S    
C31   C39   A    
C36   C48   A    
C49   C73   A    
C14   N10   S    
C64   C72   A    
N9    H49   S    
C1    C52   S    
C84   C100  A    
C2    C51   S    
C15   C91   A    
N11   H53   S    
C20   C36   A    
O16   Zn4   S    
C106  H22   S    
C21   H34   S    
C20   H40   S    
N14   H59   S    
C60   C68   A    
O1    Zn1   S    
N5    H41   S    
C70   H17   S    
C29   C37   A    
N23   H77   S    
N15   H62   S    
C10   C106  A    
C21   N1    A    
C12   C96   A    
C102  C109  A    
N12   H56   S    
C84   C92   A    
C7    C54   S    
C5    O5    A    
C35   C47   A    
C18   H38   S    
C60   N16   S    
C80   H11   S    
C55   C71   A    
C44   C48   A    
C9    N5    S    
C59   N15   S    
N9    H50   S    
C54   C78   A    
C27   N3    A    
C57   N13   S    
