data_mof_unit_59912.cif
_audit_creation_date              2012-12-10T17:11:44-0500
_audit_creation_method            fapswitch 2.2
_symmetry_space_group_name_H-M    P1
_symmetry_Int_Tables_number       1
_space_group_crystal_system       triclinic
_cell_length_a                    19.209763
_cell_length_b                    10.729701
_cell_length_c                    10.059735
_cell_angle_alpha                 89.486952
_cell_angle_beta                  89.130138
_cell_angle_gamma                 90.728889
_cell_volume                      2072.96893293

loop_
_atom_site_label
_atom_site_type_symbol
_atom_type_description
_atom_site_fract_x
_atom_site_fract_y
_atom_site_fract_z
_atom_type_partial_charge
C1    C     C_R   0.497877 0.262713 0.500413 0.900701
C2    C     C_R   0.855378 0.472614 0.478130 -0.056015
C3    C     C_2   0.488609 0.933275 0.389638 -0.126337
C4    C     C_R   0.366189 0.499720 0.500908 0.790269
C5    C     C_2   0.505919 0.869077 0.498086 -0.312891
C6    C     C_2   0.492650 0.067451 0.388300 -0.142940
C7    C     C_2   0.489335 0.131056 0.501684 -0.331913
C8    C     C_2   0.537995 0.574375 0.924138 -0.260382
C9    C     C_2   0.530577 0.586397 0.072171 -0.033397
C10   C     C_R   0.501107 0.737216 0.499423 0.932651
C11   C     C_R   0.634448 0.495904 0.499251 0.886738
C12   C     C_R   0.291038 0.497497 0.502202 -0.179223
C13   C     C_R   0.254989 0.603339 0.457058 -0.029743
C14   C     C_R   0.182618 0.596958 0.450644 -0.114232
C15   C     C_R   0.146453 0.488032 0.488531 -0.017578
C16   C     C_R   0.182602 0.384498 0.535150 -0.113400
C17   C     C_R   0.255001 0.387502 0.542361 -0.038688
C18   C     C_2   0.292075 0.721199 0.417922 0.435252
C19   C     C_2   0.433499 0.462347 0.899242 0.589107
C20   C     C_2   0.562901 0.699148 0.127954 0.490465
C21   C     C_2   0.292147 0.274205 0.588145 0.475498
C22   C     C_R   0.861928 0.400852 0.716735 0.111640
C23   C     C_R   0.930843 0.474467 0.472207 0.251358
C24   C     C_R   0.899643 0.491207 0.786864 -0.124548
C25   C     C_R   0.936273 0.457470 0.900410 -0.085085
C26   C     C_R   0.935453 0.333578 0.944577 -0.106421
C27   C     C_R   0.898228 0.243104 0.874915 -0.113495
C28   C     C_R   0.861594 0.276416 0.761198 -0.116793
C29   C     C_R   0.712100 0.395656 0.730579 0.129155
C30   C     C_R   0.717075 0.463390 0.849048 -0.108242
C31   C     C_R   0.684255 0.418990 0.965429 -0.101520
C32   C     C_R   0.645614 0.307778 0.963994 -0.127924
C33   C     C_R   0.640202 0.240168 0.846375 -0.104835
C34   C     C_R   0.070724 0.482750 0.480455 0.302501
C35   C     C_R   0.673619 0.283421 0.730103 -0.121674
C36   C     C_2   0.852277 0.538996 0.235761 0.400870
C37   C     C_R   0.821185 0.437657 0.598427 -0.016934
C38   C     C_R   0.748056 0.441013 0.607012 -0.058629
C39   C     C_R   0.710421 0.484819 0.496192 -0.153826
C40   C     C_R   0.745513 0.517335 0.377561 -0.164670
C41   C     C_R   0.817538 0.510020 0.366110 -0.010788
H1    H     H_    0.525363 0.912127 0.587487 0.142026
H2    H     H_    0.347958 0.730650 0.428487 0.055222
H3    H     H_    0.405138 0.515034 0.973726 0.009866
H4    H     H_    0.552350 0.789390 0.083636 0.008743
H5    H     H_    0.348489 0.272225 0.589734 0.085195
H6    H     H_    0.900081 0.587661 0.754158 0.140981
H7    H     H_    0.965012 0.527465 0.954555 0.142673
H8    H     H_    0.963606 0.307733 0.032827 0.136166
H9    H     H_    0.897626 0.147204 0.909226 0.142664
H10   H     H_    0.832693 0.205734 0.708216 0.130973
H11   H     H_    0.746361 0.550241 0.851093 0.151407
H12   H     H_    0.498634 0.113696 0.292184 0.173959
H13   H     H_    0.688122 0.471454 0.056423 0.176138
H14   H     H_    0.619701 0.274245 0.053928 0.131537
H15   H     H_    0.610190 0.154136 0.845317 0.128842
H16   H     H_    0.669353 0.230023 0.639656 0.111305
H17   H     H_    0.907376 0.522437 0.220581 0.072467
H18   H     H_    0.478315 0.087558 0.597534 0.164894
H19   H     H_    0.578741 0.629099 0.874394 0.169499
H20   H     H_    0.491872 0.415484 0.106434 0.158603
H21   H     H_    0.154360 0.677171 0.415430 0.197213
H22   H     H_    0.154297 0.300719 0.565293 0.197755
H23   H     H_    0.716385 0.548591 0.292487 0.225818
H24   H     H_    0.472695 0.887207 0.299027 0.165340
N1    N     N_R   0.035748 0.373436 0.500498 -0.164340
N2    N     N_R   0.966780 0.369314 0.496661 -0.150378
N3    N     N_R   0.965453 0.583633 0.451372 -0.173106
N4    N     N_R   0.034404 0.587586 0.455035 -0.170466
N5    N     N_2   0.500750 0.501330 0.852150 -0.127650
N6    N     N_2   0.500770 0.501360 0.147810 -0.214711
O1    O     O_R   0.499990 0.319060 0.613040 -0.584920
O2    O     O_2   0.406039 0.369476 0.853282 -0.568140
O3    O     O_2   0.605939 0.691998 0.215327 -0.551603
O4    O     O_2   0.260059 0.180691 0.624609 -0.543800
O5    O     O_2   0.819532 0.580873 0.142671 -0.591717
O6    O     O_R   0.500010 0.319100 0.386900 -0.624808
O7    O     O_R   0.398130 0.499970 0.613110 -0.588439
O8    O     O_R   0.398150 0.500010 0.386970 -0.613971
O9    O     O_R   0.499990 0.680900 0.613100 -0.630895
O10   O     O_R   0.500010 0.680940 0.386960 -0.586643
O11   O     O_R   0.601850 0.499990 0.613030 -0.609151
O12   O     O_R   0.601870 0.500030 0.386890 -0.573038
O13   O     O_2   0.260461 0.810082 0.373683 -0.546282
Zn1   Zn    Zn3+2 0.499990 0.499970 0.650990 0.996003
Zn2   Zn    Zn3+2 0.500010 0.500030 0.349010 0.974686

loop_
_geom_bond_atom_site_label_1
_geom_bond_atom_site_label_2
_ccdc_geom_bond_type
C5    H1    S    
C1    O6    A    
C3    C6    S    
C34   N1    A    
O1    Zn1   S    
C26   C27   A    
C29   C30   A    
C13   C18   S    
C37   C38   A    
C36   H17   S    
C30   C31   A    
C28   H10   S    
C2    C41   A    
C15   C16   A    
C14   H21   S    
C23   N2    A    
C30   H11   S    
C36   O5    D    
C8    C9    S    
C29   C38   S    
C18   O13   D    
C16   H22   S    
C4    C12   S    
C15   C34   S    
O10   Zn2   S    
C27   H9    S    
H20   N6    S    
C33   H15   S    
N1    N2    A    
C22   C28   A    
C13   C14   A    
C36   C41   S    
C3    H24   S    
C7    H18   S    
C11   O11   A    
C38   C39   A    
C1    O1    A    
C9    N6    D    
C19   O2    D    
C24   C25   A    
C4    O8    A    
C26   H8    S    
C39   C40   A    
C10   O9    A    
N3    N4    A    
C11   O12   A    
C25   C26   A    
C22   C37   S    
C17   C21   S    
C23   N3    A    
C12   C17   A    
C4    O7    A    
O9    Zn1   S    
N6    Zn2   S    
C9    C20   S    
C31   C32   A    
C25   H7    S    
C20   O3    D    
C11   C39   S    
C34   N4    A    
O7    Zn1   S    
C40   C41   A    
O6    Zn2   S    
C22   C24   A    
C6    H12   S    
C2    C23   S    
C19   H3    S    
C21   H5    S    
C29   C35   A    
C32   H14   S    
C1    C7    S    
C24   H6    S    
C20   H4    S    
C3    C5    D    
C6    C7    D    
O11   Zn1   S    
C21   O4    D    
C10   O10   A    
C8    N5    D    
C40   H23   S    
C35   H16   S    
C32   C33   A    
C5    C10   S    
C18   H2    S    
C8    H19   S    
C2    C37   A    
C16   C17   A    
C33   C35   A    
C31   H13   S    
O12   Zn2   S    
C12   C13   A    
C27   C28   A    
C14   C15   A    
C19   N5    S    
N5    Zn1   S    
O8    Zn2   S    
