data_mof_unit_52632.cif
_audit_creation_date              2012-12-10T20:28:44-0500
_audit_creation_method            fapswitch 2.2
_symmetry_space_group_name_H-M    P1
_symmetry_Int_Tables_number       1
_space_group_crystal_system       triclinic
_cell_length_a                    10.714938
_cell_length_b                    10.725735
_cell_length_c                    9.826088
_cell_angle_alpha                 89.977797
_cell_angle_beta                  89.68062
_cell_angle_gamma                 89.818177
_cell_volume                      1129.24560925

loop_
_atom_site_label
_atom_site_type_symbol
_atom_type_description
_atom_site_fract_x
_atom_site_fract_y
_atom_site_fract_z
_atom_type_partial_charge
C1    C     C_R   0.503674 0.260248 0.499965 0.921725
C2    C     C_R   0.549291 0.937006 0.382233 0.511811
C3    C     C_R   0.509454 0.872161 0.499782 -0.281252
C4    C     C_R   0.260486 0.513996 0.501009 0.878938
C5    C     C_R   0.471946 0.936513 0.616839 -0.057242
C6    C     C_3   0.531759 0.929274 0.756002 0.358707
C7    C     C_3   0.541928 0.069670 0.751206 -0.489791
C8    C     C_R   0.457976 0.398479 0.071814 0.235955
C9    C     C_R   0.553810 0.594063 0.071432 -0.082523
C10   C     C_R   0.554302 0.593857 0.927348 -0.103165
C11   C     C_R   0.458189 0.398259 0.928964 0.207264
C12   C     C_R   0.061092 0.530811 0.629484 0.112780
C13   C     C_3   0.330373 0.343919 0.924767 -0.530968
C14   C     C_3   0.330362 0.344316 0.079196 -0.528234
C15   C     C_R   0.504454 0.739923 0.500001 0.885123
C16   C     C_R   0.740381 0.491487 0.500511 0.852044
C17   C     C_R   0.112050 0.571174 0.754412 -0.261725
C18   C     C_R   0.052742 0.543774 0.877468 -0.294836
C19   C     C_R   0.945169 0.471046 0.877710 0.564025
C20   C     C_R   0.887336 0.444066 0.754188 -0.249852
C21   C     C_R   0.939167 0.486003 0.629119 0.031958
C22   C     C_3   0.950376 0.324849 0.046684 0.081828
C23   C     C_R   0.127211 0.530933 0.504409 -0.108451
C24   C     C_3   0.888417 0.207011 0.990566 -0.403147
C25   C     C_3   0.749040 0.203205 0.023765 -0.792764
C26   C     C_3   0.727190 0.841855 0.301751 0.074566
C27   C     C_3   0.815393 0.896583 0.194991 -0.352685
C28   C     C_3   0.947965 0.846413 0.211216 -0.962181
C29   C     C_3   0.338118 0.846024 0.842911 0.160207
C30   C     C_3   0.241071 0.951003 0.852379 -0.380492
C31   C     C_3   0.109460 0.902080 0.828288 -0.984168
C32   C     C_R   0.063897 0.524840 0.380858 -0.226128
C33   C     C_R   0.937264 0.508783 0.380899 -0.248173
C34   C     C_R   0.874277 0.487643 0.503585 -0.096769
C35   C     C_R   0.476717 0.064288 0.617308 0.042583
C36   C     C_R   0.507595 0.128573 0.499369 -0.167268
C37   C     C_R   0.541160 0.065254 0.380521 -0.300506
H1    H     H_    0.112077 0.531113 0.283867 0.164711
H2    H     H_    0.889024 0.512082 0.284397 0.198137
H3    H     H_    0.624501 0.882376 0.754321 0.088645
H4    H     H_    0.594879 0.671137 0.125021 0.189869
H5    H     H_    0.197215 0.624218 0.758368 0.172958
H6    H     H_    0.942171 0.322952 0.159276 0.161219
H7    H     H_    0.052495 0.322329 0.024143 0.100579
H8    H     H_    0.902116 0.201675 0.878611 0.201657
H9    H     H_    0.934583 0.124147 0.036082 0.186538
H10   H     H_    0.733127 0.215756 0.134716 0.247136
H11   H     H_    0.710210 0.111737 0.992914 0.238432
H12   H     H_    0.486283 0.117770 0.830782 0.215654
H13   H     H_    0.699117 0.277811 0.967581 0.269606
H14   H     H_    0.804321 0.387248 0.758138 0.176814
H15   H     H_    0.569091 0.114917 0.289295 0.180698
H16   H     H_    0.733667 0.738646 0.298009 0.179758
H17   H     H_    0.760253 0.870953 0.404735 0.104221
H18   H     H_    0.781394 0.873607 0.091322 0.238323
H19   H     H_    0.816495 0.999456 0.206668 0.223027
H20   H     H_    0.982794 0.865084 0.315486 0.268566
H21   H     H_    0.010726 0.893175 0.137067 0.265293
H22   H     H_    0.950331 0.744443 0.191683 0.272964
H23   H     H_    0.639769 0.103116 0.741498 0.160150
H24   H     H_    0.315572 0.775670 0.922286 0.151549
H25   H     H_    0.331655 0.795919 0.744645 0.139554
H26   H     H_    0.245223 0.994430 0.954957 0.229351
H27   H     H_    0.261589 0.024018 0.775523 0.225818
H28   H     H_    0.041245 0.979728 0.838167 0.262498
H29   H     H_    0.102186 0.862133 0.724353 0.271496
H30   H     H_    0.085691 0.829202 0.904321 0.274173
H31   H     H_    0.596564 0.670313 0.872502 0.169022
H32   H     H_    0.261790 0.408691 0.880094 0.232055
H33   H     H_    0.328165 0.248832 0.880838 0.197457
H34   H     H_    0.260788 0.409703 0.124081 0.207488
H35   H     H_    0.330703 0.249163 0.124075 0.209509
H36   H     H_    0.094080 0.572984 0.972565 0.147698
N1    N     N_R   0.499160 0.499140 0.142800 -0.120127
N2    N     N_R   0.499160 0.499180 0.857150 -0.124947
O1    O     O_R   0.500020 0.316790 0.614690 -0.614245
O2    O     O_3   0.602617 0.877517 0.271229 -0.629687
O3    O     O_3   0.458967 0.892044 0.871328 -0.630717
O4    O     O_R   0.500000 0.316760 0.385350 -0.624783
O5    O     O_R   0.316770 0.500020 0.614690 -0.628414
O6    O     O_R   0.316760 0.499980 0.385350 -0.619954
O7    O     O_R   0.500000 0.683240 0.614650 -0.646920
O8    O     O_R   0.499980 0.683210 0.385310 -0.582551
O9    O     O_R   0.683240 0.500020 0.614650 -0.628026
O10   O     O_R   0.683230 0.499980 0.385310 -0.629999
O11   O     O_3   0.890591 0.434321 0.998856 -0.639002
Zn1   Zn    Zn3+2 0.500010 0.500020 0.653130 0.926272
Zn2   Zn    Zn3+2 0.499990 0.499980 0.346870 0.953286

loop_
_geom_bond_atom_site_label_1
_geom_bond_atom_site_label_2
_ccdc_geom_bond_type
C31   H29   S    
C30   H27   S    
C14   H34   S    
C35   C36   A    
O9    Zn1   S    
C19   O11   S    
C28   H20   S    
C31   H30   S    
C12   C23   A    
C26   C27   S    
C33   H2    S    
C24   H8    S    
C36   C37   A    
C4    O5    A    
O5    Zn1   S    
C30   C31   S    
C27   H18   S    
C6    O3    S    
C13   H33   S    
O7    Zn1   S    
C16   O9    A    
C18   C19   A    
C25   H13   S    
C16   C34   S    
C17   H5    S    
C22   H7    S    
C29   O3    S    
C19   C20   A    
C12   C17   A    
C32   H1    S    
C9    C10   A    
C25   H10   S    
O8    Zn2   S    
C13   C14   S    
C14   H35   S    
C26   H17   S    
O4    Zn2   S    
C17   C18   A    
C15   O7    A    
C29   H24   S    
C26   O2    S    
C4    O6    A    
C24   C25   S    
C7    H12   S    
C37   H15   S    
C27   H19   S    
C15   O8    A    
C21   C34   A    
C12   C21   A    
C29   C30   S    
C10   N2    A    
C22   H6    S    
C25   H11   S    
C8    N1    A    
C33   C34   A    
O1    Zn1   S    
N2    Zn1   S    
C18   H36   S    
C10   H31   S    
C16   O10   A    
C1    O4    A    
C22   C24   S    
C9    N1    A    
C26   H16   S    
C7    H23   S    
C3    C15   S    
O10   Zn2   S    
C31   H28   S    
C29   H25   S    
C8    C14   S    
C1    O1    A    
C7    C35   S    
C3    C5    A    
C6    C7    S    
C28   H21   S    
C20   H14   S    
C9    H4    S    
C24   H9    S    
C32   C33   A    
C2    C3    A    
C2    O2    S    
C11   N2    A    
C23   C32   A    
C11   C13   S    
C2    C37   A    
C5    C6    S    
C13   H32   S    
C8    C11   A    
C5    C35   A    
C28   H22   S    
C6    H3    S    
C22   O11   S    
O6    Zn2   S    
C20   C21   A    
C27   C28   S    
N1    Zn2   S    
C4    C23   S    
C30   H26   S    
C1    C36   S    
