data_mof_unit_68208.cif
_audit_creation_date              2013-03-05T16:03:15-0500
_audit_creation_method            fapswitch 2.2
_symmetry_space_group_name_H-M    P1
_symmetry_Int_Tables_number       1
_space_group_crystal_system       triclinic
_cell_length_a                    7.080641
_cell_length_b                    14.567941
_cell_length_c                    16.652862
_cell_angle_alpha                 90.048923
_cell_angle_beta                  91.797472
_cell_angle_gamma                 90.383707
_cell_volume                      1716.86401611

loop_
_atom_site_label
_atom_site_type_symbol
_atom_site_description
_atom_site_fract_x
_atom_site_fract_y
_atom_site_fract_z
_atom_type_partial_charge
O1    O     O_R   0.361630 0.167340 0.164570 -0.569779
O2    O     O_R   0.638370 0.832660 0.835430 -0.569777
O3    O     O_R   0.690860 0.157560 0.338690 -0.558669
O4    O     O_R   0.309140 0.842440 0.661310 -0.558671
O5    O     O_R   0.861260 0.336420 0.339380 -0.565658
O6    O     O_R   0.138740 0.663580 0.660620 -0.565643
C1    C     C_R   0.522392 0.132679 0.366618 1.093873
C2    C     C_R   0.477608 0.867319 0.633381 1.093884
O7    O     O_R   0.691330 0.156310 0.165190 -0.557257
O8    O     O_R   0.308670 0.843690 0.834810 -0.557256
O9    O     O_R   0.861730 0.335160 0.164640 -0.552472
O10   O     O_R   0.138270 0.664840 0.835360 -0.552472
C3    C     C_R   0.517953 0.128222 0.140768 0.939425
C4    C     C_R   0.482048 0.871784 0.859226 0.939418
O11   O     O_R   0.361150 0.168600 0.339320 -0.567771
O12   O     O_R   0.638850 0.831400 0.660680 -0.567771
O13   O     O_3   0.527950 0.310560 0.252000 -0.231140
O14   O     O_3   0.472050 0.689440 0.748000 -0.231144
V1    V     V_3+5 0.802770 0.240990 0.251980 1.342987
V2    V     V_3+5 0.197230 0.759010 0.748020 1.342993
O15   O     O_R   0.191450 0.346190 0.165260 -0.554413
O16   O     O_R   0.808550 0.653810 0.834740 -0.554423
C5    C     C_R   0.019011 0.372846 0.140037 0.974096
C6    C     C_R   0.980989 0.627151 0.859959 0.974134
O17   O     O_R   0.190980 0.347440 0.338770 -0.575179
O18   O     O_R   0.809020 0.652560 0.661230 -0.575187
C7    C     C_R   0.023481 0.368872 0.368439 1.117830
C8    C     C_R   0.976517 0.631131 0.631559 1.117877
V3    V     V_3+5 0.302780 0.262760 0.251980 1.339605
V4    V     V_3+5 0.697220 0.737240 0.748020 1.339605
O19   O     O_3   0.027730 0.193200 0.251960 -0.248022
O20   O     O_3   0.972270 0.806800 0.748040 -0.248024
C9    C     C_3   0.825146 0.474770 0.474969 0.174018
C10   C     C_3   0.174846 0.525238 0.525026 0.174054
C11   C     C_3   0.909588 0.461781 0.561032 0.167208
C12   C     C_3   0.090402 0.538226 0.438963 0.167192
C13   C     C_3   0.988247 0.561070 0.560173 -0.507683
C14   C     C_3   0.011747 0.438936 0.439823 -0.507687
C15   C     C_3   0.904862 0.574266 0.474090 0.311916
C16   C     C_3   0.095130 0.425741 0.525907 0.311909
C17   C     C_R   0.932944 0.692421 0.028330 0.057165
C18   C     C_R   0.067060 0.307569 0.971663 0.057161
C19   C     C_R   0.872813 0.720688 0.103702 0.198846
C20   C     C_R   0.127205 0.279296 0.896295 0.198795
C21   C     C_R   0.827760 0.656481 0.160981 0.364366
C22   C     C_R   0.172269 0.343500 0.839015 0.364366
C23   C     C_R   0.848829 0.562926 0.146970 0.154491
C24   C     C_R   0.151155 0.437057 0.853013 0.154547
C25   C     C_R   0.934205 0.530290 0.075609 -0.013178
C26   C     C_R   0.065791 0.469699 0.924377 -0.013177
C27   C     C_R   0.956396 0.595722 0.010866 0.026170
C28   C     C_R   0.043609 0.404268 0.989124 0.026189
C29   C     C_R   0.995999 0.436379 0.067324 -0.106684
C30   C     C_R   0.004001 0.563611 0.932666 -0.106694
C31   C     C_3   0.325952 0.024960 0.475856 0.314114
C32   C     C_3   0.674046 0.975035 0.524141 0.314128
C33   C     C_3   0.400861 0.925105 0.477167 0.280249
C34   C     C_3   0.599136 0.074890 0.522831 0.280241
C35   C     C_3   0.488874 0.940552 0.562450 -0.527598
C36   C     C_3   0.511125 0.059444 0.437547 -0.527605
C37   C     C_3   0.413681 0.040814 0.561052 0.167374
C38   C     C_3   0.586317 0.959181 0.438945 0.167367
C39   C     C_R   0.564554 0.193953 0.972705 0.071793
C40   C     C_R   0.435445 0.806062 0.027288 0.071803
C41   C     C_R   0.621290 0.222765 0.896820 0.230410
C42   C     C_R   0.378721 0.777257 0.103178 0.230456
C43   C     C_R   0.667367 0.158112 0.839916 0.269183
C44   C     C_R   0.332662 0.841915 0.160080 0.269169
C45   C     C_R   0.652701 0.064326 0.855350 0.034181
C46   C     C_R   0.347302 0.935698 0.144634 0.034127
C47   C     C_R   0.565005 0.031157 0.925244 0.022561
C48   C     C_R   0.435000 0.968859 0.074742 0.022557
C49   C     C_R   0.541520 0.096710 0.989857 0.039693
C50   C     C_R   0.458486 0.903304 0.010132 0.039689
C51   C     C_R   0.505628 0.936029 0.932366 -0.124711
C52   C     C_R   0.494377 0.063984 0.067622 -0.124712
I1    I     I_    0.763172 0.427254 0.665326 -0.074962
I2    I     I_    0.236762 0.572769 0.334659 -0.074987
I3    I     I_    0.271456 0.084984 0.662895 -0.064370
I4    I     I_    0.728549 0.915006 0.337104 -0.064360
I5    I     I_    0.222326 0.796528 0.268843 -0.034432
I6    I     I_    0.777771 0.203523 0.731169 -0.034431
I7    I     I_    0.510926 0.310072 0.049186 -0.203976
I8    I     I_    0.489064 0.689935 0.950814 -0.203973
Br1   Br    Br    0.653757 0.352294 0.870922 -0.464979
Br2   Br    Br    0.346243 0.647733 0.129086 -0.464948
I9    I     I_    0.849788 0.987850 0.790797 -0.127990
I10   I     I_    0.150077 0.012156 0.209119 -0.127965
I11   I     I_    0.566024 0.412714 0.435558 -0.119705
I12   I     I_    0.433963 0.587307 0.564426 -0.119694
Br3   Br    Br    0.788941 0.691329 0.451962 -0.309852
Br4   Br    Br    0.211063 0.308685 0.548047 -0.309837
Br5   Br    Br    0.279086 0.301964 0.741405 -0.276949
Br6   Br    Br    0.721002 0.698006 0.258606 -0.276942
I13   I     I_    0.991395 0.808256 0.952722 -0.229021
I14   I     I_    0.008590 0.191743 0.047274 -0.229041
Br7   Br    Br    0.833657 0.848805 0.129016 -0.482044
Br8   Br    Br    0.166323 0.151170 0.870984 -0.482050
Br9   Br    Br    0.705204 0.489721 0.219389 -0.368130
Br10  Br    Br    0.294616 0.510269 0.780538 -0.368228
Br11  Br    Br    0.262040 0.811036 0.466630 -0.327688
Br12  Br    Br    0.737952 0.188959 0.533380 -0.327680
Br13  Br    Br    0.086241 0.069304 0.433667 -0.347264
Br14  Br    Br    0.913759 0.930691 0.566326 -0.347256

loop_
_geom_bond_atom_site_label_1
_geom_bond_atom_site_label_2
_geom_bond_distance
_ccdc_geom_bond_type
C42   C44   1.383295 A    
C39   C41   1.401792 A    
C10   C13   1.554992 S    
O13   V3    1.735494 S    
C48   C52   1.451480 A    
V1    O19   1.742639 S    
C33   C38   1.555689 S    
C23   C25   1.432352 A    
O9    V1    2.050751 S    
C9    C15   1.552197 S    
C18   I14   2.151964 S    
C44   I5    2.100453 S    
C38   I4    2.102032 S    
C14   C16   1.545794 S    
O3    C1    1.341600 A    
C2    C35   1.595837 S    
C33   C35   1.548564 S    
C7    C14   1.570697 S    
C34   C36   1.548565 S    
C31   Br13  1.931948 S    
C23   Br9   1.921070 S    
C36   C38   1.557922 S    
C45   C47   1.419876 A    
O7    C3    1.342221 A    
C40   I8    2.159444 S    
C9    C11   1.547763 S    
O5    C7    1.317003 A    
C20   Br8   1.936799 S    
O7    V1    2.036098 S    
O6    C8    1.317005 A    
O8    V2    2.036099 S    
C41   C43   1.383297 A    
C26   C28   1.451266 A    
O3    V1    2.062041 S    
O14   V4    1.735495 S    
V4    O20   2.189353 S    
O14   V2    2.200036 S    
C45   I9    2.111201 S    
O4    C2    1.341598 A    
C34   C37   1.555681 S    
C24   C26   1.432388 A    
C46   I10   2.111122 S    
C2    O12   1.326576 A    
C31   C36   1.556486 S    
C17   C19   1.400445 A    
C18   C20   1.400441 A    
C21   Br6   1.913610 S    
C15   Br3   1.928360 S    
C20   C22   1.379551 A    
O11   V3    2.034987 S    
C21   C23   1.392321 A    
O17   V3    2.078259 S    
C24   Br10  1.921096 S    
C22   C24   1.392353 A    
C35   C37   1.557913 S    
C50   C51   1.428919 A    
C32   Br14  1.931938 S    
C48   C50   1.452219 A    
O8    C4    1.342227 A    
C47   C49   1.452241 A    
C1    O11   1.326577 A    
C39   C49   1.454482 A    
C25   C27   1.451250 A    
O15   V3    2.031883 S    
C11   I1    2.109902 S    
C39   I7    2.159431 S    
C43   C45   1.394248 A    
C40   C42   1.401803 A    
C10   I12   2.124981 S    
C9    I11   2.124986 S    
C3    C52   1.539669 S    
O10   V2    2.050750 S    
O1    V3    2.065707 S    
C26   C30   1.446958 A    
C16   Br4   1.928356 S    
C19   C21   1.379547 A    
C34   Br12  1.930063 S    
O18   V4    2.078261 S    
C31   C33   1.551635 S    
C49   C52   1.428916 A    
O16   C6    1.338826 A    
O1    C3    1.320075 A    
O12   V4    2.034986 S    
C12   C14   1.546721 S    
C1    C36   1.595841 S    
O6    V2    2.042942 S    
C28   C29   1.434210 A    
V2    O20   1.742639 S    
O16   V4    2.031882 S    
C11   C13   1.546717 S    
C12   C15   1.549411 S    
C19   Br7   1.936737 S    
C42   Br2   1.949661 S    
C41   Br1   1.949694 S    
O5    V1    2.042940 S    
O17   C7    1.337771 A    
C33   Br11  1.930074 S    
O10   C6    1.315411 A    
O18   C8    1.337763 A    
C9    C14   1.555002 S    
C32   C35   1.556479 S    
O2    V4    2.065704 S    
C27   C30   1.434202 A    
C4    C51   1.539660 S    
O15   C5    1.338831 A    
C11   C16   1.549418 S    
V3    O19   2.189354 S    
C12   I2    2.109892 S    
C47   C51   1.451523 A    
C17   I13   2.152019 S    
C22   Br5   1.913629 S    
C8    C13   1.570688 S    
C37   I3    2.102018 S    
C25   C29   1.446931 A    
C31   C37   1.547368 S    
C5    C29   1.530020 S    
O9    C5    1.315414 A    
O13   V1    2.200035 S    
C10   C12   1.547763 S    
C32   C34   1.551629 S    
C32   C38   1.547367 S    
O2    C4    1.320074 A    
O4    V2    2.062045 S    
C13   C15   1.545790 S    
C43   I6    2.100516 S    
C44   C46   1.394211 A    
C40   C50   1.454491 A    
C10   C16   1.552199 S    
C46   C48   1.419831 A    
C6    C30   1.529993 S    
C17   C27   1.449848 A    
C18   C28   1.449838 A    
