data_mof_unit_42045.cif
_audit_creation_date              2012-12-10T16:38:01-0500
_audit_creation_method            fapswitch 2.2
_symmetry_space_group_name_H-M    P1
_symmetry_Int_Tables_number       1
_space_group_crystal_system       triclinic
_cell_length_a                    28.180988
_cell_length_b                    18.54298
_cell_length_c                    16.979375
_cell_angle_alpha                 89.765645
_cell_angle_beta                  62.012738
_cell_angle_gamma                 89.828456
_cell_volume                      7835.01336184

loop_
_atom_site_label
_atom_site_type_symbol
_atom_type_description
_atom_site_fract_x
_atom_site_fract_y
_atom_site_fract_z
_atom_type_partial_charge
C1    C     C_R   0.704015 0.273750 0.675151 0.905528
C2    C     C_R   0.297754 0.729650 0.323906 0.886112
C3    C     C_R   0.295621 0.274040 0.325011 0.901156
C4    C     C_R   0.699515 0.736899 0.677215 0.891829
C5    C     C_R   0.204062 0.773822 0.675094 0.901501
C6    C     C_R   0.797793 0.229732 0.323904 0.868696
C7    C     C_R   0.791240 0.781238 0.329665 0.915684
C8    C     C_R   0.199336 0.237233 0.677263 0.889474
C9    C     C_R   0.914894 0.503809 0.456190 0.071673
C10   C     C_R   0.085170 0.503649 0.542959 0.069687
C11   C     C_R   0.415428 0.003924 0.454097 0.071192
C12   C     C_R   0.585824 0.003775 0.540538 0.067125
C13   C     C_R   0.080124 0.374600 0.550910 -0.263041
C14   C     C_R   0.921892 0.633510 0.440640 -0.239967
C15   C     C_R   0.920141 0.374985 0.448399 -0.262844
C16   C     C_R   0.078322 0.633439 0.557027 -0.244658
C17   C     C_R   0.580558 0.874789 0.549057 -0.263569
C18   C     C_R   0.422271 0.133632 0.438666 -0.236616
C19   C     C_R   0.420458 0.875110 0.446911 -0.264819
C20   C     C_R   0.578830 0.133528 0.554752 -0.244411
C21   C     C_R   0.720727 0.271915 0.955080 0.023938
C22   C     C_R   0.280194 0.734812 0.046499 0.027912
C23   C     C_R   0.272441 0.287987 0.049664 0.026701
C24   C     C_R   0.711525 0.752834 0.959938 0.027078
C25   C     C_R   0.221001 0.772388 0.954748 0.023892
C26   C     C_R   0.779923 0.234290 0.046830 0.027862
C27   C     C_R   0.770480 0.783694 0.053513 0.025056
C28   C     C_R   0.211241 0.257788 0.959309 0.027826
C29   C     C_R   0.776197 0.255421 0.906378 0.045887
C30   C     C_R   0.224617 0.750515 0.095401 0.044834
C31   C     C_R   0.219098 0.262922 0.097724 0.046287
C32   C     C_R   0.762166 0.786858 0.915692 0.044836
C33   C     C_R   0.276467 0.755860 0.906034 0.045789
C34   C     C_R   0.724341 0.249978 0.095759 0.045341
C35   C     C_R   0.717307 0.757437 0.100025 0.047491
C36   C     C_R   0.261187 0.293549 0.914338 0.045136
C37   C     C_R   0.805149 0.233706 0.952410 0.045836
C38   C     C_R   0.195035 0.771301 0.049492 0.046698
C39   C     C_R   0.190917 0.240890 0.050761 0.049160
C40   C     C_R   0.794015 0.795335 0.960319 0.045977
C41   C     C_R   0.305427 0.734171 0.952078 0.046026
C42   C     C_R   0.694746 0.270792 0.049840 0.044639
C43   C     C_R   0.690076 0.735951 0.051640 0.050306
C44   C     C_R   0.294196 0.301891 0.957025 0.046867
C45   C     C_R   0.637550 0.313907 0.955106 0.054261
C46   C     C_R   0.363341 0.691205 0.045793 0.056155
C47   C     C_R   0.357253 0.324080 0.047152 0.055599
C48   C     C_R   0.634880 0.694053 0.953668 0.051411
C49   C     C_R   0.137765 0.814207 0.954855 0.059831
C50   C     C_R   0.863137 0.190852 0.046015 0.054627
C51   C     C_R   0.852875 0.826234 0.055505 0.044601
C52   C     C_R   0.135294 0.195096 0.953972 0.053025
C53   C     C_R   0.610703 0.337130 0.906009 -0.192030
C54   C     C_R   0.392326 0.669722 0.092555 -0.212947
C55   C     C_R   0.386440 0.340789 0.094832 -0.187983
C56   C     C_R   0.606958 0.671402 0.905611 -0.207802
C57   C     C_R   0.110854 0.837322 0.905831 -0.195590
C58   C     C_R   0.892200 0.169477 0.092673 -0.213818
C59   C     C_R   0.876838 0.856204 0.106792 -0.176930
C60   C     C_R   0.107181 0.171621 0.905964 -0.207750
C61   C     C_R   0.628714 0.312509 0.819336 -0.105896
C62   C     C_R   0.378925 0.704391 0.174608 -0.041692
C63   C     C_R   0.369428 0.313119 0.180025 -0.111511
C64   C     C_R   0.617423 0.709726 0.825486 -0.039573
C65   C     C_R   0.128846 0.812709 0.819169 -0.106923
C66   C     C_R   0.878899 0.204151 0.174620 -0.037862
C67   C     C_R   0.849185 0.853389 0.200062 -0.120359
C68   C     C_R   0.117184 0.209985 0.825907 -0.038963
C69   C     C_R   0.682778 0.291471 0.770309 -0.169829
C70   C     C_R   0.322145 0.718624 0.227082 -0.166727
C71   C     C_R   0.315411 0.292792 0.230253 -0.163466
C72   C     C_R   0.670518 0.739064 0.777086 -0.192988
C73   C     C_R   0.182901 0.791657 0.770151 -0.167965
C74   C     C_R   0.822101 0.218415 0.227176 -0.172120
C75   C     C_R   0.805634 0.807854 0.239937 -0.177992
C76   C     C_R   0.169903 0.240175 0.777312 -0.194402
C77   C     C_R   0.715666 0.287070 0.814262 0.046660
C78   C     C_R   0.287522 0.720380 0.185237 0.034560
C79   C     C_R   0.281129 0.290428 0.188282 0.047545
C80   C     C_R   0.699733 0.759650 0.824535 0.049850
C81   C     C_R   0.215852 0.787356 0.814004 0.046181
C82   C     C_R   0.787372 0.219958 0.185485 0.033121
C83   C     C_R   0.775345 0.791914 0.194407 0.052047
C84   C     C_R   0.198449 0.262840 0.824851 0.049898
C85   C     C_R   0.691547 0.129720 0.534493 0.906439
C86   C     C_R   0.308058 0.871603 0.467700 0.877560
C87   C     C_R   0.308632 0.130022 0.464532 0.928776
C88   C     C_R   0.692030 0.871500 0.531816 0.857890
C89   C     C_R   0.191457 0.629750 0.534871 0.915240
C90   C     C_R   0.808039 0.371591 0.467806 0.881933
C91   C     C_R   0.808579 0.629962 0.464817 0.933643
C92   C     C_R   0.191940 0.371447 0.532195 0.865381
C93   C     C_R   0.691107 0.289949 0.908360 0.081169
C94   C     C_R   0.310745 0.717555 0.092321 0.084188
C95   C     C_R   0.303831 0.299920 0.094834 0.075788
C96   C     C_R   0.681864 0.735874 0.912590 0.081313
C97   C     C_R   0.191344 0.790337 0.908072 0.080461
C98   C     C_R   0.810519 0.217077 0.092599 0.084932
C99   C     C_R   0.799667 0.800230 0.100964 0.077894
C100  C     C_R   0.181329 0.239076 0.912773 0.081509
C101  C     C_R   0.612533 0.313610 0.048844 -0.175650
C102  C     C_R   0.385497 0.687046 0.953749 -0.190760
C103  C     C_R   0.379786 0.330319 0.953464 -0.168164
C104  C     C_R   0.615413 0.679148 0.044249 -0.188428
C105  C     C_R   0.112755 0.813856 0.048591 -0.180090
C106  C     C_R   0.885283 0.186804 0.953985 -0.190864
C107  C     C_R   0.878184 0.825653 0.961186 -0.175833
C108  C     C_R   0.117252 0.179120 0.044320 -0.190528
C109  C     C_R   0.640219 0.292186 0.095094 -0.214461
C110  C     C_R   0.358572 0.708766 0.907075 -0.208771
C111  C     C_R   0.348757 0.321299 0.909798 -0.221968
C112  C     C_R   0.641514 0.698536 0.092277 -0.212255
C113  C     C_R   0.140493 0.792588 0.094781 -0.213055
C114  C     C_R   0.858315 0.208413 0.907365 -0.209467
C115  C     C_R   0.848990 0.813094 0.914877 -0.217774
C116  C     C_R   0.143248 0.201420 0.091974 -0.213236
C117  C     C_R   0.772002 0.280445 0.768255 -0.174363
C118  C     C_R   0.230593 0.723354 0.231667 -0.165584
C119  C     C_R   0.224992 0.279232 0.235461 -0.173671
C120  C     C_R   0.745249 0.805868 0.788875 -0.162165
C121  C     C_R   0.272192 0.780694 0.767934 -0.173993
C122  C     C_R   0.730429 0.222892 0.231995 -0.171622
C123  C     C_R   0.720438 0.773951 0.239761 -0.172293
C124  C     C_R   0.242645 0.311141 0.789015 -0.161831
C125  C     C_R   0.801406 0.264421 0.812911 -0.217931
C126  C     C_R   0.200217 0.740045 0.188457 -0.220039
C127  C     C_R   0.195257 0.263009 0.191434 -0.221710
C128  C     C_R   0.777422 0.815298 0.830485 -0.226020
C129  C     C_R   0.301638 0.764737 0.812553 -0.217884
C130  C     C_R   0.699986 0.239525 0.188830 -0.219250
C131  C     C_R   0.692441 0.755818 0.193873 -0.222791
C132  C     C_R   0.275000 0.322545 0.829858 -0.223627
C133  C     C_R   0.071998 0.104413 0.935695 0.882401
C134  C     C_R   0.924883 0.901106 0.066655 0.911060
C135  C     C_R   0.928362 0.104250 0.063447 0.884027
C136  C     C_R   0.070391 0.895447 0.938050 0.919500
C137  C     C_R   0.571781 0.604453 0.935720 0.883684
C138  C     C_R   0.428504 0.396547 0.062842 0.914241
C139  C     C_R   0.428449 0.604369 0.063360 0.887019
C140  C     C_R   0.570329 0.395382 0.938117 0.914384
C141  C     C_R   0.539615 0.134960 0.526286 0.103862
C142  C     C_R   0.461125 0.873997 0.470513 0.115651
C143  C     C_R   0.462021 0.135031 0.465925 0.107225
C144  C     C_R   0.540657 0.873835 0.523661 0.114030
C145  C     C_R   0.038821 0.634833 0.529188 0.104395
C146  C     C_R   0.960540 0.373869 0.472665 0.115478
C147  C     C_R   0.961280 0.634898 0.468715 0.110488
C148  C     C_R   0.040002 0.373676 0.526015 0.114695
C149  C     C_R   0.519468 0.200421 0.512134 -0.224163
C150  C     C_R   0.481670 0.808403 0.482549 -0.210532
C151  C     C_R   0.482165 0.200456 0.479392 -0.219826
C152  C     C_R   0.520437 0.808318 0.511200 -0.212647
C153  C     C_R   0.018678 0.700287 0.515054 -0.222276
C154  C     C_R   0.981170 0.308278 0.484480 -0.210622
C155  C     C_R   0.981409 0.700318 0.482246 -0.213357
C156  C     C_R   0.019898 0.308169 0.513219 -0.211824
C157  C     C_R   0.480773 0.069831 0.482794 0.030848
C158  C     C_R   0.521429 0.939255 0.508987 0.030656
C159  C     C_R   0.521118 0.069794 0.509552 0.031768
C160  C     C_R   0.480534 0.939316 0.484362 0.030575
C161  C     C_R   0.979870 0.569695 0.485884 0.030748
C162  C     C_R   0.020580 0.439111 0.511833 0.030826
C163  C     C_R   0.020192 0.569654 0.512698 0.031778
C164  C     C_R   0.979722 0.439176 0.487105 0.030684
C165  C     C_R   0.958816 0.504334 0.474772 -0.053733
C166  C     C_R   0.041297 0.504241 0.524213 -0.053647
C167  C     C_R   0.459617 0.004466 0.471990 -0.054803
C168  C     C_R   0.542161 0.004383 0.521265 -0.054357
C169  C     C_R   0.891974 0.437819 0.450792 0.055239
C170  C     C_R   0.106875 0.568804 0.552995 0.049820
C171  C     C_R   0.108038 0.437557 0.548881 0.055329
C172  C     C_R   0.893260 0.568941 0.445591 0.052904
C173  C     C_R   0.392293 0.937923 0.449376 0.055353
C174  C     C_R   0.607355 0.068888 0.551003 0.049430
C175  C     C_R   0.608509 0.937692 0.547001 0.054329
C176  C     C_R   0.393624 0.069043 0.443890 0.049817
C177  C     C_R   0.841774 0.436939 0.449084 -0.117943
C178  C     C_R   0.157317 0.566462 0.554352 -0.113423
C179  C     C_R   0.158144 0.436683 0.550847 -0.112310
C180  C     C_R   0.842735 0.566717 0.444793 -0.119922
C181  C     C_R   0.341861 0.936986 0.448493 -0.116834
C182  C     C_R   0.657577 0.066472 0.553152 -0.113270
C183  C     C_R   0.658412 0.936780 0.549668 -0.108665
C184  C     C_R   0.342857 0.066797 0.443983 -0.117628
C185  C     C_R   0.819329 0.501474 0.442664 -0.296980
C186  C     C_R   0.180570 0.501103 0.557096 -0.303441
C187  C     C_R   0.319330 0.001523 0.442278 -0.298360
C188  C     C_R   0.680838 0.001153 0.555894 -0.308778
H1    H     H_    0.035017 0.257049 0.522908 0.128978
H2    H     H_    0.967140 0.751362 0.470105 0.131489
H3    H     H_    0.966412 0.257290 0.473936 0.129832
H4    H     H_    0.032967 0.751307 0.526651 0.136809
H5    H     H_    0.535417 0.757213 0.521280 0.128816
H6    H     H_    0.467796 0.251497 0.467446 0.137162
H7    H     H_    0.466734 0.757404 0.472447 0.129625
H8    H     H_    0.533677 0.251441 0.523900 0.137050
H9    H     H_    0.780681 0.501030 0.443303 0.195725
H10   H     H_    0.219123 0.500511 0.556803 0.194269
H11   H     H_    0.280517 0.001061 0.443525 0.195747
H12   H     H_    0.719330 0.000548 0.555842 0.196781
H13   H     H_    0.087692 0.326030 0.574199 0.175722
H14   H     H_    0.914524 0.683519 0.415498 0.174455
H15   H     H_    0.912616 0.326908 0.424856 0.176073
H16   H     H_    0.085718 0.683524 0.581388 0.195953
H17   H     H_    0.587753 0.826384 0.573175 0.176465
H18   H     H_    0.414442 0.183701 0.414354 0.194624
H19   H     H_    0.412612 0.827014 0.424037 0.175252
H20   H     H_    0.585888 0.183576 0.579617 0.196689
H21   H     H_    0.570480 0.327190 0.087755 0.176358
H22   H     H_    0.425058 0.670299 0.917005 0.160726
H23   H     H_    0.422238 0.339732 0.911885 0.176908
H24   H     H_    0.577553 0.656934 0.081731 0.169144
H25   H     H_    0.070639 0.827147 0.087613 0.154566
H26   H     H_    0.924891 0.170337 0.917210 0.161310
H27   H     H_    0.920753 0.834859 0.921290 0.179031
H28   H     H_    0.080774 0.153166 0.082181 0.170427
H29   H     H_    0.618003 0.294582 0.166805 0.135674
H30   H     H_    0.380159 0.702680 0.835636 0.141208
H31   H     H_    0.368909 0.326650 0.837989 0.138750
H32   H     H_    0.622852 0.681951 0.161291 0.139209
H33   H     H_    0.118235 0.794905 0.166501 0.135982
H34   H     H_    0.879913 0.202389 0.835925 0.141180
H35   H     H_    0.870545 0.815436 0.842843 0.139361
H36   H     H_    0.125853 0.184803 0.160975 0.140183
H37   H     H_    0.794848 0.290081 0.697449 0.179710
H38   H     H_    0.207733 0.710089 0.301457 0.182753
H39   H     H_    0.202242 0.284320 0.306848 0.183463
H40   H     H_    0.755796 0.838952 0.730704 0.173987
H41   H     H_    0.295005 0.790220 0.697099 0.179455
H42   H     H_    0.707631 0.209683 0.301818 0.180490
H43   H     H_    0.696992 0.777850 0.311323 0.178069
H44   H     H_    0.252046 0.343748 0.730815 0.171921
H45   H     H_    0.844377 0.261126 0.772167 0.142961
H46   H     H_    0.157244 0.742096 0.229731 0.141301
H47   H     H_    0.152757 0.253690 0.232479 0.144074
H48   H     H_    0.812326 0.849603 0.797605 0.138681
H49   H     H_    0.344604 0.761369 0.771778 0.142888
H50   H     H_    0.657007 0.241596 0.230121 0.138410
H51   H     H_    0.650248 0.744361 0.234154 0.142258
H52   H     H_    0.309029 0.358232 0.796672 0.138498
O1    O     O_R   0.746490 0.236330 0.638080 -0.637540
O2    O     O_R   0.253510 0.763670 0.361920 -0.636849
O3    O     O_R   0.253510 0.236330 0.361920 -0.642815
O4    O     O_R   0.746490 0.763670 0.638080 -0.634334
O5    O     O_R   0.246490 0.736330 0.638080 -0.639217
O6    O     O_R   0.753510 0.263670 0.361920 -0.630459
O7    O     O_R   0.753510 0.736330 0.361920 -0.642770
O8    O     O_R   0.246490 0.263670 0.638080 -0.632416
O9    O     O_R   0.674170 0.186160 0.516270 -0.645712
O10   O     O_R   0.325830 0.813840 0.483730 -0.667129
O11   O     O_R   0.325830 0.186160 0.483730 -0.633894
O12   O     O_R   0.674170 0.813840 0.516270 -0.673267
O13   O     O_R   0.174170 0.686160 0.516270 -0.647067
O14   O     O_R   0.825830 0.313840 0.483730 -0.665353
O15   O     O_R   0.825830 0.686160 0.483730 -0.636907
O16   O     O_R   0.174170 0.313840 0.516270 -0.667141
O17   O     O_R   0.739960 0.127620 0.525000 -0.639164
O18   O     O_R   0.260040 0.872380 0.475000 -0.622602
O19   O     O_R   0.260040 0.127620 0.475000 -0.622699
O20   O     O_R   0.739960 0.872380 0.525000 -0.629954
O21   O     O_R   0.239960 0.627620 0.525000 -0.625174
O22   O     O_R   0.760040 0.372380 0.475000 -0.621115
O23   O     O_R   0.760040 0.627620 0.475000 -0.620072
O24   O     O_R   0.239960 0.372380 0.525000 -0.633433
O25   O     O_R   0.680700 0.294870 0.629350 -0.624173
O26   O     O_R   0.319300 0.705130 0.370650 -0.619043
O27   O     O_R   0.319300 0.294870 0.370650 -0.626308
O28   O     O_R   0.680700 0.705130 0.629350 -0.610881
O29   O     O_R   0.180700 0.794870 0.629350 -0.625842
O30   O     O_R   0.819300 0.205130 0.370650 -0.637280
O31   O     O_R   0.819300 0.794870 0.370650 -0.634012
O32   O     O_R   0.180700 0.205130 0.629350 -0.610665
O33   O     O_R   0.062020 0.072840 0.007170 -0.634841
O34   O     O_R   0.937980 0.927160 0.992830 -0.623997
O35   O     O_R   0.937980 0.072840 0.992830 -0.633250
O36   O     O_R   0.062020 0.927160 0.007170 -0.618103
O37   O     O_R   0.562020 0.572840 0.007170 -0.632648
O38   O     O_R   0.437980 0.427160 0.992830 -0.622013
O39   O     O_R   0.437980 0.572840 0.992830 -0.629587
O40   O     O_R   0.562020 0.427160 0.007170 -0.615841
O41   O     O_R   0.947860 0.073950 0.109290 -0.596255
O42   O     O_R   0.052140 0.926050 0.890710 -0.612981
O43   O     O_R   0.052140 0.073950 0.890710 -0.599948
O44   O     O_R   0.947860 0.926050 0.109290 -0.623437
O45   O     O_R   0.447860 0.573950 0.109290 -0.602798
O46   O     O_R   0.552140 0.426050 0.890710 -0.616467
O47   O     O_R   0.552140 0.573950 0.890710 -0.601020
O48   O     O_R   0.447860 0.426050 0.109290 -0.618142
Zn1   Zn    Zn3+2 0.792340 0.208750 0.507670 0.896030
Zn2   Zn    Zn3+2 0.207660 0.791250 0.492330 0.933931
Zn3   Zn    Zn3+2 0.207660 0.208750 0.492330 0.925801
Zn4   Zn    Zn3+2 0.792340 0.791250 0.507670 0.925258
Zn5   Zn    Zn3+2 0.292340 0.708750 0.507670 0.920751
Zn6   Zn    Zn3+2 0.707660 0.291250 0.492330 0.933790
Zn7   Zn    Zn3+2 0.707660 0.708750 0.492330 0.923532
Zn8   Zn    Zn3+2 0.292340 0.291250 0.507670 0.930489
Zn9   Zn    Zn3+2 0.505960 0.500000 0.080520 0.924641
Zn10  Zn    Zn3+2 0.494040 0.500000 0.919480 0.926405
Zn11  Zn    Zn3+2 0.005960 0.000000 0.080520 0.921535
Zn12  Zn    Zn3+2 0.994040 0.000000 0.919480 0.926813
C189  C     C_R   0.588464 0.300195 0.786942 0.158084
C190  C     C_R   0.579865 0.351137 0.733205 -0.002682
C191  C     C_R   0.540900 0.338774 0.705843 -0.196202
C192  C     C_R   0.510144 0.275811 0.731999 -0.157727
C193  C     C_R   0.518379 0.225019 0.785385 -0.140529
C194  C     C_R   0.557290 0.237152 0.812923 -0.192599
H53   H     H_    0.603359 0.400237 0.712744 0.127903
H54   H     H_    0.534484 0.378071 0.664490 0.112408
H55   H     H_    0.479946 0.266347 0.710888 0.138114
H56   H     H_    0.494529 0.176277 0.805572 0.143725
H57   H     H_    0.563099 0.197531 0.854672 0.133283
C195  C     C_R   0.422299 0.718101 0.205173 0.088144
C196  C     C_R   0.412138 0.751030 0.285716 -0.088529
C197  C     C_R   0.426731 0.712262 0.343014 -0.084786
C198  C     C_R   0.465127 0.658396 0.308896 -0.205970
C199  C     C_R   0.490215 0.646812 0.217863 -0.094705
C200  C     C_R   0.473356 0.686013 0.163882 -0.092135
H58   H     H_    0.383796 0.795058 0.311545 0.122784
H59   H     H_    0.405532 0.718374 0.414439 0.129535
H60   H     H_    0.475629 0.626718 0.352169 0.116048
H61   H     H_    0.519757 0.604260 0.191724 0.122899
H62   H     H_    0.494604 0.680387 0.092311 0.101395
C201  C     C_R   0.410554 0.296957 0.209732 0.151124
C202  C     C_R   0.421348 0.345406 0.262983 -0.004340
C203  C     C_R   0.460750 0.329188 0.288390 -0.195927
C204  C     C_R   0.489786 0.264826 0.260717 -0.160942
C205  C     C_R   0.479440 0.216522 0.207685 -0.140826
C206  C     C_R   0.440060 0.232502 0.182136 -0.195186
H63   H     H_    0.399101 0.395480 0.284817 0.128540
H64   H     H_    0.468779 0.366525 0.329525 0.112474
H65   H     H_    0.520235 0.252293 0.280489 0.134807
H66   H     H_    0.501990 0.166704 0.186302 0.143590
H67   H     H_    0.432547 0.194723 0.140762 0.134495
C207  C     C_R   0.575496 0.715848 0.791094 0.095272
C208  C     C_R   0.585529 0.747187 0.709433 -0.088982
C209  C     C_R   0.569980 0.708407 0.653925 -0.088269
C210  C     C_R   0.531468 0.654785 0.690096 -0.202668
C211  C     C_R   0.507231 0.643755 0.781416 -0.101795
C212  C     C_R   0.525201 0.682984 0.833488 -0.095301
H68   H     H_    0.613047 0.791859 0.682742 0.119214
H69   H     H_    0.589827 0.715544 0.582576 0.119405
H70   H     H_    0.519696 0.623584 0.648373 0.117670
H71   H     H_    0.476192 0.603218 0.810329 0.128383
H72   H     H_    0.504876 0.678545 0.905216 0.101169
C213  C     C_R   0.088621 0.800686 0.786635 0.158640
C214  C     C_R   0.080150 0.851850 0.732988 -0.001795
C215  C     C_R   0.041089 0.839906 0.705736 -0.193222
C216  C     C_R   0.010125 0.777124 0.731870 -0.157598
C217  C     C_R   0.018302 0.726051 0.785021 -0.141596
C218  C     C_R   0.057307 0.737769 0.812459 -0.192005
H73   H     H_    0.103775 0.900841 0.712605 0.127248
H74   H     H_    0.034743 0.879403 0.664517 0.111649
H75   H     H_    0.979835 0.767993 0.710878 0.136496
H76   H     H_    0.994320 0.677423 0.805127 0.144843
H77   H     H_    0.063054 0.697946 0.854055 0.134443
C219  C     C_R   0.922454 0.217940 0.204831 0.087410
C220  C     C_R   0.912314 0.250747 0.285437 -0.080432
C221  C     C_R   0.927168 0.212092 0.342440 -0.100886
C222  C     C_R   0.965580 0.158241 0.308040 -0.215195
C223  C     C_R   0.990600 0.146805 0.216949 -0.081129
C224  C     C_R   0.973694 0.186114 0.163174 -0.089893
H78   H     H_    0.883948 0.294732 0.311460 0.126400
H79   H     H_    0.906084 0.218192 0.413864 0.129093
H80   H     H_    0.976032 0.126306 0.351182 0.114901
H81   H     H_    0.019779 0.103893 0.190783 0.121309
H82   H     H_    0.995005 0.180393 0.091601 0.102464
C225  C     C_R   0.853209 0.912786 0.256080 0.184303
C226  C     C_R   0.818262 0.972040 0.276573 -0.198564
C227  C     C_R   0.819991 0.027689 0.330315 -0.094259
C228  C     C_R   0.856874 0.025054 0.363595 -0.059590
C229  C     C_R   0.891863 0.966342 0.343645 -0.205076
C230  C     C_R   0.889901 0.910064 0.290597 -0.012817
H83   H     H_    0.789451 0.974811 0.251243 0.135274
H84   H     H_    0.792460 0.072576 0.346365 0.147015
H85   H     H_    0.858179 0.068317 0.405144 0.139545
H86   H     H_    0.920351 0.964299 0.369595 0.103113
H87   H     H_    0.916955 0.864599 0.275941 0.108676
C231  C     C_R   0.075247 0.215617 0.791524 0.095855
C232  C     C_R   0.085306 0.246703 0.709736 -0.088664
C233  C     C_R   0.069749 0.207787 0.654351 -0.089078
C234  C     C_R   0.031248 0.154173 0.690698 -0.202985
C235  C     C_R   0.007015 0.143350 0.782063 -0.101258
C236  C     C_R   0.024948 0.182819 0.834037 -0.095301
H88   H     H_    0.112763 0.291425 0.682960 0.117706
H89   H     H_    0.089539 0.214931 0.582996 0.119146
H90   H     H_    0.019465 0.122841 0.649086 0.117371
H91   H     H_    0.976003 0.102790 0.811093 0.128854
H92   H     H_    0.004674 0.178467 0.905780 0.102111

loop_
_geom_bond_atom_site_label_1
_geom_bond_atom_site_label_2
_ccdc_geom_bond_type
C128  H48   S    
C154  H3    S    
C220  C221  A    
C6    O30   A    
C9    C169  A    
C34   C42   A    
C210  C211  A    
C181  C187  A    
C196  H58   S    
C61   C69   A    
C189  C190  A    
O9    Zn6   S    
C27   C99   A    
C85   C182  S    
O39   Zn10  S    
C170  C178  A    
C67   C225  S    
C42   C109  A    
C24   C96   A    
C149  H8    S    
C223  H81   S    
O1    Zn1   S    
C137  O47   A    
C193  H56   S    
C61   C189  S    
C62   C70   A    
C227  H84   S    
C64   C207  S    
C207  C212  A    
C202  C203  A    
C204  C205  A    
C147  C155  A    
C88   O12   A    
C123  C131  A    
C143  C151  A    
C90   C177  S    
C11   C167  A    
C82   C98   A    
C76   C84   A    
C73   C81   A    
C226  C227  A    
C161  C163  A    
C162  C164  A    
O3    Zn3   S    
C201  C202  A    
C84   C100  A    
C5    O5    A    
C133  O33   A    
C87   O19   A    
C37   C114  A    
C27   C35   A    
C10   C171  A    
C133  O43   A    
C21   C29   A    
O6    Zn6   S    
C81   C121  A    
C199  C200  A    
C23   C31   A    
C24   C32   A    
C206  H67   S    
C191  C192  A    
C146  C154  A    
C113  H33   S    
C124  H44   S    
C63   C71   A    
C234  C235  A    
C36   C44   A    
C89   O21   A    
O36   Zn11  S    
C91   O23   A    
C12   C174  A    
C139  O39   A    
C176  C184  A    
C48   C96   A    
C129  H49   S    
C6    O6    A    
C209  C210  A    
C15   H15   S    
O44   Zn11  S    
C127  H47   S    
C148  C162  A    
C183  C188  A    
C108  C116  A    
C232  H88   S    
O38   Zn10  S    
C91   O15   A    
C78   C94   A    
C7    O31   A    
C216  C217  A    
C23   C95   A    
C135  O35   A    
C49   C97   A    
C208  C209  A    
C22   C41   A    
C107  H27   S    
C51   C107  A    
C229  H86   S    
C222  C223  A    
C24   C43   A    
C185  H9    S    
C231  C232  A    
C16   H16   S    
C82   C122  A    
C161  C165  A    
C17   C175  A    
C233  C234  A    
C18   C176  A    
C224  H82   S    
O20   Zn4   S    
C85   O9    A    
C217  C218  A    
O47   Zn10  S    
C29   C125  A    
C140  O40   A    
C69   C77   A    
C31   C127  A    
C45   C93   A    
C174  C182  A    
O30   Zn1   S    
C71   C79   A    
C228  C229  A    
O17   Zn1   S    
C214  H73   S    
C179  C186  A    
C118  H38   S    
C87   O11   A    
C137  O37   A    
C198  H60   S    
C209  H69   S    
C21   C93   A    
C17   C144  A    
O11   Zn8   S    
C151  H6    S    
C105  C113  A    
C18   C143  A    
C78   C118  A    
C36   C132  A    
C188  H12   S    
C62   C195  S    
C211  H71   S    
C66   C74   A    
C7    O7    A    
C8    C76   S    
C49   C57   A    
C195  C196  A    
C124  C132  A    
C213  C218  A    
C236  H92   S    
C52   C60   A    
C59   C67   A    
C215  H74   S    
C53   C61   A    
C200  H62   S    
C141  C159  A    
C20   C174  A    
C55   C63   A    
C86   C181  S    
C56   C64   A    
C222  H80   S    
C35   C43   A    
C210  H70   S    
C156  H1    S    
C212  H72   S    
C90   O14   A    
C45   C53   A    
O10   Zn5   S    
C138  O38   A    
C22   C94   A    
C171  C179  A    
C111  H31   S    
C169  C177  A    
C223  C224  A    
C106  H26   S    
C50   C98   A    
C121  H41   S    
C230  H87   S    
C103  H23   S    
C104  C112  A    
C207  C208  A    
C3    O3    A    
C145  C163  A    
C101  H21   S    
C202  H63   S    
C146  C164  A    
C14   C147  A    
C52   C100  A    
C134  O44   A    
C21   C42   A    
C16   C145  A    
C178  C186  A    
C25   C38   A    
C54   C139  S    
C46   C94   A    
C27   C40   A    
C10   C166  A    
C91   C180  S    
C112  H32   S    
C182  C188  A    
C89   C178  S    
C2    O2    A    
C28   C36   A    
C225  C230  A    
C25   C97   A    
C193  C194  A    
C67   C75   A    
C104  H24   S    
C136  O42   A    
C197  H59   S    
C121  C129  A    
C22   C30   A    
C20   C141  A    
C15   C146  A    
C191  H54   S    
C58   C135  S    
C68   C76   A    
C148  C156  A    
C59   C134  S    
C194  H57   S    
C184  C187  A    
C85   O17   A    
C32   C128  A    
C17   H17   S    
C132  H52   S    
C72   C80   A    
C56   C137  S    
O18   Zn2   S    
C235  H91   S    
C14   H14   S    
C5    C73   S    
C90   O22   A    
C63   C201  S    
C150  H7    S    
C109  H29   S    
C13   C171  A    
C31   C39   A    
O23   Zn7   S    
C140  O46   A    
C117  C125  A    
C217  H76   S    
C4    O4    A    
O16   Zn3   S    
C25   C33   A    
C119  C127  A    
C235  C236  A    
O12   Zn7   S    
O13   Zn2   S    
C157  C167  A    
C80   C120  A    
C158  C168  A    
C232  C233  A    
C115  H35   S    
C164  C165  A    
O21   Zn5   S    
O32   Zn3   S    
C208  H68   S    
O2    Zn2   S    
C40   C115  A    
C101  C109  A    
C229  C230  A    
C177  C185  A    
C103  C111  A    
C231  C236  A    
C86   O18   A    
C162  C166  A    
C79   C119  A    
O48   Zn9   S    
O22   Zn6   S    
C153  C155  A    
C120  H40   S    
C154  C156  A    
C228  H85   S    
C172  C180  A    
C173  C181  A    
C198  C199  A    
C157  C159  A    
C83   C99   A    
C158  C160  A    
O40   Zn9   S    
C74   C82   A    
C6    C74   S    
C192  H55   S    
C47   C103  A    
O42   Zn12  S    
C50   C58   A    
C163  C166  A    
C3    O27   A    
C147  C161  A    
C215  C216  A    
C38   C113  A    
C49   C105  A    
C54   C62   A    
C28   C39   A    
C190  H53   S    
C1    C69   S    
C23   C44   A    
C187  H11   S    
C116  H36   S    
C3    C71   S    
C19   C173  A    
C79   C95   A    
C92   C179  S    
O34   Zn12  S    
C117  H37   S    
C46   C54   A    
C11   C176  A    
C203  H64   S    
C114  H34   S    
C65   C213  S    
C108  H28   S    
C45   C101  A    
C92   O16   A    
C199  H61   S    
C19   C142  A    
O26   Zn5   S    
C102  C110  A    
C35   C131  A    
O31   Zn4   S    
C4    C72   S    
O35   Zn12  S    
C58   C66   A    
C33   C129  A    
O45   Zn9   S    
C57   C65   A    
C120  C128  A    
C26   C37   A    
C4    O28   A    
C5    O29   A    
C33   C41   A    
C142  C150  A    
C149  C151  A    
C197  C198  A    
C205  C206  A    
C75   C83   A    
C196  C197  A    
C226  H83   S    
C189  C194  A    
C10   C170  A    
C77   C93   A    
C203  C204  A    
C88   O20   A    
C44   C111  A    
C16   C170  A    
C123  H43   S    
C60   C68   A    
C8    O32   A    
C39   C116  A    
C29   C37   A    
C50   C106  A    
C186  H10   S    
C9    C172  A    
O24   Zn8   S    
C83   C123  A    
C2    C70   S    
C60   C133  S    
C144  C152  A    
C2    O26   A    
C86   O10   A    
C30   C126  A    
O7    Zn7   S    
C70   C78   A    
C53   C140  S    
C225  C226  A    
C135  O41   A    
O41   Zn11  S    
C139  O45   A    
O33   Zn11  S    
C141  C149  A    
C46   C102  A    
O8    Zn8   S    
C55   C138  S    
C152  H5    S    
C106  C114  A    
C218  H77   S    
C155  H2    S    
C77   C117  A    
C205  H66   S    
C48   C104  A    
C138  O48   A    
C65   C73   A    
C159  C168  A    
C15   C169  A    
C201  C206  A    
C160  C167  A    
O25   Zn6   S    
O43   Zn12  S    
C26   C34   A    
C131  H51   S    
C57   C136  S    
C80   C96   A    
O14   Zn1   S    
C145  C153  A    
C28   C100  A    
C32   C40   A    
C52   C108  A    
C89   O13   A    
C8    O8    A    
C19   H19   S    
C136  O36   A    
C126  H46   S    
C234  H90   S    
O27   Zn8   S    
O4    Zn4   S    
C216  H75   S    
C143  C157  A    
C51   C99   A    
C122  H42   S    
C11   C173  A    
C105  H25   S    
C9    C165  A    
C14   C172  A    
O5    Zn5   S    
C87   C184  S    
C102  H22   S    
C88   C183  S    
C7    C75   S    
O15   Zn4   S    
O19   Zn3   S    
C221  H79   S    
C92   O24   A    
C107  C115  A    
C1    O1    A    
C26   C98   A    
C12   C175  A    
O37   Zn9   S    
C192  C193  A    
C41   C110  A    
C134  O34   A    
C150  C152  A    
C51   C59   A    
C43   C112  A    
C20   H20   S    
C144  C158  A    
C47   C55   A    
C227  C228  A    
C66   C219  S    
C220  H78   S    
C48   C56   A    
C190  C191  A    
C130  H50   S    
C175  C183  A    
C142  C160  A    
C12   C168  A    
C84   C124  A    
C13   C148  A    
C18   H18   S    
O28   Zn7   S    
O29   Zn2   S    
C214  C215  A    
C81   C97   A    
C219  C224  A    
C219  C220  A    
C13   H13   S    
C233  H89   S    
C64   C72   A    
C221  C222  A    
C110  H30   S    
C125  H45   S    
C180  C185  A    
C1    O25   A    
C34   C130  A    
C211  C212  A    
C68   C231  S    
C204  H65   S    
C47   C95   A    
C195  C200  A    
O46   Zn10  S    
C118  C126  A    
C30   C38   A    
C213  C214  A    
C122  C130  A    
C119  H39   S    
C153  H4    S    
