data_mof_unit_41675.cif
_audit_creation_date              2012-12-10T19:44:28-0500
_audit_creation_method            fapswitch 2.2
_symmetry_space_group_name_H-M    P1
_symmetry_Int_Tables_number       1
_space_group_crystal_system       triclinic
_cell_length_a                    18.538246
_cell_length_b                    18.571433
_cell_length_c                    34.211252
_cell_angle_alpha                 90.004211
_cell_angle_beta                  90.000312
_cell_angle_gamma                 89.921489
_cell_volume                      11778.3001076

loop_
_atom_site_label
_atom_site_type_symbol
_atom_type_description
_atom_site_fract_x
_atom_site_fract_y
_atom_site_fract_z
_atom_type_partial_charge
C1    C     C_R   0.999998 0.500008 0.894539 0.819429
C2    C     C_R   0.500065 0.000007 0.894661 0.823060
C3    C     C_R   0.499985 0.000049 0.394568 0.818706
C4    C     C_R   0.000007 0.500004 0.394593 0.821897
C5    C     C_R   0.563866 0.015061 0.791427 0.036036
C6    C     C_R   0.980905 0.563130 0.791007 0.036756
C7    C     C_R   0.433657 0.993111 0.791457 0.040546
C8    C     C_R   0.020338 0.437314 0.791050 0.037082
C9    C     C_R   0.065609 0.508764 0.291100 0.037095
C10   C     C_R   0.478792 0.062337 0.291172 0.036303
C11   C     C_R   0.934365 0.491378 0.291100 0.036906
C12   C     C_R   0.520552 0.937423 0.291197 0.036181
C13   C     C_R   0.498728 0.004744 0.770708 0.029654
C14   C     C_R   0.000741 0.500231 0.770394 0.027865
C15   C     C_R   0.999987 0.500067 0.270493 0.030223
C16   C     C_R   0.499692 0.999870 0.270520 0.027684
C17   C     C_R   0.626027 0.034532 0.771094 -0.231408
C18   C     C_R   0.955424 0.622889 0.770322 -0.232131
C19   C     C_R   0.369842 0.981866 0.770715 -0.240952
C20   C     C_R   0.046674 0.377807 0.770474 -0.231979
C21   C     C_R   0.129036 0.522415 0.270179 -0.237391
C22   C     C_R   0.450735 0.121059 0.270692 -0.230645
C23   C     C_R   0.870936 0.477734 0.270177 -0.237281
C24   C     C_R   0.548473 0.878609 0.270737 -0.230667
C25   C     C_R   0.131024 0.520227 0.229529 0.190491
C26   C     C_R   0.447692 0.121978 0.230108 0.189928
C27   C     C_R   0.868948 0.479907 0.229526 0.190530
C28   C     C_R   0.551672 0.877692 0.230151 0.189957
C29   C     C_R   0.627533 0.039354 0.730587 0.189585
C30   C     C_R   0.954944 0.624628 0.729685 0.189659
C31   C     C_R   0.367327 0.985735 0.730237 0.185656
C32   C     C_R   0.048039 0.376231 0.729855 0.187986
C33   C     C_R   0.066793 0.504279 0.208457 0.059238
C34   C     C_R   0.477502 0.063176 0.208595 0.060238
C35   C     C_R   0.933185 0.495827 0.208455 0.059200
C36   C     C_R   0.522061 0.936559 0.208604 0.060234
C37   C     C_R   0.564732 0.020100 0.708646 0.059318
C38   C     C_R   0.982460 0.564578 0.708407 0.060169
C39   C     C_R   0.432904 0.991909 0.708628 0.061893
C40   C     C_R   0.019957 0.435913 0.708485 0.060757
C41   C     C_R   0.999988 0.500058 0.229101 -0.047095
C42   C     C_R   0.499742 0.999862 0.229154 -0.049007
C43   C     C_R   0.498810 0.005606 0.729215 -0.046159
C44   C     C_R   0.001005 0.500234 0.729033 -0.048641
C45   C     C_R   0.065923 0.494292 0.167496 -0.085954
C46   C     C_R   0.485194 0.064460 0.167487 -0.082205
C47   C     C_R   0.934062 0.505776 0.167493 -0.085970
C48   C     C_R   0.514637 0.935363 0.167474 -0.082316
C49   C     C_R   0.564302 0.015970 0.667258 -0.079353
C50   C     C_R   0.990900 0.565402 0.667362 -0.083227
C51   C     C_R   0.435162 0.985551 0.667436 -0.092794
C52   C     C_R   0.011125 0.434692 0.667458 -0.083636
C53   C     C_R   0.999992 0.500015 0.147610 -0.116629
C54   C     C_R   0.499980 0.999935 0.147655 -0.122644
C55   C     C_R   0.499615 0.000681 0.647684 -0.125878
C56   C     C_R   0.000334 0.499903 0.647588 -0.120131
C57   C     C_R   0.999997 0.500003 0.105332 0.842485
C58   C     C_R   0.499999 0.999970 0.105360 0.847070
C59   C     C_R   0.499787 0.000022 0.605321 0.851510
C60   C     C_R   0.000042 0.499808 0.605336 0.848533
C61   C     C_R   0.862234 0.642003 0.998405 0.837129
C62   C     C_R   0.360920 0.859342 0.000530 0.821662
C63   C     C_R   0.137779 0.357995 0.998398 0.837239
C64   C     C_R   0.639078 0.140673 0.000546 0.821640
C65   C     C_R   0.140708 0.639388 0.000729 0.810880
C66   C     C_R   0.639874 0.859740 0.000473 0.822326
C67   C     C_R   0.859263 0.360662 0.000777 0.810703
C68   C     C_R   0.360126 0.140268 0.000461 0.823104
C69   C     C_R   0.362263 0.142071 0.498374 0.823356
C70   C     C_R   0.860625 0.359577 0.500482 0.827102
C71   C     C_R   0.637883 0.858036 0.498506 0.831623
C72   C     C_R   0.139762 0.640166 0.500386 0.831715
C73   C     C_R   0.639664 0.140417 0.500033 0.822287
C74   C     C_R   0.139778 0.359650 0.500510 0.819285
C75   C     C_R   0.360842 0.859173 0.499643 0.829427
C76   C     C_R   0.860439 0.640520 0.500629 0.818595
C77   C     C_R   0.240831 0.706291 0.969426 -0.080504
C78   C     C_R   0.299886 0.246171 0.970458 -0.068243
C79   C     C_R   0.758973 0.293991 0.969640 -0.080292
C80   C     C_R   0.700071 0.753681 0.970657 -0.068383
C81   C     C_R   0.753914 0.703057 0.969309 -0.031037
C82   C     C_R   0.709083 0.238416 0.968662 -0.053308
C83   C     C_R   0.245969 0.296810 0.969131 -0.031427
C84   C     C_R   0.290771 0.761849 0.968511 -0.053122
C85   C     C_R   0.741937 0.205955 0.469093 -0.074439
C86   C     C_R   0.799314 0.745337 0.470050 -0.069863
C87   C     C_R   0.256731 0.794983 0.469236 -0.075388
C88   C     C_R   0.200636 0.254516 0.470060 -0.069681
C89   C     C_R   0.254715 0.203947 0.468695 -0.030974
C90   C     C_R   0.207010 0.740076 0.468371 -0.040860
C91   C     C_R   0.745137 0.795896 0.468765 -0.032786
C92   C     C_R   0.791857 0.261045 0.468183 -0.045292
C93   C     C_R   0.197024 0.695132 0.002255 -0.115658
C94   C     C_R   0.300339 0.192238 0.998988 -0.135899
C95   C     C_R   0.802920 0.304975 0.002390 -0.115696
C96   C     C_R   0.699672 0.807793 0.999053 -0.136567
C97   C     C_R   0.813030 0.703955 0.994556 -0.155010
C98   C     C_R   0.693472 0.197784 0.002086 -0.120517
C99   C     C_R   0.186969 0.296013 0.994486 -0.154821
C100  C     C_R   0.306474 0.802302 0.001997 -0.120804
C101  C     C_R   0.692784 0.199121 0.499914 -0.129825
C102  C     C_R   0.801315 0.693186 0.499558 -0.130369
C103  C     C_R   0.309290 0.799225 0.498433 -0.131386
C104  C     C_R   0.199424 0.307534 0.499106 -0.132442
C105  C     C_R   0.313090 0.204140 0.494509 -0.151113
C106  C     C_R   0.198514 0.692969 0.499879 -0.136393
C107  C     C_R   0.687396 0.796202 0.495003 -0.152670
C108  C     C_R   0.803546 0.305136 0.500732 -0.128344
C109  C     C_R   0.205972 0.741707 0.035325 0.158554
C110  C     C_R   0.236921 0.185080 0.022874 0.160962
C111  C     C_R   0.794026 0.258335 0.035431 0.158695
C112  C     C_R   0.763107 0.814974 0.022928 0.161281
C113  C     C_R   0.822690 0.767761 0.016971 0.169065
C114  C     C_R   0.734132 0.210585 0.036608 0.170545
C115  C     C_R   0.177319 0.232227 0.016896 0.169010
C116  C     C_R   0.265877 0.789411 0.036520 0.170657
C117  C     C_R   0.693437 0.254065 0.529350 0.152701
C118  C     C_R   0.739660 0.687662 0.524744 0.164739
C119  C     C_R   0.313085 0.740349 0.525385 0.165932
C120  C     C_R   0.262129 0.314024 0.523536 0.164300
C121  C     C_R   0.322057 0.267367 0.517487 0.168631
C122  C     C_R   0.252379 0.694516 0.529708 0.158443
C123  C     C_R   0.679400 0.733773 0.518741 0.166607
C124  C     C_R   0.754570 0.299507 0.532618 0.165589
C125  C     C_3   0.337995 0.724751 0.938707 0.168881
C126  C     C_3   0.286990 0.346988 0.943002 0.167071
C127  C     C_3   0.661837 0.275780 0.938974 0.168146
C128  C     C_3   0.713061 0.653262 0.942873 0.166666
C129  C     C_3   0.646502 0.703946 0.950699 0.187065
C130  C     C_3   0.709173 0.343712 0.946798 0.188750
C131  C     C_3   0.353580 0.296379 0.950873 0.187437
C132  C     C_3   0.290654 0.656787 0.946406 0.188673
C133  C     C_3   0.839300 0.223264 0.438851 0.167802
C134  C     C_3   0.785776 0.846261 0.442568 0.167302
C135  C     C_3   0.159407 0.777688 0.439141 0.168104
C136  C     C_3   0.213873 0.153828 0.442446 0.166983
C137  C     C_3   0.147153 0.204228 0.450342 0.187566
C138  C     C_3   0.207941 0.845480 0.446621 0.185943
C139  C     C_3   0.852579 0.795982 0.450394 0.188704
C140  C     C_3   0.791063 0.155528 0.446500 0.187235
C141  C     C_R   0.432916 0.994886 0.832689 -0.082751
C142  C     C_R   0.015096 0.435131 0.832087 -0.079640
C143  C     C_R   0.565640 0.008439 0.832421 -0.082404
C144  C     C_R   0.985377 0.565134 0.832091 -0.079693
C145  C     C_R   0.933392 0.494312 0.332298 -0.081889
C146  C     C_R   0.515045 0.935107 0.332202 -0.079525
C147  C     C_R   0.066588 0.505813 0.332296 -0.082186
C148  C     C_R   0.484467 0.064795 0.332168 -0.079638
C149  C     C_R   0.499605 0.000264 0.852512 -0.117980
C150  C     C_R   0.000021 0.500069 0.852251 -0.124724
C151  C     C_R   0.999995 0.500030 0.352316 -0.118231
C152  C     C_R   0.499895 0.000000 0.352342 -0.122394
H1    H     H_    0.674366 0.048412 0.787086 0.168129
H2    H     H_    0.934017 0.668827 0.786005 0.167721
H3    H     H_    0.320027 0.970996 0.786059 0.167263
H4    H     H_    0.068157 0.331997 0.786235 0.168276
H5    H     H_    0.178131 0.536106 0.285543 0.166638
H6    H     H_    0.428749 0.166508 0.286563 0.168749
H7    H     H_    0.821840 0.464054 0.285540 0.166641
H8    H     H_    0.570324 0.833121 0.286629 0.168603
O1    O     O_3   1.000000 0.500000 0.999990 -0.477571
O2    O     O_3   0.500000 1.000000 0.999990 -0.476085
O3    O     O_3   0.500000 1.000000 0.499990 -0.477580
O4    O     O_3   0.000000 0.500000 0.499990 -0.475615
O5    O     O_R   0.060740 0.500000 0.912560 -0.658325
O6    O     O_R   0.500000 0.060740 0.912560 -0.658392
O7    O     O_R   0.939260 0.500000 0.912560 -0.657932
O8    O     O_R   0.500000 0.939260 0.912560 -0.658066
O9    O     O_R   0.560740 1.000000 0.412560 -0.659097
O10   O     O_R   1.000000 0.560740 0.412560 -0.657423
O11   O     O_R   0.439260 1.000000 0.412560 -0.658960
O12   O     O_R   1.000000 0.439260 0.412560 -0.657676
O13   O     O_R   1.000000 0.560680 0.087420 -0.640992
O14   O     O_R   0.439320 0.000000 0.087420 -0.649695
O15   O     O_R   1.000000 0.439320 0.087420 -0.641002
O16   O     O_R   0.560680 0.000000 0.087420 -0.649596
O17   O     O_R   0.500000 0.060680 0.587420 -0.650543
O18   O     O_R   0.939320 0.500000 0.587420 -0.648374
O19   O     O_R   0.500000 0.939320 0.587420 -0.631275
O20   O     O_R   0.060680 0.500000 0.587420 -0.648378
O21   O     O_R   0.853840 0.585430 0.977070 -0.654535
O22   O     O_R   0.414570 0.853840 0.977070 -0.654839
O23   O     O_R   0.146160 0.414570 0.977070 -0.654634
O24   O     O_R   0.585430 0.146160 0.977070 -0.655167
O25   O     O_R   0.146160 0.585430 0.977070 -0.659697
O26   O     O_R   0.585430 0.853840 0.977070 -0.658519
O27   O     O_R   0.853840 0.414570 0.977070 -0.659343
O28   O     O_R   0.414570 0.146160 0.977070 -0.658786
O29   O     O_R   0.353840 0.085430 0.477070 -0.653200
O30   O     O_R   0.914570 0.353840 0.477070 -0.654732
O31   O     O_R   0.646160 0.914570 0.477070 -0.652487
O32   O     O_R   0.085430 0.646160 0.477070 -0.654189
O33   O     O_R   0.646160 0.085430 0.477070 -0.658340
O34   O     O_R   0.085430 0.353840 0.477070 -0.659084
O35   O     O_R   0.353840 0.914570 0.477070 -0.662706
O36   O     O_R   0.914570 0.646160 0.477070 -0.659589
O37   O     O_R   0.085450 0.353820 0.022910 -0.631922
O38   O     O_R   0.646180 0.085450 0.022910 -0.637831
O39   O     O_R   0.914550 0.646180 0.022910 -0.632017
O40   O     O_R   0.353820 0.914550 0.022910 -0.637683
O41   O     O_R   0.914550 0.353820 0.022910 -0.647474
O42   O     O_R   0.353820 0.085450 0.022910 -0.642654
O43   O     O_R   0.085450 0.646180 0.022910 -0.647397
O44   O     O_R   0.646180 0.914550 0.022910 -0.642745
O45   O     O_R   0.585450 0.853820 0.522910 -0.639513
O46   O     O_R   0.146180 0.585450 0.522910 -0.640069
O47   O     O_R   0.414550 0.146180 0.522910 -0.642009
O48   O     O_R   0.853820 0.414550 0.522910 -0.638607
O49   O     O_R   0.414550 0.853820 0.522910 -0.635989
O50   O     O_R   0.853820 0.585450 0.522910 -0.642493
O51   O     O_R   0.585450 0.146180 0.522910 -0.642500
O52   O     O_R   0.146180 0.414550 0.522910 -0.644165
Zn1   Zn    Zn3+2 1.000000 0.586730 0.032740 0.959186
Zn2   Zn    Zn3+2 0.413270 0.000000 0.032740 0.957445
Zn3   Zn    Zn3+2 1.000000 0.413270 0.032740 0.959208
Zn4   Zn    Zn3+2 0.586730 0.000000 0.032740 0.956964
Zn5   Zn    Zn3+2 0.500000 0.086730 0.532740 0.952509
Zn6   Zn    Zn3+2 0.913270 0.500000 0.532740 0.957348
Zn7   Zn    Zn3+2 0.500000 0.913270 0.532740 0.968650
Zn8   Zn    Zn3+2 0.086730 0.500000 0.532740 0.955907
Zn9   Zn    Zn3+2 0.913250 0.500000 0.967240 0.939571
Zn10  Zn    Zn3+2 0.500000 0.913250 0.967240 0.941391
Zn11  Zn    Zn3+2 0.086750 0.500000 0.967240 0.939197
Zn12  Zn    Zn3+2 0.500000 0.086750 0.967240 0.941140
Zn13  Zn    Zn3+2 0.413250 1.000000 0.467240 0.937106
Zn14  Zn    Zn3+2 1.000000 0.413250 0.467240 0.941514
Zn15  Zn    Zn3+2 0.586750 1.000000 0.467240 0.942324
Zn16  Zn    Zn3+2 1.000000 0.586750 0.467240 0.941983
C153  C     C_3   0.153607 0.740006 0.069554 -0.847676
H9    H     H_    0.164827 0.780211 0.092606 0.226804
H10   H     H_    0.098584 0.754095 0.059302 0.257435
H11   H     H_    0.154106 0.686051 0.083422 0.234118
C154  C     C_3   0.233562 0.132287 0.056752 -0.851700
H12   H     H_    0.188895 0.143590 0.077396 0.225703
H13   H     H_    0.227085 0.076457 0.045700 0.256676
H14   H     H_    0.282773 0.137124 0.074917 0.235248
C155  C     C_3   0.846417 0.260050 0.069641 -0.847774
H15   H     H_    0.835190 0.219884 0.092706 0.226823
H16   H     H_    0.901426 0.245953 0.059379 0.257477
H17   H     H_    0.845952 0.314019 0.083493 0.234079
C156  C     C_3   0.766516 0.867888 0.056752 -0.851462
H18   H     H_    0.811193 0.856639 0.077396 0.225602
H19   H     H_    0.772996 0.923674 0.045643 0.256676
H20   H     H_    0.717323 0.863140 0.074935 0.235339
C157  C     C_3   0.896898 0.789357 0.031577 -0.858361
H21   H     H_    0.902399 0.848781 0.033364 0.225376
H22   H     H_    0.907309 0.765502 0.060804 0.257127
H23   H     H_    0.939331 0.772582 0.010530 0.237670
C158  C     C_3   0.708953 0.180716 0.075639 -0.862747
H24   H     H_    0.715736 0.221296 0.099177 0.221296
H25   H     H_    0.650330 0.169242 0.075874 0.250657
H26   H     H_    0.739499 0.131067 0.082973 0.248913
C159  C     C_3   0.103126 0.210626 0.031519 -0.858463
H27   H     H_    0.097648 0.151198 0.033311 0.225355
H28   H     H_    0.092733 0.234489 0.060749 0.257153
H29   H     H_    0.060676 0.227391 0.010479 0.237759
C160  C     C_3   0.291141 0.819145 0.075570 -0.862969
H30   H     H_    0.284294 0.778533 0.099087 0.221344
H31   H     H_    0.349790 0.830507 0.075794 0.250482
H32   H     H_    0.260700 0.868848 0.082942 0.248995
C161  C     C_3   0.630042 0.266698 0.556680 -0.850896
H33   H     H_    0.633799 0.318213 0.572908 0.227503
H34   H     H_    0.579469 0.271779 0.539517 0.251280
H35   H     H_    0.625847 0.222469 0.578282 0.243250
C162  C     C_3   0.739456 0.638550 0.560253 -0.851544
H36   H     H_    0.697516 0.653284 0.581942 0.226551
H37   H     H_    0.730488 0.581830 0.551237 0.255435
H38   H     H_    0.790941 0.644040 0.576446 0.234613
C163  C     C_3   0.381540 0.722631 0.547847 -0.847315
H39   H     H_    0.381505 0.666951 0.559566 0.224421
H40   H     H_    0.428646 0.724182 0.527849 0.241457
H41   H     H_    0.389186 0.760510 0.572550 0.261827
C164  C     C_3   0.264091 0.365158 0.558193 -0.848847
H42   H     H_    0.307789 0.352533 0.579225 0.227143
H43   H     H_    0.271413 0.421465 0.548048 0.252999
H44   H     H_    0.213924 0.359754 0.575581 0.236251
C165  C     C_3   0.395798 0.288903 0.532787 -0.863917
H45   H     H_    0.400678 0.348256 0.535552 0.226126
H46   H     H_    0.406011 0.263680 0.561690 0.256922
H47   H     H_    0.438664 0.273541 0.511678 0.236523
C166  C     C_3   0.242597 0.654013 0.567926 -0.858560
H48   H     H_    0.275345 0.677134 0.591948 0.218110
H49   H     H_    0.186046 0.658699 0.578257 0.249666
H50   H     H_    0.257768 0.596569 0.564201 0.255624
C167  C     C_3   0.606385 0.712460 0.535096 -0.860706
H51   H     H_    0.602342 0.653365 0.539433 0.226770
H52   H     H_    0.596400 0.739968 0.563407 0.257832
H53   H     H_    0.563003 0.725412 0.513838 0.234313
C168  C     C_3   0.771266 0.334207 0.571798 -0.860592
H54   H     H_    0.747727 0.303179 0.596420 0.222883
H55   H     H_    0.830118 0.333937 0.577597 0.249839
H56   H     H_    0.750279 0.390211 0.572530 0.253887
C169  C     C_R   0.325995 0.759353 0.897750 0.117675
C170  C     C_R   0.378787 0.753581 0.868329 -0.151960
C171  C     C_R   0.366572 0.779929 0.830610 -0.133044
C172  C     C_R   0.300850 0.811859 0.821203 -0.108633
C173  C     C_R   0.246933 0.816916 0.849390 -0.108541
C174  C     C_R   0.258852 0.790617 0.887135 -0.181010
H57   H     H_    0.428633 0.726442 0.874156 0.158418
H58   H     H_    0.407693 0.774693 0.808398 0.124851
H59   H     H_    0.291487 0.832120 0.791976 0.123819
H60   H     H_    0.195833 0.841560 0.842020 0.119340
H61   H     H_    0.214861 0.794677 0.907756 0.121888
C175  C     C_R   0.257787 0.342328 0.900473 0.119883
C176  C     C_R   0.272429 0.397412 0.873320 -0.132469
C177  C     C_R   0.255342 0.389249 0.833723 -0.119855
C178  C     C_R   0.222348 0.326602 0.820431 -0.117264
C179  C     C_R   0.207718 0.271068 0.846508 -0.113945
C180  C     C_R   0.225945 0.278188 0.885945 -0.179977
H62   H     H_    0.300953 0.445056 0.882314 0.147347
H63   H     H_    0.269490 0.430615 0.812939 0.123786
H64   H     H_    0.209353 0.320589 0.789769 0.123363
H65   H     H_    0.182840 0.222041 0.836072 0.123482
H66   H     H_    0.215947 0.232499 0.904743 0.122246
C181  C     C_R   0.673848 0.241790 0.897901 0.117340
C182  C     C_R   0.621897 0.249968 0.868232 -0.151649
C183  C     C_R   0.634986 0.226336 0.830088 -0.125256
C184  C     C_R   0.700701 0.194556 0.820570 -0.110726
C185  C     C_R   0.753458 0.186207 0.849156 -0.109275
C186  C     C_R   0.740720 0.209937 0.887309 -0.179655
H67   H     H_    0.572424 0.277684 0.874173 0.157614
H68   H     H_    0.594779 0.234054 0.807595 0.125719
H69   H     H_    0.711055 0.177210 0.790923 0.121419
H70   H     H_    0.804475 0.161478 0.841704 0.119166
H71   H     H_    0.784080 0.203930 0.908183 0.121626
C187  C     C_R   0.742667 0.658288 0.900452 0.119378
C188  C     C_R   0.727782 0.603678 0.873073 -0.131895
C189  C     C_R   0.745579 0.611978 0.833580 -0.120490
C190  C     C_R   0.779335 0.674452 0.820604 -0.118344
C191  C     C_R   0.793990 0.729660 0.846896 -0.112652
C192  C     C_R   0.775180 0.722323 0.886243 -0.179911
H72   H     H_    0.698578 0.556331 0.881835 0.147131
H73   H     H_    0.731443 0.570838 0.812647 0.123295
H74   H     H_    0.792913 0.680600 0.790022 0.123038
H75   H     H_    0.819458 0.778555 0.836714 0.123115
H76   H     H_    0.785297 0.767751 0.905217 0.123265
C193  C     C_R   0.608948 0.725487 0.912653 0.145659
C194  C     C_R   0.576639 0.670295 0.890283 -0.180282
C195  C     C_R   0.553558 0.683091 0.852120 -0.164974
C196  C     C_R   0.556164 0.752559 0.836944 -0.137771
C197  C     C_R   0.582187 0.808766 0.859887 -0.123492
C198  C     C_R   0.611683 0.795280 0.896839 -0.091522
H77   H     H_    0.573721 0.615855 0.901422 0.118311
H78   H     H_    0.532003 0.639490 0.834699 0.125233
H79   H     H_    0.536739 0.763160 0.807688 0.122009
H80   H     H_    0.579992 0.862530 0.848501 0.147033
H81   H     H_    0.637904 0.838796 0.912179 0.151122
C199  C     C_R   0.733357 0.379254 0.908765 0.144475
C200  C     C_R   0.679583 0.407362 0.883750 -0.177314
C201  C     C_R   0.696544 0.430337 0.846064 -0.165036
C202  C     C_R   0.768139 0.431501 0.833953 -0.126909
C203  C     C_R   0.822153 0.408717 0.859336 -0.113779
C204  C     C_R   0.805209 0.379505 0.895847 -0.089960
H82   H     H_    0.623593 0.407982 0.892585 0.119312
H83   H     H_    0.654346 0.449026 0.826682 0.122751
H84   H     H_    0.782050 0.451112 0.805137 0.124865
H85   H     H_    0.877039 0.413392 0.850244 0.147700
H86   H     H_    0.847927 0.356226 0.913209 0.144651
C205  C     C_R   0.391735 0.275695 0.912844 0.145030
C206  C     C_R   0.423533 0.331534 0.890730 -0.179043
C207  C     C_R   0.447000 0.319476 0.852565 -0.166072
C208  C     C_R   0.445640 0.250112 0.837205 -0.135324
C209  C     C_R   0.420498 0.193287 0.859972 -0.124975
C210  C     C_R   0.390288 0.206012 0.896847 -0.094744
H87   H     H_    0.425681 0.385880 0.902050 0.118350
H88   H     H_    0.468008 0.363566 0.835314 0.125222
H89   H     H_    0.465478 0.240061 0.807973 0.124992
H90   H     H_    0.423878 0.139639 0.848472 0.149081
H91   H     H_    0.364586 0.161987 0.911991 0.155080
C211  C     C_R   0.266656 0.621526 0.908271 0.142633
C212  C     C_R   0.320595 0.594269 0.883072 -0.175744
C213  C     C_R   0.303620 0.571153 0.845416 -0.164678
C214  C     C_R   0.231949 0.569159 0.833476 -0.128612
C215  C     C_R   0.177865 0.591056 0.859041 -0.114347
C216  C     C_R   0.194715 0.620356 0.895547 -0.091978
H92   H     H_    0.376650 0.594267 0.891774 0.119603
H93   H     H_    0.345888 0.553056 0.825913 0.122865
H94   H     H_    0.218040 0.549499 0.804667 0.125083
H95   H     H_    0.122984 0.585584 0.850098 0.148501
H96   H     H_    0.151840 0.642908 0.913072 0.146179
C217  C     C_R   0.828103 0.257572 0.397758 0.118053
C218  C     C_R   0.881396 0.251577 0.368650 -0.152194
C219  C     C_R   0.869556 0.277047 0.330707 -0.129267
C220  C     C_R   0.803799 0.308378 0.320800 -0.109504
C221  C     C_R   0.749490 0.313877 0.348727 -0.109413
C222  C     C_R   0.761031 0.288505 0.386678 -0.179605
H97   H     H_    0.931257 0.224799 0.374908 0.159555
H98   H     H_    0.910901 0.271454 0.308662 0.126689
H99   H     H_    0.794691 0.327744 0.291375 0.122881
H100  H     H_    0.698298 0.337952 0.340978 0.119400
H101  H     H_    0.716682 0.292784 0.407060 0.121912
C223  C     C_R   0.756337 0.841397 0.400094 0.118804
C224  C     C_R   0.770582 0.896537 0.372914 -0.133192
C225  C     C_R   0.753682 0.888181 0.333318 -0.119199
C226  C     C_R   0.721326 0.825209 0.320043 -0.118683
C227  C     C_R   0.706761 0.769727 0.346168 -0.112624
C228  C     C_R   0.724742 0.777088 0.385623 -0.177712
H102  H     H_    0.798827 0.944334 0.381875 0.147992
H103  H     H_    0.767578 0.929626 0.312524 0.123758
H104  H     H_    0.708782 0.818936 0.289357 0.121635
H105  H     H_    0.682227 0.720525 0.335743 0.122865
H106  H     H_    0.714888 0.731417 0.404460 0.122381
C229  C     C_R   0.170325 0.743200 0.398076 0.118729
C230  C     C_R   0.116692 0.748691 0.369137 -0.152165
C231  C     C_R   0.128354 0.723199 0.331175 -0.129524
C232  C     C_R   0.194240 0.692330 0.321093 -0.109779
C233  C     C_R   0.248847 0.687262 0.348867 -0.109656
C234  C     C_R   0.237478 0.712618 0.386836 -0.179941
H107  H     H_    0.066679 0.775047 0.375555 0.160471
H108  H     H_    0.086777 0.728394 0.309240 0.127210
H109  H     H_    0.203197 0.672960 0.291654 0.123286
H110  H     H_    0.300136 0.663536 0.340987 0.119605
H111  H     H_    0.282047 0.708675 0.407096 0.122046
C235  C     C_R   0.243211 0.158754 0.399960 0.119020
C236  C     C_R   0.228732 0.103741 0.372740 -0.133211
C237  C     C_R   0.245555 0.112156 0.333140 -0.119059
C238  C     C_R   0.278026 0.175089 0.319898 -0.118626
C239  C     C_R   0.292800 0.230461 0.346063 -0.112710
C240  C     C_R   0.274908 0.223030 0.385526 -0.177919
H112  H     H_    0.200384 0.056003 0.381684 0.148136
H113  H     H_    0.231518 0.070784 0.312325 0.123716
H114  H     H_    0.290496 0.181421 0.289209 0.121445
H115  H     H_    0.317420 0.279635 0.335664 0.122944
H116  H     H_    0.284903 0.268623 0.404401 0.122413
C241  C     C_R   0.109144 0.225043 0.412303 0.145029
C242  C     C_R   0.077733 0.169230 0.389996 -0.180246
C243  C     C_R   0.055320 0.181261 0.351641 -0.163517
C244  C     C_R   0.057281 0.250589 0.336263 -0.137383
C245  C     C_R   0.081569 0.307465 0.359277 -0.126838
C246  C     C_R   0.110754 0.294783 0.396392 -0.094072
H117  H     H_    0.075348 0.114873 0.401280 0.118465
H118  H     H_    0.034830 0.137157 0.334216 0.125344
H119  H     H_    0.038521 0.260577 0.306818 0.122642
H120  H     H_    0.078364 0.361110 0.347787 0.147871
H121  H     H_    0.135936 0.338856 0.411766 0.154104
C247  C     C_R   0.232066 0.880370 0.408438 0.142546
C248  C     C_R   0.178198 0.907807 0.383288 -0.176367
C249  C     C_R   0.195126 0.930251 0.345495 -0.164053
C250  C     C_R   0.266741 0.931338 0.333365 -0.128128
C251  C     C_R   0.320846 0.909097 0.358849 -0.114537
C252  C     C_R   0.303934 0.880563 0.395523 -0.093109
H122  H     H_    0.122209 0.908338 0.392167 0.120399
H123  H     H_    0.152891 0.948532 0.326024 0.123317
H124  H     H_    0.280586 0.950466 0.304443 0.125238
H125  H     H_    0.375780 0.913603 0.349717 0.147696
H126  H     H_    0.346688 0.857651 0.412987 0.143929
C253  C     C_R   0.890573 0.775391 0.412310 0.144561
C254  C     C_R   0.921605 0.831379 0.389981 -0.181072
C255  C     C_R   0.943471 0.819601 0.351507 -0.162515
C256  C     C_R   0.941434 0.750345 0.336026 -0.137519
C257  C     C_R   0.917793 0.693259 0.359088 -0.127790
C258  C     C_R   0.889076 0.705690 0.396334 -0.094951
H127  H     H_    0.923968 0.885692 0.401332 0.118620
H128  H     H_    0.963551 0.863850 0.334054 0.125399
H129  H     H_    0.959707 0.740571 0.306469 0.122427
H130  H     H_    0.921101 0.639653 0.347535 0.147812
H131  H     H_    0.864262 0.661460 0.411746 0.154823
C259  C     C_R   0.766950 0.120367 0.408379 0.142756
C260  C     C_R   0.820799 0.092732 0.383269 -0.176487
C261  C     C_R   0.803858 0.070075 0.345517 -0.164400
C262  C     C_R   0.732247 0.068963 0.333393 -0.128153
C263  C     C_R   0.678168 0.091327 0.358857 -0.114186
C264  C     C_R   0.695076 0.120054 0.395490 -0.092641
H132  H     H_    0.876789 0.092204 0.392128 0.120163
H133  H     H_    0.846081 0.051668 0.326072 0.123237
H134  H     H_    0.718380 0.049696 0.304500 0.125179
H135  H     H_    0.623256 0.086735 0.349741 0.147604
H136  H     H_    0.652315 0.142969 0.412959 0.143946
C265  C     C_3   0.418421 0.714229 0.949979 -0.850125
H137  H     H_    0.425607 0.711615 0.982148 0.243487
H138  H     H_    0.439827 0.663830 0.937095 0.210700
H139  H     H_    0.452864 0.757874 0.938244 0.276602
C266  C     C_3   0.295487 0.424188 0.958797 -0.877062
H140  H     H_    0.293469 0.425768 0.991240 0.242286
H141  H     H_    0.347616 0.446923 0.948935 0.214189
H142  H     H_    0.252713 0.459804 0.946988 0.276599
C267  C     C_3   0.581415 0.286083 0.950250 -0.849202
H143  H     H_    0.574177 0.288263 0.982426 0.243430
H144  H     H_    0.560016 0.336666 0.937571 0.210892
H145  H     H_    0.547114 0.242536 0.938265 0.276739
C268  C     C_3   0.704311 0.575909 0.958414 -0.876222
H146  H     H_    0.705929 0.574048 0.990860 0.242060
H147  H     H_    0.652279 0.553303 0.948296 0.214169
H148  H     H_    0.747220 0.540355 0.946681 0.276858
C269  C     C_3   0.591336 0.677086 0.981441 -0.916845
H149  H     H_    0.618314 0.660100 0.008952 0.236664
H150  H     H_    0.553604 0.721125 0.989135 0.257207
H151  H     H_    0.559366 0.631079 0.970232 0.230509
C270  C     C_3   0.676714 0.399995 0.975360 -0.914137
H152  H     H_    0.656367 0.374372 0.002549 0.242864
H153  H     H_    0.718819 0.438588 0.984476 0.257760
H154  H     H_    0.631655 0.430169 0.961730 0.227748
C271  C     C_3   0.408326 0.323001 0.981901 -0.917046
H155  H     H_    0.380988 0.339599 0.009379 0.236652
H156  H     H_    0.446087 0.278962 0.989557 0.256894
H157  H     H_    0.440332 0.369201 0.970958 0.230700
C272  C     C_3   0.323175 0.600285 0.974808 -0.913826
H158  H     H_    0.343638 0.625676 0.002036 0.242784
H159  H     H_    0.281059 0.561724 0.983915 0.258134
H160  H     H_    0.368135 0.570164 0.961043 0.227637
C273  C     C_3   0.919278 0.212724 0.450775 -0.855196
H161  H     H_    0.925520 0.210372 0.483016 0.242258
H162  H     H_    0.940839 0.162177 0.438115 0.212067
H163  H     H_    0.953995 0.256359 0.439272 0.276899
C274  C     C_3   0.794355 0.923607 0.458217 -0.873783
H164  H     H_    0.792411 0.925403 0.490655 0.243631
H165  H     H_    0.846470 0.946264 0.448286 0.213124
H166  H     H_    0.751710 0.959306 0.446346 0.276474
C275  C     C_3   0.079661 0.788146 0.451383 -0.858459
H167  H     H_    0.073920 0.790442 0.483655 0.241334
H168  H     H_    0.057955 0.838686 0.438783 0.213058
H169  H     H_    0.044857 0.744423 0.440059 0.277244
C276  C     C_3   0.205273 0.076506 0.458027 -0.875501
H170  H     H_    0.207043 0.074679 0.490465 0.242599
H171  H     H_    0.153205 0.053906 0.447993 0.213849
H172  H     H_    0.248048 0.040900 0.446204 0.276826
C277  C     C_3   0.092326 0.177273 0.481245 -0.917302
H173  H     H_    0.119581 0.160592 0.508724 0.239907
H174  H     H_    0.054408 0.221141 0.488947 0.256403
H175  H     H_    0.060514 0.131039 0.470181 0.230603
C278  C     C_3   0.176878 0.901864 0.475436 -0.916150
H176  H     H_    0.156940 0.876374 0.502755 0.237827
H177  H     H_    0.219652 0.939875 0.484328 0.260723
H178  H     H_    0.131761 0.932375 0.462084 0.229010
C279  C     C_3   0.907339 0.822968 0.481328 -0.919459
H179  H     H_    0.880011 0.839711 0.508777 0.239426
H180  H     H_    0.945159 0.779071 0.489105 0.256252
H181  H     H_    0.939188 0.869177 0.470274 0.231001
C280  C     C_3   0.822522 0.099198 0.475276 -0.917461
H182  H     H_    0.842435 0.124759 0.502582 0.240042
H183  H     H_    0.780032 0.060888 0.484181 0.261051
H184  H     H_    0.867693 0.068825 0.461879 0.228433
C281  C     C_R   0.362886 0.998253 0.855187 0.083513
C282  C     C_R   0.347622 0.949114 0.885352 -0.102624
C283  C     C_R   0.286740 0.957987 0.909021 -0.142080
C284  C     C_R   0.238366 0.013961 0.901761 -0.136164
C285  C     C_R   0.250579 0.060944 0.870679 -0.148962
C286  C     C_R   0.312197 0.053213 0.847504 -0.190354
H185  H     H_    0.382551 0.903650 0.890591 0.172238
H186  H     H_    0.276615 0.920887 0.932767 0.124442
H187  H     H_    0.191022 0.020434 0.919943 0.124828
H188  H     H_    0.212527 0.103729 0.864721 0.126388
H189  H     H_    0.320545 0.090687 0.823702 0.138964
C287  C     C_R   0.015961 0.363799 0.853155 0.075741
C288  C     C_R   0.063422 0.349757 0.884288 -0.104677
C289  C     C_R   0.057853 0.285864 0.905747 -0.158915
C290  C     C_R   0.007780 0.233481 0.895122 -0.140079
C291  C     C_R   0.963293 0.244666 0.862848 -0.138749
C292  C     C_R   0.967391 0.309111 0.841924 -0.181787
H190  H     H_    0.105717 0.387209 0.891630 0.178438
H191  H     H_    0.093341 0.276213 0.930220 0.124055
H192  H     H_    0.004224 0.183804 0.911545 0.123359
H193  H     H_    0.925341 0.203541 0.854157 0.123507
H194  H     H_    0.931667 0.316835 0.817222 0.138047
C293  C     C_R   0.636454 0.004365 0.854056 0.080835
C294  C     C_R   0.652640 0.051507 0.885020 -0.105973
C295  C     C_R   0.714995 0.041855 0.907438 -0.144922
C296  C     C_R   0.763942 0.987478 0.897990 -0.136702
C297  C     C_R   0.750873 0.942980 0.865928 -0.144783
C298  C     C_R   0.687835 0.951458 0.843984 -0.184613
H195  H     H_    0.617594 0.096225 0.891733 0.172504
H196  H     H_    0.725864 0.077252 0.931856 0.124248
H197  H     H_    0.812441 0.980450 0.915191 0.124348
H198  H     H_    0.789399 0.901578 0.858224 0.125740
H199  H     H_    0.678695 0.915988 0.819360 0.136342
C299  C     C_R   0.984628 0.636388 0.853258 0.075642
C300  C     C_R   0.937231 0.650342 0.884432 -0.104561
C301  C     C_R   0.943128 0.713966 0.906107 -0.158572
C302  C     C_R   0.993495 0.766194 0.895672 -0.140650
C303  C     C_R   0.037952 0.755123 0.863376 -0.139275
C304  C     C_R   0.033521 0.690937 0.842236 -0.181675
H200  H     H_    0.894761 0.613010 0.891656 0.178354
H201  H     H_    0.907682 0.723531 0.930608 0.123736
H202  H     H_    0.997322 0.815658 0.912270 0.123502
H203  H     H_    0.076179 0.796107 0.854850 0.123929
H204  H     H_    0.069296 0.683278 0.817550 0.138669
C305  C     C_R   0.863037 0.497448 0.354458 0.082417
C306  C     C_R   0.847646 0.448598 0.384751 -0.105148
C307  C     C_R   0.785988 0.456999 0.407871 -0.143122
C308  C     C_R   0.736977 0.512082 0.399884 -0.136239
C309  C     C_R   0.749281 0.558562 0.368585 -0.146627
C310  C     C_R   0.811606 0.551269 0.345928 -0.186216
H205  H     H_    0.882906 0.403568 0.390430 0.172759
H206  H     H_    0.775733 0.420163 0.431724 0.125250
H207  H     H_    0.689028 0.518174 0.417634 0.124697
H208  H     H_    0.710684 0.600554 0.362020 0.125973
H209  H     H_    0.819920 0.588196 0.321871 0.137006
C311  C     C_R   0.515574 0.863726 0.353188 0.076837
C312  C     C_R   0.562642 0.849434 0.384465 -0.105500
C313  C     C_R   0.556549 0.785545 0.405888 -0.160818
C314  C     C_R   0.506210 0.733483 0.395132 -0.140658
C315  C     C_R   0.462090 0.744930 0.362726 -0.138855
C316  C     C_R   0.466868 0.809309 0.341777 -0.180599
H210  H     H_    0.604998 0.886702 0.391965 0.178142
H211  H     H_    0.591772 0.775704 0.430467 0.123546
H212  H     H_    0.502143 0.683859 0.411568 0.123036
H213  H     H_    0.423848 0.704091 0.353963 0.123560
H214  H     H_    0.431464 0.817258 0.316961 0.137254
C317  C     C_R   0.136953 0.502691 0.354448 0.082158
C318  C     C_R   0.152387 0.551604 0.384708 -0.105378
C319  C     C_R   0.214152 0.543337 0.407758 -0.144057
C320  C     C_R   0.263161 0.488250 0.399772 -0.136122
C321  C     C_R   0.250762 0.441645 0.368534 -0.146530
C322  C     C_R   0.188366 0.448846 0.345925 -0.186367
H215  H     H_    0.117089 0.596597 0.390405 0.173134
H216  H     H_    0.224483 0.580262 0.431562 0.125435
H217  H     H_    0.311176 0.482244 0.417477 0.124659
H218  H     H_    0.289347 0.399638 0.361975 0.125938
H219  H     H_    0.179973 0.411826 0.321914 0.137167
C323  C     C_R   0.483881 0.136271 0.353072 0.076257
C324  C     C_R   0.436975 0.150595 0.384416 -0.105304
C325  C     C_R   0.442978 0.214655 0.405700 -0.159657
C326  C     C_R   0.493014 0.266852 0.394734 -0.140216
C327  C     C_R   0.536957 0.255353 0.362266 -0.138859
C328  C     C_R   0.532306 0.190803 0.341463 -0.180598
H220  H     H_    0.394782 0.113246 0.392064 0.178370
H221  H     H_    0.407886 0.224545 0.430322 0.124583
H222  H     H_    0.496974 0.316617 0.411055 0.123263
H223  H     H_    0.574958 0.296288 0.353338 0.123585
H224  H     H_    0.567593 0.182814 0.316601 0.137456
C329  C     C_3   0.200937 0.542690 0.210274 -0.913009
H225  H     H_    0.229262 0.495259 0.197955 0.256522
H226  H     H_    0.190216 0.583588 0.187351 0.242534
H227  H     H_    0.238741 0.568102 0.231349 0.223363
C330  C     C_3   0.405953 0.183522 0.211888 -0.909935
H228  H     H_    0.442964 0.222825 0.198139 0.260874
H229  H     H_    0.366170 0.162410 0.190582 0.240953
H230  H     H_    0.374299 0.214148 0.233891 0.219061
C331  C     C_3   0.799027 0.457454 0.210271 -0.913103
H231  H     H_    0.770720 0.504886 0.197945 0.256524
H232  H     H_    0.809739 0.416538 0.187354 0.242559
H233  H     H_    0.761208 0.432071 0.231345 0.223228
C332  C     C_3   0.593404 0.816082 0.211983 -0.909839
H234  H     H_    0.556403 0.776864 0.198150 0.260884
H235  H     H_    0.633369 0.837142 0.190762 0.240957
H236  H     H_    0.624868 0.785362 0.234030 0.219053
C333  C     C_3   0.696346 0.069540 0.713268 -0.912180
H237  H     H_    0.726383 0.027444 0.697103 0.258242
H238  H     H_    0.683813 0.116728 0.694643 0.241685
H239  H     H_    0.734223 0.089566 0.735937 0.218498
C334  C     C_3   0.918129 0.688634 0.710903 -0.909968
H240  H     H_    0.958388 0.725326 0.697678 0.259033
H241  H     H_    0.878352 0.670038 0.688903 0.241712
H242  H     H_    0.887314 0.721168 0.732463 0.221366
C335  C     C_3   0.292624 0.991088 0.712525 -0.907890
H243  H     H_    0.290741 0.034814 0.690476 0.248151
H244  H     H_    0.275746 0.938835 0.699946 0.251667
H245  H     H_    0.251334 0.005563 0.734746 0.226690
C336  C     C_3   0.086491 0.312983 0.711266 -0.906276
H246  H     H_    0.047246 0.275127 0.698121 0.259582
H247  H     H_    0.125899 0.332346 0.689267 0.242278
H248  H     H_    0.118059 0.281460 0.732947 0.220874
C337  C     C_R   0.130575 0.470017 0.145137 0.139417
C338  C     C_R   0.162556 0.514725 0.116845 -0.166804
C339  C     C_R   0.218735 0.488850 0.093439 -0.149606
C340  C     C_R   0.243434 0.418219 0.098068 -0.107584
C341  C     C_R   0.212232 0.373525 0.126254 -0.135475
C342  C     C_R   0.155914 0.399189 0.149684 -0.138903
H249  H     H_    0.143302 0.569194 0.112740 0.125925
H250  H     H_    0.242702 0.523371 0.071504 0.123031
H251  H     H_    0.286565 0.398040 0.079735 0.116845
H252  H     H_    0.231223 0.318741 0.129678 0.130175
H253  H     H_    0.131225 0.363633 0.170897 0.124866
C343  C     C_R   0.486712 0.132967 0.144801 0.129837
C344  C     C_R   0.429797 0.151471 0.119532 -0.146272
C345  C     C_R   0.433112 0.214569 0.097305 -0.157531
C346  C     C_R   0.493117 0.259684 0.100186 -0.121046
C347  C     C_R   0.549793 0.241856 0.125358 -0.166466
C348  C     C_R   0.547008 0.178429 0.147369 -0.158130
H254  H     H_    0.382793 0.117254 0.117456 0.142160
H255  H     H_    0.389146 0.228622 0.077921 0.126021
H256  H     H_    0.495650 0.308494 0.082951 0.126396
H257  H     H_    0.596183 0.276928 0.127575 0.135828
H258  H     H_    0.591638 0.164718 0.166407 0.133532
C349  C     C_R   0.869427 0.530080 0.145131 0.139471
C350  C     C_R   0.837432 0.485392 0.116834 -0.166835
C351  C     C_R   0.781265 0.511293 0.093431 -0.149633
C352  C     C_R   0.756594 0.581928 0.098068 -0.107476
C353  C     C_R   0.787809 0.626602 0.126259 -0.135525
C354  C     C_R   0.844114 0.600912 0.149686 -0.138915
H259  H     H_    0.856664 0.430919 0.112723 0.125866
H260  H     H_    0.757287 0.476786 0.071492 0.122979
H261  H     H_    0.713472 0.602127 0.079738 0.116935
H262  H     H_    0.768838 0.681390 0.129690 0.130160
H263  H     H_    0.868812 0.636453 0.170904 0.124834
C355  C     C_R   0.513308 0.866914 0.144732 0.129864
C356  C     C_R   0.570411 0.848508 0.119566 -0.146159
C357  C     C_R   0.567299 0.785450 0.097291 -0.157328
C358  C     C_R   0.507305 0.740286 0.100016 -0.121022
C359  C     C_R   0.450435 0.758026 0.125078 -0.166659
C360  C     C_R   0.453016 0.821415 0.147136 -0.158280
H264  H     H_    0.617402 0.882770 0.117608 0.141966
H265  H     H_    0.611412 0.771463 0.077991 0.126129
H266  H     H_    0.504930 0.691508 0.082745 0.126311
H267  H     H_    0.404053 0.722918 0.127174 0.135904
H268  H     H_    0.408240 0.835057 0.166088 0.133648
C361  C     C_R   0.631121 0.016274 0.643057 0.121837
C362  C     C_R   0.651541 0.078350 0.622350 -0.130270
C363  C     C_R   0.710206 0.076242 0.596662 -0.148487
C364  C     C_R   0.747882 0.011897 0.590852 -0.131804
C365  C     C_R   0.727208 0.949635 0.610880 -0.144113
C366  C     C_R   0.668867 0.951630 0.636796 -0.154668
H269  H     H_    0.621761 0.128008 0.626181 0.128869
H270  H     H_    0.726146 0.124274 0.581008 0.133865
H271  H     H_    0.792836 0.010201 0.570674 0.124216
H272  H     H_    0.756015 0.899676 0.606072 0.131598
H273  H     H_    0.652444 0.902794 0.651613 0.130991
C367  C     C_R   0.999598 0.633428 0.644738 0.131385
C368  C     C_R   0.946335 0.656235 0.618205 -0.155187
C369  C     C_R   0.957660 0.717010 0.594889 -0.152011
C370  C     C_R   0.022178 0.755445 0.597874 -0.119722
C371  C     C_R   0.075290 0.733347 0.624305 -0.165572
C372  C     C_R   0.064262 0.672392 0.647569 -0.148650
H274  H     H_    0.896330 0.626706 0.615638 0.139085
H275  H     H_    0.916576 0.734103 0.574389 0.124105
H276  H     H_    0.031072 0.802257 0.579662 0.122379
H277  H     H_    0.125354 0.763010 0.626462 0.131706
H278  H     H_    0.106314 0.655009 0.667426 0.129135
C373  C     C_R   0.374986 0.953479 0.644301 0.150869
C374  C     C_R   0.360731 0.879371 0.647101 -0.134320
C375  C     C_R   0.306686 0.848182 0.624178 -0.160388
C376  C     C_R   0.268011 0.890126 0.597487 -0.098831
C377  C     C_R   0.282737 0.963632 0.593983 -0.143923
C378  C     C_R   0.335879 0.995365 0.617322 -0.171738
H279  H     H_    0.391184 0.846056 0.667190 0.122152
H280  H     H_    0.295206 0.791326 0.626895 0.124766
H281  H     H_    0.226845 0.865598 0.579431 0.121799
H282  H     H_    0.253079 0.995991 0.573123 0.120842
H283  H     H_    0.346981 0.052329 0.614280 0.128193
C379  C     C_R   0.004506 0.366302 0.644946 0.129834
C380  C     C_R   0.058528 0.344907 0.618496 -0.153833
C381  C     C_R   0.049601 0.283009 0.595751 -0.150838
C382  C     C_R   0.986861 0.241905 0.599313 -0.120755
C383  C     C_R   0.933096 0.262522 0.625714 -0.167719
C384  C     C_R   0.941570 0.324745 0.648299 -0.151548
H284  H     H_    0.107418 0.376194 0.615656 0.141210
H285  H     H_    0.091248 0.266984 0.575326 0.126246
H286  H     H_    0.979884 0.194120 0.581600 0.125299
H287  H     H_    0.884448 0.230723 0.628355 0.136742
H288  H     H_    0.899039 0.340852 0.668180 0.131593

loop_
_geom_bond_atom_site_label_1
_geom_bond_atom_site_label_2
_ccdc_geom_bond_type
C45   C337  S    
C300  C301  A    
C74   O34   A    
C64   O38   A    
C19   H3    S    
C241  C242  A    
C36   C42   A    
C222  H101  S    
C34   C42   A    
C317  C318  A    
O38   Zn4   S    
O36   Zn16  S    
C193  C194  A    
C350  H259  S    
C361  C366  A    
C312  C313  A    
C166  H50   S    
C70   O30   A    
C111  C155  S    
C184  H69   S    
C295  C296  A    
C14   C44   A    
C121  C165  S    
C221  C222  A    
C29   C333  S    
C198  H81   S    
C331  H232  S    
C206  H87   S    
C5    C143  A    
C1    O7    A    
C323  C328  A    
C275  H167  S    
C285  H188  S    
C164  H44   S    
C33   C45   A    
C301  C302  A    
C30   C38   A    
C279  H181  S    
C362  H269  S    
C112  C113  A    
C343  C348  A    
C11   C15   A    
C365  H272  S    
C377  C378  A    
C12   C16   A    
C308  C309  A    
C355  C360  A    
C190  H74   S    
C154  H13   S    
C187  C188  A    
C5    C13   A    
C238  H114  S    
C25   C329  S    
C47   C53   A    
C334  H242  S    
C73   C101  S    
O1    Zn3   S    
C35   C47   A    
C89   C136  S    
C157  H21   S    
C275  H168  S    
C75   C103  S    
C82   C98   A    
C291  H193  S    
C58   O14   A    
C108  C124  A    
O3    Zn15  S    
C67   O27   A    
C48   C355  S    
C284  C285  A    
C336  H248  S    
C61   C97   S    
O47   Zn5   S    
C63   O23   A    
C191  C192  A    
O21   Zn9   S    
C84   C100  A    
C91   C107  A    
C132  C272  S    
C320  H217  S    
C196  C197  A    
C259  C260  A    
C277  H174  S    
C127  C267  S    
C202  H84   S    
C3    O9    A    
C369  C370  A    
C72   O46   A    
O52   Zn8   S    
C27   C35   A    
C265  H137  S    
C79   C130  S    
C10   C22   A    
C63   O37   A    
C182  C183  A    
C266  H142  S    
C243  C244  A    
C137  C277  S    
C227  H105  S    
O13   Zn1   S    
C231  H108  S    
C315  H213  S    
C131  C205  S    
C275  H169  S    
C272  H160  S    
C145  C305  S    
C256  H129  S    
C65   O43   A    
C235  C240  A    
C180  H66   S    
C278  H176  S    
C138  C247  S    
C203  C204  A    
C281  C286  A    
C177  C178  A    
C309  H208  S    
O42   Zn2   S    
C332  H234  S    
C353  H262  S    
C214  C215  A    
C228  H106  S    
C87   C103  A    
C172  C173  A    
C72   C106  S    
C7    C19   A    
C282  H185  S    
C271  H156  S    
C81   C128  S    
C333  H237  S    
C83   C126  S    
C219  C220  A    
C148  C323  S    
C247  C248  A    
O5    Zn11  S    
C161  H34   S    
C257  H130  S    
C260  H132  S    
C265  H139  S    
C76   O50   A    
C351  H260  S    
C296  C297  A    
O19   Zn7   S    
C71   C107  S    
C384  H288  S    
O43   Zn1   S    
O17   Zn5   S    
C367  C368  A    
C316  H214  S    
C297  H198  S    
C224  C225  A    
O1    Zn9   S    
C135  C229  S    
C288  H190  S    
C77   C84   A    
C126  C266  S    
C86   C91   A    
O2    Zn10  S    
C237  C238  A    
C375  C376  A    
C290  H192  S    
C9    C15   A    
C101  C117  A    
C167  H52   S    
C66   O26   A    
C49   C55   A    
C329  H225  S    
C254  C255  A    
C99   C115  A    
C9    C21   A    
C277  H173  S    
C78   C94   A    
C113  C157  S    
C11   C23   A    
C199  C200  A    
C147  C317  S    
C215  H95   S    
C201  C202  A    
C122  C166  S    
C68   C94   S    
C98   C114  A    
C179  H65   S    
C239  H115  S    
C273  H162  S    
C7    C13   A    
C88   C89   A    
C267  H144  S    
C358  C359  A    
O25   Zn11  S    
C157  H23   S    
C160  H31   S    
C346  C347  A    
C136  C276  S    
C282  C283  A    
C10   C16   A    
C276  H171  S    
C319  C320  A    
C231  C232  A    
C348  H258  S    
C116  C160  S    
C176  H62   S    
C10   C148  A    
C330  H229  S    
O3    Zn7   S    
C39   C51   A    
C207  H88   S    
C200  C201  A    
C168  H56   S    
C55   C59   S    
C349  C350  A    
C270  H152  S    
C78   C131  S    
C128  C129  S    
C61   O39   A    
C79   C82   A    
C211  C212  A    
C361  C362  A    
C302  H202  S    
O2    Zn4   S    
C262  C263  A    
C213  C214  A    
C304  H204  S    
C169  C170  A    
C4    O10   A    
C383  H287  S    
O16   Zn4   S    
C347  C348  A    
C153  H11   S    
C314  H212  S    
C208  C209  A    
C194  H77   S    
C292  H194  S    
C178  H64   S    
C133  C217  S    
C344  H254  S    
C219  H98   S    
C332  H236  S    
C144  C150  A    
C380  H284  S    
C249  C250  A    
C50   C367  S    
C217  C222  A    
C92   C108  A    
C325  H221  S    
C324  C325  A    
C23   H7    S    
C335  H245  S    
O40   Zn2   S    
C241  C246  A    
C305  C306  A    
C205  C210  A    
C34   C46   A    
C269  H149  S    
C154  H12   S    
C51   C55   A    
C193  C198  A    
C18   H2    S    
C110  C154  S    
C66   O44   A    
C92   C133  S    
C65   C93   S    
C195  H78   S    
C45   C53   A    
C165  H45   S    
C67   C95   S    
C309  C310  A    
C109  C153  S    
C31   C335  S    
C131  C271  S    
C313  H211  S    
C132  C211  S    
C206  C207  A    
C88   C104  A    
C85   C92   A    
C322  H219  S    
C168  H54   S    
C299  C304  A    
C76   C102  S    
C354  H263  S    
C119  C163  S    
C274  H165  S    
C213  H93   S    
O35   Zn13  S    
O49   Zn7   S    
C253  C254  A    
C327  H223  S    
C230  C231  A    
O33   Zn15  S    
C225  C226  A    
C329  H227  S    
O6    Zn12  S    
C134  C139  S    
C374  C375  A    
C146  C311  S    
C134  C274  S    
C308  H207  S    
C287  C292  A    
C114  C158  S    
C50   C56   A    
C370  H276  S    
C142  C287  S    
C364  C365  A    
C272  H159  S    
C210  H91   S    
C147  C151  A    
C223  C228  A    
C67   O41   A    
C6    C14   A    
C118  C162  S    
C162  H37   S    
C226  H104  S    
C143  C149  A    
C372  H278  S    
C360  H268  S    
C106  C122  A    
C54   C58   S    
C268  H146  S    
C318  C319  A    
C270  H153  S    
C85   C140  S    
C363  H270  S    
C86   C139  S    
O3    Zn5   S    
C212  H92   S    
C191  H75   S    
C264  H136  S    
C358  H266  S    
C279  H179  S    
C163  H41   S    
C196  H79   S    
C87   C138  S    
C6    C144  A    
C86   C102  A    
C218  C219  A    
C129  C269  S    
C7    C141  A    
C120  C121  A    
C74   C104  S    
O2    Zn2   S    
C326  H222  S    
C353  C354  A    
C21   C25   A    
C299  C300  A    
O45   Zn7   S    
C158  H26   S    
C80   C129  S    
C4    O12   A    
C156  H20   S    
C338  C339  A    
C125  C265  S    
C338  H249  S    
C73   O51   A    
C24   C28   A    
C189  C190  A    
C347  H257  S    
C161  H35   S    
O4    Zn14  S    
C266  H141  S    
C12   C24   A    
C137  C241  S    
C177  H63   S    
C297  C298  A    
C160  H32   S    
C279  H180  S    
C229  C234  A    
C362  C363  A    
C170  H57   S    
C171  C172  A    
C70   C108  S    
C331  H231  S    
C90   C135  S    
C379  C380  A    
C352  C353  A    
C91   C134  S    
C201  H83   S    
O1    Zn11  S    
C164  H43   S    
C26   C330  S    
C381  H285  S    
C36   C48   A    
C144  C299  S    
C174  H61   S    
C383  C384  A    
C35   C41   A    
C154  H14   S    
C382  C383  A    
C247  C252  A    
C257  C258  A    
C64   O24   A    
C40   C44   A    
C126  C175  S    
C68   O28   A    
O23   Zn11  S    
C255  C256  A    
C273  H163  S    
C89   C105  A    
C134  C223  S    
C298  H199  S    
C71   O31   A    
C367  C372  A    
C300  H200  S    
C200  H82   S    
C72   O32   A    
C248  C249  A    
C25   C33   A    
C334  H241  S    
C244  H119  S    
C294  H195  S    
C173  H60   S    
C46   C343  S    
C224  H102  S    
C371  H277  S    
C73   O33   A    
C205  C206  A    
C17   C29   A    
C127  C181  S    
C290  C291  A    
C100  C116  A    
C107  C123  A    
C19   C31   A    
C341  C342  A    
C135  C275  S    
C336  H247  S    
C340  H251  S    
C254  H127  S    
C3    C152  S    
C351  C352  A    
C350  C351  A    
C117  C124  A    
C281  C282  A    
C334  H240  S    
C269  H151  S    
C225  H103  S    
C20   C32   A    
C170  C171  A    
C51   C373  S    
C5    C17   A    
O10   Zn16  S    
C60   O18   A    
C339  C340  A    
C280  H184  S    
C251  C252  A    
O24   Zn12  S    
C289  C290  A    
C190  C191  A    
C319  H216  S    
C253  C258  A    
C76   O36   A    
C109  C116  A    
C321  H218  S    
C234  H111  S    
O12   Zn14  S    
C78   C83   A    
C202  C203  A    
C8    C14   A    
C209  C210  A    
C2    O6    A    
C130  C270  S    
C211  C216  A    
C128  C268  S    
C117  C161  S    
C268  H148  S    
C64   C98   S    
C324  H220  S    
O26   Zn10  S    
C370  C371  A    
O30   Zn14  S    
C271  H155  S    
C175  C180  A    
C359  C360  A    
C208  H89   S    
C265  H138  S    
O48   Zn6   S    
C357  H265  S    
O51   Zn5   S    
C58   O16   A    
C87   C90   A    
O22   Zn10  S    
C69   O47   A    
C129  C193  S    
C178  C179  A    
C148  C152  A    
C252  H126  S    
C227  C228  A    
C15   C41   A    
C124  C168  S    
C155  H17   S    
C331  H233  S    
C380  C381  A    
C53   C57   S    
C263  C264  A    
C315  C316  A    
C22   H6    S    
O46   Zn8   S    
C303  C304  A    
C245  C246  A    
C68   O42   A    
C382  H286  S    
C94   C110  A    
C378  H283  S    
C307  C308  A    
C74   O52   A    
C83   C99   A    
O15   Zn3   S    
C37   C43   A    
C48   C54   A    
C293  C294  A    
C38   C44   A    
C167  H51   S    
C159  H29   S    
C37   C49   A    
C2    O8    A    
O3    Zn13  S    
C195  C196  A    
C248  H122  S    
C46   C54   A    
C158  H24   S    
C143  C293  S    
C8    C20   A    
C186  H71   S    
C90   C106  A    
C345  C346  A    
C337  C342  A    
C62   C100  S    
C377  H282  S    
C112  C156  S    
O2    Zn12  S    
C182  H67   S    
C232  H109  S    
C157  H22   S    
C357  C358  A    
C235  C236  A    
C128  C187  S    
C166  H49   S    
C230  H107  S    
C13   C43   A    
C287  C288  A    
C294  C295  A    
C66   C96   S    
C330  H228  S    
C336  H246  S    
O4    Zn6   S    
C84   C125  S    
C306  H205  S    
O44   Zn4   S    
C185  H70   S    
C75   O49   A    
C69   C105  S    
C237  H113  S    
C28   C332  S    
C52   C379  S    
O18   Zn6   S    
C181  C186  A    
O8    Zn10  S    
C223  C224  A    
C212  C213  A    
C277  H175  S    
C226  C227  A    
C171  H58   S    
C60   O20   A    
O27   Zn9   S    
C243  H118  S    
C61   O21   A    
C375  H280  S    
C33   C41   A    
O34   Zn14  S    
C59   O19   A    
C62   O40   A    
C363  C364  A    
C153  H10   S    
C250  H124  S    
C280  H183  S    
C130  C199  S    
C320  C321  A    
C161  H33   S    
C295  H196  S    
C77   C93   A    
C240  H116  S    
C111  C114  A    
C118  C123  A    
C251  H125  S    
C365  C366  A    
C88   C137  S    
C332  H235  S    
C185  C186  A    
C56   C60   S    
C49   C361  S    
C261  C262  A    
C28   C36   A    
C133  C140  S    
C269  H150  S    
C323  C324  A    
C22   C26   A    
C271  H157  S    
C29   C37   A    
C369  H275  S    
C335  H244  S    
C236  H112  S    
C136  C137  S    
C8    C142  A    
O14   Zn2   S    
C258  H131  S    
C220  H99   S    
C110  C115  A    
C305  C310  A    
C104  C120  A    
C75   O35   A    
C140  C280  S    
C135  C138  S    
C1    C150  S    
C374  H279  S    
C173  C174  A    
C245  H120  S    
C229  C230  A    
C183  H68   S    
C142  C150  A    
C250  C251  A    
C3    O11   A    
C220  C221  A    
C238  C239  A    
C141  C149  A    
C379  C384  A    
C197  C198  A    
C79   C95   A    
C96   C112  A    
C274  H164  S    
C153  H9    S    
C176  C177  A    
C126  C131  S    
C291  C292  A    
C189  H73   S    
C217  C218  A    
C160  H30   S    
C167  H53   S    
C329  H226  S    
C216  H96   S    
C188  H72   S    
C32   C336  S    
C62   O22   A    
C70   O48   A    
C255  H128  S    
C249  H123  S    
C155  H16   S    
C340  C341  A    
C163  H39   S    
C272  H158  S    
C12   C146  A    
C355  C356  A    
O7    Zn9   S    
C197  H80   S    
C123  C167  S    
C168  H55   S    
C215  C216  A    
O32   Zn16  S    
C26   C34   A    
O41   Zn3   S    
C356  C357  A    
C371  C372  A    
C115  C159  S    
C261  H133  S    
C63   C99   S    
C283  C284  A    
O9    Zn15  S    
C328  H224  S    
C18   C30   A    
C138  C278  S    
C23   C27   A    
C80   C96   A    
C162  H36   S    
C169  C174  A    
C204  H86   S    
O37   Zn3   S    
C284  H187  S    
C330  H230  S    
C47   C349  S    
O4    Zn8   S    
C2    C149  S    
C306  C307  A    
C141  C281  S    
C286  H189  S    
C57   O15   A    
C203  H85   S    
C376  H281  S    
C368  C369  A    
C263  H135  S    
C381  C382  A    
C270  H154  S    
C17   H1    S    
C199  C204  A    
C242  H117  S    
C27   C331  S    
C339  H250  S    
C6    C18   A    
C65   O25   A    
C158  H25   S    
C140  C259  S    
C289  H191  S    
O11   Zn13  S    
C59   O17   A    
C311  C312  A    
C266  H140  S    
C267  H143  S    
C69   O29   A    
C321  C322  A    
C159  H28   S    
C313  C314  A    
C11   C145  A    
C312  H210  S    
C39   C43   A    
C242  C243  A    
C259  C264  A    
C166  H48   S    
C40   C52   A    
C296  H197  S    
C9    C147  A    
C209  H90   S    
C342  H253  S    
C133  C273  S    
C156  H19   S    
C77   C132  S    
C214  H94   S    
C184  C185  A    
C159  H27   S    
C333  H239  S    
C327  C328  A    
C236  C237  A    
C120  C164  S    
C1    O5    A    
C233  C234  A    
C285  C286  A    
C280  H182  S    
C288  C289  A    
C165  H47   S    
C105  C121  A    
C368  H274  S    
O4    Zn16  S    
C233  H110  S    
C139  C279  S    
C278  H178  S    
C145  C151  A    
C366  H273  S    
C146  C152  A    
O28   Zn12  S    
C175  C176  A    
C364  H271  S    
C194  C195  A    
C139  C253  S    
C165  H46   S    
C373  C378  A    
C57   O13   A    
O20   Zn8   S    
C97   C113  A    
C16   C42   A    
C187  C192  A    
C85   C101  A    
C179  C180  A    
C239  C240  A    
C192  H76   S    
C119  C122  A    
C303  H203  S    
C232  C233  A    
C4    C151  S    
O1    Zn1   S    
C318  H215  S    
C274  H166  S    
O31   Zn15  S    
C20   H4    S    
C346  H256  S    
C21   H5    S    
C103  C119  A    
C341  H252  S    
C293  C298  A    
C80   C81   A    
C102  C118  A    
C311  C316  A    
C71   O45   A    
C125  C169  S    
C373  C374  A    
C24   H8    S    
C356  H264  S    
C38   C50   A    
C333  H238  S    
C30   C334  S    
C207  C208  A    
O50   Zn6   S    
C326  C327  A    
C307  H206  S    
C276  H172  S    
C136  C235  S    
C221  H100  S    
C163  H40   S    
C349  C354  A    
C127  C130  S    
C181  C182  A    
C345  H255  S    
C278  H177  S    
C95   C111  A    
C337  C338  A    
C188  C189  A    
C172  H59   S    
C125  C132  S    
C283  H186  S    
C302  C303  A    
C335  H243  S    
C81   C97   A    
C262  H134  S    
C156  H18   S    
C246  H121  S    
C317  C322  A    
C325  C326  A    
C268  H147  S    
C260  C261  A    
C31   C39   A    
C256  C257  A    
C359  H267  S    
C32   C40   A    
C267  H145  S    
C183  C184  A    
C162  H38   S    
C155  H15   S    
C82   C127  S    
O39   Zn1   S    
C314  C315  A    
C352  H261  S    
C343  C344  A    
C376  C377  A    
C93   C109  A    
C310  H209  S    
C301  H201  S    
C244  C245  A    
C344  C345  A    
C273  H161  S    
O29   Zn13  S    
C276  H170  S    
C52   C56   A    
C218  H97   S    
C164  H42   S    
