data_mof_unit_12445.cif
_audit_creation_date              2012-12-11T14:17:54-0500
_audit_creation_method            fapswitch 2.2
_symmetry_space_group_name_H-M    P1
_symmetry_Int_Tables_number       1
_space_group_crystal_system       triclinic
_cell_length_a                    11.094685
_cell_length_b                    11.113435
_cell_length_c                    18.863901
_cell_angle_alpha                 89.815154
_cell_angle_beta                  89.967355
_cell_angle_gamma                 120.278813
_cell_volume                      2008.60594656

loop_
_atom_site_label
_atom_site_type_symbol
_atom_type_description
_atom_site_fract_x
_atom_site_fract_y
_atom_site_fract_z
_atom_type_partial_charge
C1    C     C_R   0.521142 0.452864 0.145474 0.629979
C2    C     C_R   0.936473 0.389537 0.545945 0.202841
C3    C     C_R   0.439875 0.022991 0.541653 0.208521
C4    C     C_R   0.607846 0.541924 0.545937 0.198824
C5    C     C_R   0.692977 0.896659 0.534479 0.273701
C6    C     C_R   0.061399 0.772513 0.544142 0.283259
C7    C     C_R   0.219942 0.282510 0.548965 0.273864
C8    C     C_R   0.146063 0.739345 0.409017 0.255641
C9    C     C_R   0.586786 0.838971 0.395849 0.266152
C10   C     C_R   0.254745 0.393737 0.411866 0.261960
C11   C     C_R   0.756631 0.859069 0.481286 -0.135880
C12   C     C_R   0.546729 0.067476 0.145683 0.691532
C13   C     C_R   0.109055 0.879543 0.493000 -0.167226
C14   C     C_R   0.109242 0.228821 0.501063 -0.071816
C15   C     C_R   0.157012 0.865705 0.427589 -0.139061
C16   C     C_R   0.700831 0.824853 0.413729 -0.135410
C17   C     C_R   0.125445 0.284666 0.433718 -0.159596
C18   C     C_R   0.520827 0.455789 0.354565 0.657891
C19   C     C_R   0.541366 0.060179 0.352439 0.661970
C20   C     C_R   0.934249 0.478001 0.354615 0.655151
C21   C     C_R   0.451997 0.516187 0.645506 0.529429
C22   C     C_R   0.064980 0.548041 0.645268 0.538310
C23   C     C_R   0.932673 0.479481 0.145818 0.613436
C24   C     C_R   0.461184 0.886074 0.637934 0.577380
C25   C     C_R   0.488968 0.997310 0.923717 0.007875
C26   C     C_R   0.005738 0.490354 0.924600 0.075226
C27   C     C_R   0.507509 0.512974 0.924130 -0.018485
C28   C     C_R   0.975795 0.496712 0.071366 0.029035
C29   C     C_R   0.522025 0.025461 0.070958 0.062762
C30   C     C_R   0.504147 0.477905 0.070867 0.040438
C31   C     C_R   0.369159 0.955027 0.968437 -0.059812
C32   C     C_R   0.050492 0.416284 0.969891 -0.024629
C33   C     C_R   0.586792 0.632330 0.968634 -0.086626
C34   C     C_R   0.457961 0.523302 0.853580 0.586491
C35   C     C_R   0.055154 0.440240 0.044063 -0.083483
C36   C     C_R   0.386059 0.949755 0.042771 -0.022682
C37   C     C_R   0.562314 0.613751 0.042857 -0.065990
C38   C     C_R   0.638793 0.092445 0.025000 0.211538
C39   C     C_R   0.904417 0.539202 0.024838 0.216907
C40   C     C_R   0.456897 0.362426 0.024972 0.213932
C41   C     C_R   0.920698 0.536102 0.951619 0.223227
C42   C     C_R   0.621560 0.075163 0.951886 0.180059
C43   C     C_R   0.455846 0.380587 0.951741 0.195036
C44   C     C_R   0.237340 0.931502 0.943434 0.262995
C45   C     C_R   0.065606 0.541703 0.853755 0.604015
C46   C     C_R   0.074907 0.308142 0.946159 0.266682
C47   C     C_R   0.697256 0.766210 0.944732 0.252006
C48   C     C_R   0.123746 0.390665 0.089053 0.246459
C49   C     C_R   0.266697 0.880976 0.087035 0.249458
C50   C     C_R   0.612451 0.732621 0.087296 0.255580
C51   C     C_R   0.123314 0.879217 0.990220 -0.168144
C52   C     C_R   0.120946 0.243922 0.994747 -0.184058
C53   C     C_R   0.761835 0.875860 0.992808 -0.146556
C54   C     C_R   0.148280 0.287374 0.064625 -0.096312
C55   C     C_R   0.136894 0.850535 0.060332 -0.166429
C56   C     C_R   0.477607 0.936188 0.853192 0.606368
C57   C     C_R   0.717325 0.860531 0.062545 -0.104027
C58   C     C_R   0.494362 0.941744 0.565532 0.042796
C59   C     C_R   0.008793 0.524957 0.573149 0.003776
C60   C     C_R   0.473237 0.478637 0.574048 -0.050127
C61   C     C_R   0.987455 0.489575 0.426633 0.036724
C62   C     C_R   0.496132 0.994743 0.421324 0.039155
C63   C     C_R   0.506687 0.491973 0.427310 0.035431
C64   C     C_R   0.572737 0.907254 0.517249 -0.064489
C65   C     C_R   0.051902 0.642466 0.526088 -0.032069
C66   C     C_R   0.354396 0.398386 0.528323 -0.080712
C67   C     C_R   0.455977 0.062857 0.470530 0.182811
C68   C     C_R   0.070953 0.623110 0.454341 -0.037464
C69   C     C_R   0.541562 0.904150 0.444696 -0.030530
C70   C     C_R   0.372258 0.434781 0.456002 -0.015933
C71   C     C_R   0.915930 0.372674 0.472545 0.239292
C72   C     C_R   0.623847 0.539711 0.472380 0.228583
Cr1   Cr    Cr6+3 0.768550 0.541320 0.250660 1.084463
Cr2   Cr    Cr6+3 0.458680 0.227230 0.250660 1.100174
Cr3   Cr    Cr6+3 0.772770 0.231450 0.250660 1.110185
Cr4   Cr    Cr6+3 0.541320 0.768550 0.749340 1.117011
Cr5   Cr    Cr6+3 0.227230 0.458680 0.749340 1.127712
Cr6   Cr    Cr6+3 0.231450 0.772770 0.749340 1.129013
H1    H     H_    0.023660 0.863388 0.972475 0.137132
H2    H     H_    0.198773 0.952216 0.390598 0.153005
H3    H     H_    0.749121 0.791130 0.374791 0.154593
H4    H     H_    0.037679 0.240884 0.397792 0.156197
H5    H     H_    0.838813 0.174838 0.021000 0.333323
H6    H     H_    0.827299 0.659862 0.021204 0.324600
H7    H     H_    0.332841 0.163651 0.023439 0.326067
H8    H     H_    0.750469 0.524737 0.923905 0.333292
H9    H     H_    0.776649 0.087285 0.903339 0.360995
H10   H     H_    0.453546 0.215692 0.921937 0.357475
H11   H     H_    0.129445 0.959692 0.869972 0.336055
H12   H     H_    0.134017 0.157999 0.978374 0.125346
H13   H     H_    0.054158 0.174847 0.872855 0.334521
H14   H     H_    0.749968 0.702947 0.860928 0.368689
H15   H     H_    0.186180 0.536502 0.158981 0.333577
H16   H     H_    0.185609 0.796591 0.178566 0.328820
H17   H     H_    0.464778 0.649602 0.156979 0.342133
H18   H     H_    0.465080 0.238229 0.488409 0.330990
H19   H     H_    0.778884 0.173920 0.482248 0.366856
H20   H     H_    0.824878 0.623027 0.479220 0.365783
H21   H     H_    0.864889 0.299134 0.637569 0.357260
H22   H     H_    0.312423 0.084808 0.562546 0.330846
H23   H     H_    0.850598 0.973740 0.976199 0.120683
H24   H     H_    0.698017 0.559329 0.637173 0.352435
H25   H     H_    0.844273 0.933024 0.599885 0.337169
H26   H     H_    0.027066 0.884583 0.611545 0.332045
H27   H     H_    0.283315 0.218733 0.628944 0.364898
H28   H     H_    0.244086 0.813955 0.319607 0.339531
H29   H     H_    0.570098 0.757556 0.302613 0.354890
H30   H     H_    0.178340 0.416947 0.323156 0.349799
H31   H     H_    0.187623 0.239220 0.100513 0.186468
H32   H     H_    0.046700 0.809012 0.094777 0.158285
H33   H     H_    0.766018 0.948542 0.098080 0.182563
H34   H     H_    0.850113 0.855468 0.492416 0.137334
H35   H     H_    0.107902 0.974377 0.503679 0.112621
H36   H     H_    0.009296 0.140740 0.516053 0.177521
O1    O     O_R   0.910960 0.572410 0.171010 -0.503856
O2    O     O_R   0.528530 0.639750 0.824400 -0.502583
O3    O     O_R   0.111220 0.471470 0.824400 -0.452744
O4    O     O_R   0.360250 0.888780 0.824400 -0.448905
O5    O     O_R   0.909330 0.572400 0.331540 -0.470945
O6    O     O_R   0.427600 0.336930 0.331540 -0.463749
O7    O     O_R   0.663070 0.090670 0.331540 -0.465549
O8    O     O_R   0.572400 0.909330 0.668460 -0.419025
O9    O     O_R   0.336930 0.427600 0.668460 -0.482061
O10   O     O_R   0.090670 0.663070 0.668460 -0.449559
O11   O     O_R   0.638240 0.528520 0.324410 -0.481651
O12   O     O_R   0.427590 0.338550 0.171010 -0.474443
O13   O     O_R   0.471480 0.109720 0.324410 -0.481995
O14   O     O_R   0.890280 0.361760 0.324410 -0.480846
O15   O     O_R   0.528520 0.638240 0.675590 -0.488012
O16   O     O_R   0.109720 0.471480 0.675590 -0.480554
O17   O     O_R   0.361760 0.890280 0.675590 -0.433295
O18   O     O_3   0.666667 0.333333 0.250630 -0.305995
O19   O     O_3   0.333333 0.666667 0.749370 -0.351421
O20   O     O_3   0.769629 0.177344 0.052796 -0.679099
O21   O     O_3   0.818742 0.584005 0.052021 -0.693049
O22   O     O_3   0.410696 0.231748 0.052960 -0.699591
O23   O     O_R   0.661450 0.089040 0.171010 -0.472288
O24   O     O_3   0.846288 0.567805 0.904763 -0.703261
O25   O     O_3   0.733362 0.145972 0.906991 -0.644314
O26   O     O_3   0.411955 0.271062 0.905450 -0.648645
O27   O     O_3   0.226935 0.982064 0.878054 -0.623189
O28   O     O_3   0.030721 0.249116 0.880041 -0.633769
O29   O     O_3   0.762031 0.791143 0.879554 -0.662767
O30   O     O_3   0.167176 0.439357 0.156828 -0.688426
O31   O     O_3   0.278780 0.843841 0.155567 -0.694858
O32   O     O_3   0.562409 0.727979 0.154771 -0.677075
O33   O     O_3   0.437954 0.171420 0.448812 -0.696388
O34   O     O_R   0.572410 0.910960 0.828990 -0.468141
O35   O     O_3   0.824194 0.243806 0.444188 -0.686599
O36   O     O_3   0.752556 0.581219 0.442744 -0.688509
O37   O     O_3   0.878375 0.272924 0.589339 -0.660508
O38   O     O_3   0.380745 0.071278 0.589239 -0.680965
O39   O     O_3   0.724481 0.599286 0.588816 -0.665591
O40   O     O_3   0.763965 0.948530 0.597211 -0.601880
O41   O     O_3   0.000021 0.785595 0.605068 -0.611200
O42   O     O_3   0.194082 0.204878 0.610211 -0.673291
O43   O     O_3   0.196372 0.723111 0.344820 -0.649584
O44   O     O_3   0.526204 0.802039 0.329525 -0.629890
O45   O     O_R   0.338550 0.427590 0.828990 -0.434955
O46   O     O_3   0.270412 0.458190 0.346880 -0.639647
O47   O     O_R   0.089040 0.661450 0.828990 -0.466005
O48   O     O_R   0.639750 0.528530 0.175600 -0.450675
O49   O     O_R   0.471470 0.111220 0.175600 -0.452806
O50   O     O_R   0.888780 0.360250 0.175600 -0.445159

loop_
_geom_bond_atom_site_label_1
_geom_bond_atom_site_label_2
_ccdc_geom_bond_type
C25   C31   A    
H6    O21   S    
C26   C32   A    
Cr1   O5    S    
Cr2   O18   S    
C12   C29   S    
C57   H33   S    
C52   H12   S    
C61   C68   A    
C25   C56   S    
C39   C41   A    
C39   O21   S    
C27   C33   A    
C48   C54   A    
C40   O22   S    
C29   C36   A    
C3    O38   S    
C62   C67   A    
C9    O44   S    
C1    C30   S    
Cr6   O4    S    
C9    C16   A    
C9    C69   A    
C20   O14   A    
Cr5   O3    S    
C31   C36   A    
C18   O11   A    
Cr2   O49   S    
H11   O27   S    
C18   C63   S    
C35   C48   A    
C19   C62   S    
C34   O2    A    
C5    O40   S    
C46   C52   A    
C48   O30   S    
Cr3   O14   S    
C11   C16   A    
C20   C61   S    
H14   O29   S    
C45   O47   A    
H10   O26   S    
H5    O20   S    
C26   C45   S    
C7    C14   A    
C7    O42   S    
C15   H2    S    
C28   C35   A    
C53   H23   S    
C44   O27   S    
C29   C38   A    
Cr6   O10   S    
C54   H31   S    
C6    O41   S    
C47   C53   A    
H13   O28   S    
C34   O45   A    
C50   O32   S    
H16   O31   S    
C4    O39   S    
C11   H34   S    
Cr1   O18   S    
C60   C66   A    
C22   O16   A    
C14   C17   A    
H17   O32   S    
Cr5   O19   S    
C8    O43   S    
C52   C54   A    
C10   O46   S    
C6    C65   A    
C27   C34   S    
C58   C64   A    
C31   C44   A    
C30   C40   A    
C32   C35   A    
C1    O12   A    
C21   C60   S    
C46   O28   S    
Cr3   O23   S    
C22   C59   S    
C53   C57   A    
C2    C59   A    
C28   C39   A    
C49   C55   A    
H21   O37   S    
H22   O38   S    
C62   C69   A    
Cr3   O50   S    
C56   O34   A    
Cr6   O17   S    
Cr1   O48   S    
Cr5   O9    S    
Cr4   O15   S    
H25   O40   S    
Cr2   O13   S    
C63   C70   A    
C17   H4    S    
C65   C68   A    
C21   O15   A    
C4    C60   A    
C24   O8    A    
C49   O31   S    
C43   O26   S    
C64   C69   A    
C22   O10   A    
H24   O39   S    
Cr4   O34   S    
C41   O24   S    
H15   O30   S    
Cr5   O45   S    
C10   C70   A    
C44   C51   A    
C1    O48   A    
C8    C68   A    
C8    C15   A    
C72   O36   S    
C13   C15   A    
C55   H32   S    
C67   O33   S    
C33   C47   A    
C23   C28   S    
C2    C71   A    
C18   O6    A    
C4    C72   A    
H29   O44   S    
Cr3   O18   S    
C33   C37   A    
C23   O50   A    
H20   O36   S    
C45   O3    A    
C2    O37   S    
H18   O33   S    
C19   O7    A    
C42   O25   S    
Cr3   O7    S    
C50   C57   A    
C32   C46   A    
C3    C67   A    
C47   O29   S    
H9    O25   S    
C25   C42   A    
Cr4   O19   S    
C5    C11   A    
H30   O46   S    
H28   O43   S    
Cr2   O6    S    
C66   C70   A    
Cr1   O1    S    
C5    C64   A    
Cr4   O8    S    
C40   C43   A    
C14   H36   S    
C59   C65   A    
C6    C13   A    
C56   O4    A    
C37   C50   A    
C24   O17   A    
C61   C71   A    
C71   O35   S    
Cr2   O12   S    
Cr1   O11   S    
C19   O13   A    
C16   H3    S    
Cr4   O2    S    
C51   C55   A    
Cr5   O16   S    
C38   O20   S    
H26   O41   S    
Cr6   O19   S    
C51   H1    S    
C12   O49   A    
C38   C42   A    
H8    O24   S    
H7    O22   S    
C23   O1    A    
C3    C58   A    
C27   C43   A    
H27   O42   S    
C63   C72   A    
C30   C37   A    
Cr6   O47   S    
C24   C58   S    
H19   O35   S    
C12   O23   A    
C21   O9    A    
C10   C17   A    
C20   O5    A    
C13   H35   S    
C36   C49   A    
C26   C41   A    
C7    C66   A    
