data_mof_unit_14296.cif
_audit_creation_date              2012-12-11T15:41:18-0500
_audit_creation_method            fapswitch 2.2
_symmetry_space_group_name_H-M    P1
_symmetry_Int_Tables_number       1
_space_group_crystal_system       triclinic
_cell_length_a                    14.930144
_cell_length_b                    14.861295
_cell_length_c                    14.932508
_cell_angle_alpha                 109.104568
_cell_angle_beta                  110.107475
_cell_angle_gamma                 108.633999
_cell_volume                      2567.91414317

loop_
_atom_site_label
_atom_site_type_symbol
_atom_type_description
_atom_site_fract_x
_atom_site_fract_y
_atom_site_fract_z
_atom_type_partial_charge
C1    C     C_R   0.194366 0.992467 0.900926 0.643427
C2    C     C_R   0.757617 0.941168 0.035082 0.666175
C3    C     C_R   0.808414 0.327358 0.326154 0.140533
C4    C     C_R   0.131290 0.702312 0.704797 0.078476
C5    C     C_R   0.496331 0.927172 0.298209 -0.113335
C6    C     C_R   0.494047 0.955321 0.668782 -0.117591
C7    C     C_R   0.493833 0.324970 0.042519 0.065171
C8    C     C_R   0.506529 0.705528 0.078580 0.017773
C9    C     C_R   0.137633 0.233683 0.796991 0.517957
C10   C     C_R   0.869695 0.892542 0.365093 0.481482
C11   C     C_R   0.245929 0.314611 0.873220 -0.429409
C12   C     C_R   0.764127 0.808487 0.320718 -0.373154
C13   C     C_R   0.286337 0.350416 0.984777 0.012202
C14   C     C_R   0.719633 0.710544 0.225400 -0.017531
C15   C     C_R   0.217012 0.309385 0.021691 -0.435574
C16   C     C_R   0.785600 0.692697 0.181408 -0.280218
C17   C     C_R   0.104825 0.233831 0.946542 0.489734
C18   C     C_R   0.894306 0.772019 0.230655 0.528082
C19   C     C_R   0.065784 0.197218 0.833786 0.426132
C20   C     C_R   0.935766 0.875096 0.320034 0.347305
C21   C     C_R   0.409942 0.543589 0.086888 -0.238065
C22   C     C_R   0.594395 0.523291 0.164942 -0.248311
C23   C     C_R   0.772669 0.223883 0.314946 -0.181536
C24   C     C_R   0.193309 0.793969 0.704543 -0.033161
C25   C     C_R   0.510462 0.629528 0.122151 0.033458
C26   C     C_R   0.493047 0.428591 0.092733 0.026677
C27   C     C_R   0.606268 0.623227 0.174053 0.132713
C28   C     C_R   0.398285 0.440458 0.062217 0.143883
C29   C     C_R   0.893348 0.530406 0.429717 0.744373
C30   C     C_R   0.969270 0.524000 0.625016 0.776807
C31   C     C_R   0.969449 0.625636 0.527396 -0.382380
C32   C     C_R   0.895442 0.428441 0.527231 -0.419805
C33   C     C_R   0.018128 0.620571 0.622904 -0.133083
C34   C     C_R   0.866301 0.429871 0.428172 -0.135082
C35   C     C_R   0.587789 0.926507 0.561534 -0.198473
C36   C     C_R   0.392370 0.838653 0.370543 -0.193070
C37   C     C_R   0.587986 0.914312 0.465346 -0.174184
C38   C     C_R   0.391563 0.845406 0.464528 -0.151551
C39   C     C_R   0.492250 0.887673 0.375503 0.164609
C40   C     C_R   0.490614 0.905456 0.564203 0.174061
C41   C     C_R   0.968003 0.837608 0.939747 -0.179906
C42   C     C_R   0.873631 0.941099 0.846214 -0.097504
C43   C     C_R   0.883910 0.848163 0.952206 -0.156141
C44   C     C_R   0.958362 0.931058 0.834246 -0.087583
C45   C     C_R   0.407401 0.900976 0.205192 -0.222683
C46   C     C_R   0.587146 0.032524 0.771416 -0.227362
C47   C     C_R   0.846609 0.912722 0.917679 0.136337
C48   C     C_R   0.014952 0.892193 0.893476 0.137385
C49   C     C_R   0.586916 0.314888 0.054720 -0.117562
C50   C     C_R   0.413033 0.703164 0.009990 -0.116916
C51   C     C_R   0.587406 0.996443 0.301705 0.597443
C52   C     C_R   0.405833 0.942234 0.684494 0.610598
C53   C     C_R   0.405383 0.220850 0.972101 -0.143421
C54   C     C_R   0.593541 0.795947 0.101567 -0.027600
C55   C     C_R   0.774233 0.314438 0.222280 -0.104485
C56   C     C_R   0.198170 0.701413 0.794429 -0.101496
C57   C     C_R   0.196677 0.903978 0.995092 -0.231677
C58   C     C_R   0.764963 0.038155 0.949351 -0.247071
C59   C     C_R   0.130290 0.928767 0.928230 -0.084705
C60   C     C_R   0.790640 0.960152 0.964163 -0.095219
H1    H     H_    0.299210 0.349130 0.845381 0.183259
H2    H     H_    0.714654 0.821794 0.356784 0.183674
H3    H     H_    0.250827 0.338058 0.108566 0.172963
H4    H     H_    0.753229 0.615803 0.109812 0.167473
H5    H     H_    0.336491 0.550357 0.059362 0.134841
H6    H     H_    0.667353 0.518412 0.203237 0.197617
H7    H     H_    0.997365 0.700817 0.524666 0.180845
H8    H     H_    0.867065 0.353702 0.530287 0.172203
H9    H     H_    0.664342 0.960246 0.634741 0.128464
H10   H     H_    0.315018 0.805717 0.298711 0.115734
H11   H     H_    0.665047 0.938918 0.466903 0.191670
H12   H     H_    0.312903 0.811866 0.458055 0.183499
H13   H     H_    0.002936 0.797465 0.977720 0.145235
H14   H     H_    0.837493 0.980597 0.808141 0.156468
H15   H     H_    0.799558 0.203636 0.377898 0.158232
H16   H     H_    0.161607 0.828666 0.657076 0.161862
H17   H     H_    0.856913 0.813609 0.997218 0.214595
H18   H     H_    0.985040 0.964125 0.788189 0.216735
H19   H     H_    0.323756 0.839767 0.168806 0.128875
H20   H     H_    0.668364 0.073010 0.785537 0.125249
H21   H     H_    0.668711 0.380221 0.094962 0.113948
H22   H     H_    0.329435 0.651520 0.984824 0.101728
H23   H     H_    0.320778 0.194683 0.945452 0.168906
H24   H     H_    0.676130 0.835209 0.165005 0.161321
H25   H     H_    0.801784 0.374896 0.199460 0.157797
H26   H     H_    0.176497 0.650234 0.828842 0.180345
H27   H     H_    0.172283 0.845318 0.021351 0.137489
H28   H     H_    0.793063 0.083480 0.912496 0.156487
N1    N     N_R   0.293810 0.002730 0.945950 -0.097796
N2    N     N_R   0.706190 0.997270 0.054050 -0.102805
N3    N     N_R   0.706160 0.152130 0.208910 -0.046671
N4    N     N_R   0.293840 0.847870 0.791090 -0.056712
N5    N     N_R   0.443140 0.945920 0.152090 -0.062109
N6    N     N_R   0.556860 0.054080 0.847910 -0.059663
N7    N     N_R   0.556830 0.208940 0.002760 -0.043900
N8    N     N_R   0.443170 0.791060 0.997240 -0.048358
N9    N     N_R   0.556790 0.002750 0.208910 -0.096334
N10   N     N_R   0.443210 0.997250 0.791090 -0.100404
N11   N     N_R   0.443180 0.152110 0.945950 -0.049724
N12   N     N_R   0.556820 0.847890 0.054050 -0.057283
N13   N     N_R   0.706170 0.208950 0.152090 -0.052923
N14   N     N_R   0.293830 0.791050 0.847910 -0.062214
N15   N     N_R   0.293800 0.945910 0.002760 -0.064453
N16   N     N_R   0.706200 0.054090 0.997240 -0.066988
Ni1   Ni    Ni4+2 0.369690 0.999990 0.869700 0.239772
Ni2   Ni    Ni4+2 0.630310 0.000010 0.130300 0.226257
Ni3   Ni    Ni4+2 0.369670 0.869670 0.000000 0.193943
Ni4   Ni    Ni4+2 0.630330 0.130330 0.000000 0.195499
F1    F     F_    0.157660 0.012515 0.817088 -0.789339
F2    F     F_    0.778331 0.882490 0.083886 -0.789778
O1    O     O_3   0.099034 0.196636 0.686469 -0.600284
C61   C     C_3   0.145165 0.132854 0.651001 -0.044189
H29   H     H_    0.107540 0.053147 0.647524 0.194816
H30   H     H_    0.235624 0.174522 0.702389 0.071622
H31   H     H_    0.127987 0.116972 0.567587 0.185740
O2    O     O_3   0.907687 0.990644 0.454531 -0.579008
C62   C     C_3   0.909972 0.069486 0.420993 -0.011190
H32   H     H_    0.836914 0.036842 0.340750 0.110999
H33   H     H_    0.985113 0.104773 0.417020 0.113771
H34   H     H_    0.912244 0.137326 0.483505 0.185009
O3    O     O_3   0.031346 0.189053 0.977381 -0.602513
C63   C     C_3   0.052854 0.264275 0.079382 -0.259089
H35   H     H_    0.978373 0.234811 0.085896 0.168940
H36   H     H_    0.072911 0.346569 0.087742 0.131310
H37   H     H_    0.118554 0.268516 0.147502 0.151681
O4    O     O_3   0.958234 0.749099 0.188406 -0.621962
C64   C     C_3   0.017960 0.712530 0.249084 -0.219028
H38   H     H_    0.962619 0.636437 0.242176 0.175583
H39   H     H_    0.073890 0.776547 0.336638 0.168160
H40   H     H_    0.069143 0.693627 0.215112 0.153770
F3    F     F_    0.852705 0.538297 0.338052 -0.767085
F4    F     F_    0.998612 0.518661 0.718907 -0.736590
O5    O     O_3   0.692185 0.056493 0.389128 -0.662730
C65   C     C_3   0.697146 0.142377 0.472021 -0.362718
H41   H     H_    0.644644 0.112861 0.504736 0.169172
H42   H     H_    0.673832 0.195497 0.442319 0.162114
H43   H     H_    0.782253 0.193293 0.541330 0.180023
O6    O     O_3   0.298221 0.893242 0.605123 -0.663383
C66   C     C_3   0.268325 0.974864 0.610000 -0.347790
H44   H     H_    0.319662 0.035017 0.595332 0.160634
H45   H     H_    0.272904 0.016870 0.689610 0.171875
H46   H     H_    0.182388 0.935804 0.544430 0.207590
O7    O     O_3   0.957135 0.122723 0.758221 -0.586831
C67   C     C_3   0.899075 0.180595 0.747663 -0.183327
H47   H     H_    0.933599 0.242640 0.725387 0.150733
H48   H     H_    0.896984 0.219675 0.823912 0.132793
H49   H     H_    0.813741 0.122361 0.680647 0.155455
O8    O     O_3   0.042964 0.955796 0.370606 -0.642989
C68   C     C_3   0.059334 0.992084 0.298222 -0.206968
H50   H     H_    0.988657 0.997792 0.247599 0.154103
H51   H     H_    0.078943 0.939408 0.244938 0.198377
H52   H     H_    0.130908 0.075215 0.347599 0.141932

loop_
_geom_bond_atom_site_label_1
_geom_bond_atom_site_label_2
_ccdc_geom_bond_type
C9    O1    S    
C38   C40   A    
C51   N9    A    
O4    C64   S    
C8    C50   A    
C51   O5    S    
C3    C23   A    
O1    C61   S    
C45   N5    A    
C65   H43   S    
C54   H24   S    
C37   H11   S    
C53   N11   A    
C31   H7    S    
N6    Ni4   S    
C7    C26   S    
C35   C37   A    
C1    C59   A    
C4    C24   A    
C66   H46   S    
N7    N11   A    
C57   C59   A    
N6    N10   A    
C58   C60   A    
O7    C67   S    
C11   C13   A    
O2    C62   S    
C49   H21   S    
C2    N2    A    
C22   H6    S    
C1    F1    S    
C47   C60   S    
C3    C55   A    
C9    C19   A    
C10   C20   A    
C52   O6    S    
C20   O8    S    
C13   C28   S    
C14   C27   S    
C18   C20   A    
N4    N14   A    
C32   H8    S    
N13   Ni4   S    
C4    C56   A    
C8    C25   S    
C41   C43   A    
N3    Ni2   S    
C54   N12   A    
C2    C60   A    
C42   C44   A    
N3    N13   A    
C67   H49   S    
C57   N15   A    
C24   N4    A    
C61   H30   S    
C61   H29   S    
C36   H10   S    
N11   Ni1   S    
C38   H12   S    
C42   H14   S    
C6    C40   S    
O8    C68   S    
N2    Ni2   S    
C67   H48   S    
O6    C66   S    
C68   H52   S    
C8    C54   A    
C62   H33   S    
C24   H16   S    
C65   H42   S    
C3    C34   S    
C5    C45   A    
C29   C34   A    
C57   H27   S    
C32   C34   A    
C55   H25   S    
C44   H18   S    
C64   H39   S    
C12   H2    S    
C56   H26   S    
C46   N6    A    
C29   C31   A    
N2    N16   A    
C31   C33   A    
N14   Ni3   S    
C45   H19   S    
C49   N7    A    
C9    C11   A    
C7    C49   A    
O3    C63   S    
C18   O4    S    
C10   C12   A    
N9    Ni2   S    
N10   Ni1   S    
C17   O3    S    
C21   C28   A    
C12   C14   A    
C22   C27   A    
C13   C15   A    
O5    C65   S    
C14   C16   A    
C62   H34   S    
C58   N16   A    
C7    C53   A    
C63   H36   S    
C64   H38   S    
N5    N9    A    
N16   Ni4   S    
C10   O2    S    
C50   H22   S    
C48   C59   S    
C15   C17   A    
C5    C39   S    
C21   C25   A    
C4    C33   S    
C2    F2    S    
C1    N1    A    
C6    C46   A    
C30   C33   A    
C21   H5    S    
N12   Ni2   S    
N8    Ni3   S    
C36   C39   A    
C23   H15   S    
C67   H47   S    
C11   H1    S    
C58   H28   S    
C66   H44   S    
C65   H41   S    
C43   H17   S    
C16   H4    S    
C55   N13   A    
C26   C28   A    
C53   H23   S    
C63   H37   S    
C68   H51   S    
C35   C40   A    
C64   H40   S    
C56   N14   A    
C37   C39   A    
C62   H32   S    
N5    Ni3   S    
C36   C38   A    
C30   C32   A    
C66   H45   S    
C50   N8    A    
C29   F3    S    
C30   F4    S    
N8    N12   A    
C52   N10   A    
C17   C19   A    
C41   C48   A    
C23   N3    A    
C42   C47   A    
C19   O7    S    
N7    Ni4   S    
C41   H13   S    
N4    Ni1   S    
C35   H9    S    
C16   C18   A    
C22   C26   A    
N1    Ni1   S    
C15   H3    S    
C5    C51   A    
N15   Ni3   S    
C46   H20   S    
C6    C52   A    
C63   H35   S    
C68   H50   S    
C43   C47   A    
C61   H31   S    
N1    N15   A    
C44   C48   A    
C25   C27   A    
