data_mof_unit_37024.cif
_audit_creation_date              2012-12-10T21:07:44-0500
_audit_creation_method            fapswitch 2.2
_symmetry_space_group_name_H-M    P1
_symmetry_Int_Tables_number       1
_space_group_crystal_system       triclinic
_cell_length_a                    8.584564
_cell_length_b                    17.540915
_cell_length_c                    16.818478
_cell_angle_alpha                 91.036394
_cell_angle_beta                  99.338648
_cell_angle_gamma                 91.109171
_cell_volume                      2497.93318332

loop_
_atom_site_label
_atom_site_type_symbol
_atom_type_description
_atom_site_fract_x
_atom_site_fract_y
_atom_site_fract_z
_atom_type_partial_charge
C1    C     C_R   0.498462 0.353214 0.499296 0.878768
C2    C     C_R   0.498414 0.646729 0.500442 0.876925
C3    C     C_1   0.435458 0.965418 0.493391 -0.064433
C4    C     C_1   0.436176 0.032983 0.491354 -0.062955
C5    C     C_R   0.380592 0.454605 0.820196 0.037965
C6    C     C_R   0.619701 0.545292 0.179844 0.037838
C7    C     C_R   0.389852 0.455794 0.736428 -0.079698
C8    C     C_R   0.611011 0.543724 0.263661 -0.079010
C9    C     C_R   0.604194 0.544940 0.760716 0.309051
C10   C     C_R   0.394087 0.456049 0.239115 0.307263
C11   C     C_R   0.604767 0.541106 0.844427 -0.300496
C12   C     C_R   0.392962 0.460392 0.155383 -0.297428
C13   C     C_R   0.492981 0.497193 0.875389 0.084394
C14   C     C_R   0.505939 0.503601 0.124536 0.083625
C15   C     C_1   0.496467 0.499008 0.963342 -0.051081
C16   C     C_1   0.502274 0.501914 0.036568 -0.051138
C17   C     C_R   0.200517 0.499870 0.478799 0.973027
C18   C     C_R   0.799484 0.500133 0.521201 0.974601
C19   C     C_2   0.035172 0.499910 0.467427 -0.388552
C20   C     C_2   0.964834 0.500106 0.532572 -0.390749
C21   C     C_R   0.410469 0.845255 0.563361 0.202184
C22   C     C_R   0.496149 0.150555 0.424542 0.203356
C23   C     C_R   0.430328 0.766575 0.564465 -0.241231
C24   C     C_R   0.515326 0.229674 0.428890 -0.242771
C25   C     C_R   0.484451 0.728973 0.500297 -0.061646
C26   C     C_R   0.485545 0.270593 0.496928 -0.064141
C27   C     C_R   0.517514 0.769809 0.434059 -0.208927
C28   C     C_R   0.437317 0.232429 0.561523 -0.207706
C29   C     C_R   0.497712 0.847823 0.432172 -0.213997
C30   C     C_R   0.418155 0.153919 0.557971 -0.213132
C31   C     C_R   0.444627 0.885272 0.496218 0.128948
C32   C     C_R   0.447005 0.113296 0.490035 0.128937
H1    H     H_    0.971904 0.499804 0.405871 0.172905
H2    H     H_    0.028105 0.500211 0.594128 0.172875
H3    H     H_    0.401708 0.734628 0.614836 0.155137
H4    H     H_    0.555661 0.259206 0.379789 0.158795
H5    H     H_    0.559023 0.741510 0.383915 0.158003
H6    H     H_    0.412970 0.263248 0.614414 0.158671
H7    H     H_    0.525223 0.879183 0.381049 0.147950
H8    H     H_    0.382019 0.124716 0.608508 0.147355
H9    H     H_    0.305856 0.422414 0.694122 0.137216
H10   H     H_    0.695946 0.576520 0.306050 0.137668
H11   H     H_    0.691120 0.574431 0.885794 0.156452
H12   H     H_    0.305317 0.427961 0.113860 0.157081
N1    N     N_R   0.500040 0.500030 0.707230 -0.117993
N2    N     N_R   0.499960 0.499970 0.292770 -0.118734
O1    O     O_R   0.500000 0.389130 0.566570 -0.621502
O2    O     O_R   0.500000 0.610870 0.433430 -0.621223
O3    O     O_R   0.499990 0.389100 0.433480 -0.631037
O4    O     O_R   0.500010 0.610900 0.566520 -0.630586
O5    O     O_R   0.271750 0.500010 0.550980 -0.615073
O6    O     O_R   0.728250 0.499990 0.449020 -0.614068
O7    O     O_R   0.271740 0.499980 0.417890 -0.650740
O8    O     O_R   0.728260 0.500020 0.582110 -0.650118
Zn1   Zn    Zn3+2 0.500010 0.500020 0.588860 0.923862
Zn2   Zn    Zn3+2 0.499990 0.499980 0.411140 0.924611
C33   C     C_3   0.354647 0.884814 0.633986 -0.432781
C34   C     C_3   0.493662 0.919817 0.692130 -0.860610
H13   H     H_    0.577341 0.874801 0.715381 0.261412
H14   H     H_    0.556867 0.963532 0.661704 0.263230
H15   H     H_    0.449831 0.947524 0.743854 0.246495
H16   H     H_    0.269445 0.929764 0.612432 0.208115
H17   H     H_    0.290969 0.843604 0.667416 0.201079
C35   C     C_3   0.530265 0.107591 0.350622 -0.435274
C36   C     C_3   0.695704 0.074857 0.365248 -0.857874
H18   H     H_    0.785679 0.121464 0.380534 0.260772
H19   H     H_    0.707583 0.033709 0.415151 0.263289
H20   H     H_    0.718219 0.044583 0.309794 0.245136
H21   H     H_    0.441086 0.060935 0.333378 0.206575
H22   H     H_    0.521302 0.146112 0.298332 0.202554
C37   C     C_3   0.249414 0.409343 0.848766 -0.427258
C38   C     C_3   0.119917 0.462265 0.868647 -0.326181
C39   C     C_3   0.989818 0.417787 0.900870 -0.887893
H23   H     H_    0.932559 0.375316 0.855030 0.264995
H24   H     H_    0.039420 0.388050 0.956770 0.257955
H25   H     H_    0.899049 0.457721 0.915249 0.253373
H26   H     H_    0.170722 0.505940 0.914753 0.228543
H27   H     H_    0.067170 0.492196 0.813335 0.214084
H28   H     H_    0.196131 0.367234 0.801386 0.191023
H29   H     H_    0.298658 0.376461 0.902635 0.208006
C40   C     C_3   0.751240 0.590302 0.151290 -0.427504
C41   C     C_3   0.879285 0.537097 0.130273 -0.325317
C42   C     C_3   0.009739 0.581468 0.098235 -0.888146
H30   H     H_    0.960085 0.612224 0.043001 0.258125
H31   H     H_    0.068626 0.623073 0.144614 0.264873
H32   H     H_    0.099180 0.541320 0.082747 0.253104
H33   H     H_    0.931941 0.506371 0.185055 0.213778
H34   H     H_    0.827206 0.494092 0.083706 0.228857
H35   H     H_    0.701963 0.623878 0.097945 0.207861
H36   H     H_    0.805913 0.631791 0.199001 0.191150
C43   C     C_3   0.719978 0.601092 0.733892 -0.387223
C44   C     C_3   0.686163 0.683221 0.756816 -0.909108
H37   H     H_    0.560071 0.695917 0.736289 0.267066
H38   H     H_    0.714425 0.692933 0.823030 0.253053
H39   H     H_    0.760206 0.723334 0.727771 0.252789
H40   H     H_    0.841899 0.586963 0.762106 0.176535
H41   H     H_    0.717307 0.599363 0.668889 0.265112
C45   C     C_3   0.276701 0.400662 0.265847 -0.380059
C46   C     C_3   0.302663 0.318645 0.239170 -0.924296
H42   H     H_    0.264611 0.310639 0.173207 0.254558
H43   H     H_    0.429192 0.304262 0.254544 0.262647
H44   H     H_    0.231967 0.278564 0.270171 0.255032
H45   H     H_    0.283964 0.400369 0.331139 0.265328
H46   H     H_    0.154929 0.417382 0.240228 0.177723

loop_
_geom_bond_atom_site_label_1
_geom_bond_atom_site_label_2
_ccdc_geom_bond_type
C9    N1    A    
C27   C29   A    
C39   H23   S    
C19   C20   D    
C17   O5    A    
C37   H28   S    
C40   C41   S    
C18   O6    A    
C33   H16   S    
C21   C31   A    
C24   H4    S    
C22   C32   A    
C7    N1    A    
C22   C24   A    
C24   C26   A    
C41   H34   S    
C34   H14   S    
C15   C16   T    
C45   C46   S    
C18   C20   S    
C10   C45   S    
C38   H27   S    
C2    O4    A    
C43   H40   S    
C42   H30   S    
C36   H19   S    
C45   H45   S    
C10   N2    A    
C11   H11   S    
C35   H22   S    
C5    C13   A    
C40   H35   S    
C34   H15   S    
C23   C25   A    
C6    C40   S    
C39   H24   S    
C9    C43   S    
C37   H29   S    
C33   H17   S    
C19   H1    S    
C43   C44   S    
C5    C7    A    
C1    O1    A    
C6    C8    A    
C2    O2    A    
C34   H13   S    
C44   H39   S    
C21   C33   S    
C38   H26   S    
C6    C14   A    
C46   H42   S    
C28   H6    S    
C36   H20   S    
C29   H7    S    
C44   H38   S    
C42   H32   S    
C30   H8    S    
C35   H21   S    
C43   H41   S    
C3    C31   S    
C9    C11   A    
C4    C32   S    
C10   C12   A    
C40   H36   S    
C42   H31   S    
C12   C14   A    
C41   C42   S    
C23   H3    S    
C13   C15   S    
C1    C26   S    
C39   H25   S    
C14   C16   S    
C3    C4    T    
C17   O7    A    
O1    Zn1   S    
O7    Zn2   S    
O2    Zn2   S    
O8    Zn1   S    
C46   H43   S    
C8    H10   S    
C38   C39   S    
C25   C27   A    
O3    Zn2   S    
C26   C28   A    
O4    Zn1   S    
C35   C36   S    
C21   C23   A    
C20   H2    S    
C37   C38   S    
C5    C37   S    
C30   C32   A    
C11   C13   A    
C33   C34   S    
C27   H5    S    
C45   H46   S    
C28   C30   A    
C44   H37   S    
C17   C19   S    
C2    C25   S    
O5    Zn1   S    
C7    H9    S    
C8    N2    A    
C18   O8    A    
C22   C35   S    
O6    Zn2   S    
C46   H44   S    
N1    Zn1   S    
C29   C31   A    
C36   H18   S    
N2    Zn2   S    
C12   H12   S    
C1    O3    A    
C41   H33   S    
