data_mof_unit_50406.cif
_audit_creation_date              2012-12-11T16:37:08-0500
_audit_creation_method            fapswitch 2.2
_symmetry_space_group_name_H-M    P1
_symmetry_Int_Tables_number       1
_space_group_crystal_system       triclinic
_cell_length_a                    19.01249
_cell_length_b                    18.936733
_cell_length_c                    20.516493
_cell_angle_alpha                 106.603023
_cell_angle_beta                  106.855951
_cell_angle_gamma                 111.432759
_cell_volume                      5910.22559638

loop_
_atom_site_label
_atom_site_type_symbol
_atom_type_description
_atom_site_fract_x
_atom_site_fract_y
_atom_site_fract_z
_atom_type_partial_charge
C1    C     C_R   0.083548 0.090277 0.355098 0.495576
C2    C     C_R   0.236844 0.075743 0.495371 -0.084094
C3    C     C_2   0.180187 0.407077 0.759225 0.493015
C4    C     C_2   0.208324 0.065079 0.823475 0.564438
C5    C     C_3   0.902277 0.174220 0.666817 0.147437
C6    C     C_3   0.910449 0.255579 0.719340 -0.273211
C7    C     C_3   0.980137 0.294027 0.799231 -0.929264
C8    C     C_R   0.154583 0.224728 0.707876 -0.098548
C9    C     C_R   0.753574 0.926293 0.480144 -0.253615
C10   C     C_R   0.008558 0.768708 0.443003 0.566001
C11   C     C_R   0.229897 0.273438 0.708409 0.080953
C12   C     C_R   0.962728 0.718667 0.469132 -0.109302
C13   C     C_R   0.239795 0.009122 0.448163 0.079453
C14   C     C_R   0.018962 0.975840 0.724015 0.068769
C15   C     C_R   0.851621 0.339815 0.427544 -0.150757
C16   C     C_R   0.871239 0.282885 0.447668 -0.174033
C17   C     C_R   0.742587 0.995203 0.504506 0.023638
C18   C     C_R   0.931233 0.265133 0.430734 0.142303
C19   C     C_R   0.959497 0.293358 0.382103 -0.175129
C20   C     C_R   0.939363 0.349703 0.361667 -0.169924
C21   C     C_R   0.834579 0.805315 0.280393 -0.066143
C22   C     C_R   0.891563 0.378615 0.390183 0.119599
C23   C     C_R   0.989035 0.529607 0.442475 -0.194682
C24   C     C_R   0.005619 0.612221 0.464985 -0.088037
C25   C     C_R   0.939485 0.630229 0.447594 0.039037
C26   C     C_R   0.854603 0.563855 0.405705 -0.046459
C27   C     C_R   0.838818 0.480331 0.385216 -0.161106
C28   C     C_R   0.753235 0.776377 0.274864 0.048131
C29   C     C_R   0.905805 0.463407 0.402865 0.064099
C30   C     C_R   0.516967 0.937922 0.447135 0.529754
C31   C     C_R   0.592348 0.936814 0.474290 -0.352740
C32   C     C_R   0.663810 0.995488 0.475767 0.060579
C33   C     C_R   0.954674 0.200779 0.523375 -0.178018
C34   C     C_R   0.658863 0.049796 0.442811 -0.318455
C35   C     C_R   0.582285 0.046294 0.408615 0.566816
C36   C     C_R   0.511799 0.993459 0.414198 -0.216790
C37   C     C_R   0.447764 0.084816 0.442570 0.448452
C38   C     C_R   0.376398 0.089163 0.443649 0.381016
C39   C     C_R   0.969719 0.224437 0.468744 0.026217
C40   C     C_R   0.301239 0.013268 0.416675 -0.108300
C41   C     C_R   0.290506 0.938227 0.365474 -0.264273
C42   C     C_R   0.358423 0.935693 0.354921 -0.174739
C43   C     C_R   0.438597 0.006353 0.399218 -0.056114
C44   C     C_R   0.291332 0.362826 0.759440 -0.030477
C45   C     C_R   0.760401 0.798552 0.347081 -0.161646
C46   C     C_R   0.268204 0.422830 0.790783 -0.032995
C47   C     C_R   0.331451 0.500711 0.851805 -0.232123
C48   C     C_R   0.416222 0.520790 0.877253 0.065921
C49   C     C_R   0.439437 0.467477 0.837159 0.559555
C50   C     C_R   0.230747 0.226666 0.644008 -0.101184
C51   C     C_R   0.376663 0.387248 0.780287 -0.327542
C52   C     C_R   0.584997 0.718636 0.088407 -0.267317
C53   C     C_R   0.658937 0.764799 0.155514 -0.069124
C54   C     C_R   0.523635 0.638652 0.073239 0.121520
C55   C     C_R   0.673039 0.730769 0.206998 0.127770
C56   C     C_R   0.609195 0.654892 0.195322 -0.391123
C57   C     C_R   0.028336 0.202585 0.456960 -0.127516
C58   C     C_R   0.532714 0.609212 0.129061 0.562245
C59   C     C_R   0.084512 0.031116 0.227019 0.163401
C60   C     C_R   0.135656 0.998509 0.209835 -0.194253
C61   C     C_R   0.928802 0.761650 0.503584 -0.244626
C62   C     C_R   0.149986 0.997182 0.146535 -0.182346
C63   C     C_R   0.113077 0.028994 0.100664 0.226505
C64   C     C_R   0.065298 0.064492 0.120462 -0.167900
C65   C     C_R   0.049276 0.063701 0.182005 -0.216702
C66   C     C_R   0.031171 0.897591 0.872364 -0.152141
C67   C     C_R   0.001865 0.904092 0.805274 -0.234002
C68   C     C_R   0.115025 0.951792 0.926439 0.245127
C69   C     C_R   0.821257 0.065262 0.546419 0.484819
C70   C     C_R   0.056414 0.963824 0.790667 0.152975
C71   C     C_R   0.144090 0.010541 0.840324 0.007872
C72   C     C_R   0.167812 0.936648 0.429422 -0.095341
C73   C     C_R   0.172008 0.005678 0.909323 -0.288551
C74   C     C_R   0.017795 0.950661 0.290679 -0.215445
C75   C     C_R   0.060725 0.025145 0.287416 -0.104519
C76   C     C_3   0.153253 0.214675 0.347427 0.122783
C77   C     C_3   0.206026 0.309446 0.399901 -0.271889
C78   C     C_3   0.206670 0.361190 0.354873 -1.007457
C79   C     C_2   0.057368 0.130707 0.782555 0.483752
C80   C     C_3   0.008677 0.723801 0.326859 0.144565
C81   C     C_3   0.935744 0.632440 0.285493 -0.319873
C82   C     C_3   0.905717 0.596015 0.199819 -0.949461
C83   C     C_R   0.029915 0.050832 0.718906 0.007413
C84   C     C_2   0.782750 0.579557 0.378974 0.470059
C85   C     C_3   0.438973 0.920497 0.514487 0.242181
C86   C     C_3   0.494083 0.918490 0.584496 -0.358399
C87   C     C_3   0.475682 0.950319 0.651383 -0.969546
C88   C     C_3   0.542038 0.056809 0.296914 0.202753
C89   C     C_3   0.609278 0.057058 0.269850 -0.330981
C90   C     C_3   0.571783 0.016590 0.183488 -0.983750
C91   C     C_3   0.571392 0.167733 0.553564 0.238240
C92   C     C_3   0.544602 0.205781 0.612153 -0.300623
C93   C     C_3   0.602682 0.225565 0.691748 -1.029531
C94   C     C_R   0.964758 0.911098 0.652355 -0.153668
C95   C     C_2   0.854140 0.778192 0.216111 0.517692
C96   C     C_3   0.344047 0.186648 0.419679 0.175941
C97   C     C_3   0.400711 0.218855 0.382872 -0.261252
C98   C     C_3   0.360118 0.245181 0.325304 -1.032284
C99   C     C_3   0.550842 0.494769 0.806612 0.173957
C100  C     C_3   0.595723 0.442865 0.796477 -0.248268
C101  C     C_3   0.629909 0.450737 0.738652 -1.015208
C102  C     C_3   0.447187 0.528794 0.170463 0.164916
C103  C     C_3   0.467369 0.470103 0.200957 -0.250701
C104  C     C_3   0.438987 0.465310 0.262689 -0.975975
H1    H     H_    0.879705 0.735602 0.520024 0.130348
H2    H     H_    0.969374 0.378444 0.331513 0.122580
H3    H     H_    0.966677 0.249161 0.824728 0.258537
H4    H     H_    0.983783 0.352761 0.835278 0.276987
H5    H     H_    0.041865 0.310158 0.797949 0.275633
H6    H     H_    0.041443 0.517447 0.458403 0.133865
H7    H     H_    0.070538 0.662567 0.496285 0.146726
H8    H     H_    0.774790 0.428212 0.354608 0.163451
H9    H     H_    0.595947 0.892568 0.497149 0.157926
H10   H     H_    0.714052 0.093277 0.441575 0.158710
H11   H     H_    0.231832 0.879631 0.337363 0.149100
H12   H     H_    0.350522 0.875752 0.319867 0.173574
H13   H     H_    0.706495 0.825633 0.166082 0.144783
H14   H     H_    0.577116 0.743399 0.046906 0.156220
H15   H     H_    0.144198 0.874815 0.386211 0.112118
H16   H     H_    0.395015 0.342385 0.755495 0.151585
H17   H     H_    0.620464 0.629764 0.236141 0.153061
H18   H     H_    0.315350 0.545369 0.881030 0.187430
H19   H     H_    0.916001 0.213365 0.548283 0.164245
H20   H     H_    0.935235 0.866088 0.766875 0.129333
H21   H     H_    0.986742 0.856383 0.885762 0.127747
H22   H     H_    0.035804 0.087991 0.084954 0.133285
H23   H     H_    0.007331 0.086345 0.193239 0.116879
H24   H     H_    0.187349 0.969370 0.132396 0.131252
H25   H     H_    0.237089 0.046669 0.951432 0.123640
H26   H     H_    0.942104 0.844782 0.636750 0.117874
H27   H     H_    0.162452 0.972424 0.244157 0.128762
H28   H     H_    0.709108 0.778933 0.361957 0.109790
H29   H     H_    0.053350 0.210923 0.417746 0.119011
H30   H     H_    0.009822 0.891520 0.255333 0.125262
H31   H     H_    0.273774 0.249951 0.620858 0.094678
H32   H     H_    0.088215 0.201128 0.313781 0.084091
H33   H     H_    0.181939 0.199116 0.309254 0.145015
H34   H     H_    0.179964 0.326791 0.440083 0.198219
H35   H     H_    0.271786 0.325613 0.433528 0.195663
H36   H     H_    0.233501 0.345787 0.314851 0.272215
H37   H     H_    0.276256 0.142260 0.514754 0.154692
H38   H     H_    0.245955 0.429531 0.394386 0.272604
H39   H     H_    0.141663 0.348012 0.322542 0.264854
H40   H     H_    0.037307 0.174234 0.771860 -0.021076
H41   H     H_    0.054222 0.727914 0.302358 0.138485
H42   H     H_    0.986886 0.768513 0.318252 0.059042
H43   H     H_    0.956675 0.591996 0.306144 0.229476
H44   H     H_    0.882025 0.630556 0.297621 0.174988
H45   H     H_    0.881878 0.633048 0.176364 0.271582
H46   H     H_    0.853724 0.529885 0.172648 0.272946
H47   H     H_    0.957915 0.596008 0.185778 0.261278
H48   H     H_    0.129391 0.248686 0.743842 0.067958
H49   H     H_    0.793209 0.640330 0.380511 0.013624
H50   H     H_    0.371925 0.884241 0.502155 0.144250
H51   H     H_    0.451836 0.986246 0.526845 0.059820
H52   H     H_    0.482029 0.852791 0.571039 0.218393
H53   H     H_    0.561641 0.959393 0.601205 0.197330
H54   H     H_    0.487762 0.016152 0.665938 0.267408
H55   H     H_    0.517220 0.949308 0.701505 0.271255
H56   H     H_    0.409049 0.909225 0.637401 0.270409
H57   H     H_    0.512642 0.090394 0.273107 0.135437
H58   H     H_    0.490340 0.990850 0.274118 0.075656
H59   H     H_    0.813643 0.360980 0.449150 0.133999
H60   H     H_    0.659997 0.123179 0.292860 0.222228
H61   H     H_    0.637594 0.021379 0.291089 0.192693
H62   H     H_    0.521867 0.949939 0.159410 0.265125
H63   H     H_    0.621930 0.017575 0.165781 0.271914
H64   H     H_    0.544534 0.052096 0.160642 0.267894
H65   H     H_    0.638683 0.211561 0.571826 0.145612
H66   H     H_    0.568409 0.107931 0.553184 0.053015
H67   H     H_    0.546248 0.264730 0.611211 0.238323
H68   H     H_    0.479418 0.160318 0.598228 0.205526
H69   H     H_    0.601313 0.167127 0.693858 0.272892
H70   H     H_    0.844476 0.258753 0.481552 0.127621
H71   H     H_    0.581308 0.251971 0.732840 0.280127
H72   H     H_    0.668353 0.272647 0.708559 0.270280
H73   H     H_    0.910230 0.773590 0.224280 -0.030310
H74   H     H_    0.331962 0.237546 0.447373 0.147738
H75   H     H_    0.281394 0.132106 0.375630 0.118997
H76   H     H_    0.462236 0.273851 0.427540 0.231075
H77   H     H_    0.412350 0.168364 0.353188 0.202760
H78   H     H_    0.299095 0.190591 0.279460 0.272974
H79   H     H_    0.402426 0.267755 0.299562 0.282016
H80   H     H_    0.349494 0.297202 0.353433 0.272908
H81   H     H_    0.002790 0.278342 0.364837 0.107530
H82   H     H_    0.596239 0.562251 0.826608 0.131329
H83   H     H_    0.499754 0.474122 0.750113 0.069733
H84   H     H_    0.648797 0.465096 0.851791 0.219197
H85   H     H_    0.550819 0.375362 0.776976 0.194869
H86   H     H_    0.663696 0.413966 0.733863 0.280482
H87   H     H_    0.577453 0.425660 0.682104 0.268952
H88   H     H_    0.674716 0.517857 0.756832 0.270456
H89   H     H_    0.377873 0.503353 0.145481 0.138027
H90   H     H_    0.475160 0.592455 0.218069 0.074869
H91   H     H_    0.434905 0.405668 0.153727 0.215344
H92   H     H_    0.705005 0.861268 0.452844 0.133887
H93   H     H_    0.536253 0.493182 0.224648 0.220115
H94   H     H_    0.472058 0.528803 0.311291 0.267548
H95   H     H_    0.454181 0.422012 0.283232 0.280720
H96   H     H_    0.369885 0.440776 0.239938 0.262821
H97   H     H_    0.133812 0.355864 0.703736 0.004640
H98   H     H_    0.270858 0.111396 0.868822 0.009301
H99   H     H_    0.962738 0.189263 0.662971 0.092894
H100  H     H_    0.888629 0.127776 0.690962 0.095793
H101  H     H_    0.924444 0.302272 0.695683 0.212401
H102  H     H_    0.849713 0.241862 0.722367 0.207280
N1    N     N_R   0.051550 0.054780 0.395070 -0.076516
N2    N     N_2   0.457295 0.581967 0.999849 -0.043490
N3    N     N_2   0.112490 0.018126 0.029472 -0.082267
N4    N     N_R   0.835860 0.954800 0.499920 -0.056837
N5    N     N_2   0.134402 0.966760 0.002281 -0.102957
N6    N     N_R   0.889940 0.849160 0.355180 -0.084656
N7    N     N_R   0.997480 0.160420 0.539810 -0.054619
N8    N     N_R   0.842280 0.845520 0.395070 -0.039009
N9    N     N_R   0.045130 0.164060 0.499920 -0.036561
N10   N     N_R   0.878630 0.041580 0.539810 -0.111125
N11   N     N_R   0.008780 0.968000 0.355180 -0.073849
N12   N     N_R   0.954870 0.835940 0.500080 -0.050674
N13   N     N_R   0.157720 0.154480 0.604930 -0.032638
N14   N     N_R   0.121370 0.958420 0.460190 -0.045176
N15   N     N_R   0.991220 0.032000 0.644820 -0.090843
N16   N     N_R   0.948450 0.945220 0.604930 -0.039449
N17   N     N_R   0.164140 0.045200 0.500080 -0.047086
N18   N     N_R   0.110060 0.150840 0.644820 -0.042140
N19   N     N_R   0.002520 0.839580 0.460190 -0.095494
N20   N     N_2   0.477919 0.587928 0.948437 -0.051084
Ni1   Ni    Ni4+2 0.103690 0.103690 0.500000 0.250886
Ni2   Ni    Ni4+2 0.896310 0.896310 0.500000 0.205522
Ni3   Ni    Ni4+2 0.005600 0.904650 0.408510 0.199784
Ni4   Ni    Ni4+2 0.994400 0.095350 0.591490 0.198346
O1    O     O_3   0.154732 0.169527 0.391508 -0.695572
O2    O     O_3   0.523416 0.488262 0.862988 -0.644614
O3    O     O_3   0.472050 0.529189 0.111696 -0.647246
O4    O     O_2   0.158734 0.452492 0.794089 -0.581645
O5    O     O_2   0.193831 0.057090 0.759052 -0.587618
O6    O     O_3   0.835742 0.142285 0.595106 -0.685473
O7    O     O_2   0.098757 0.146896 0.847904 -0.584609
O8    O     O_3   0.052522 0.748087 0.404732 -0.678477
O9    O     O_2   0.710185 0.523814 0.353316 -0.586938
O10   O     O_3   0.447815 0.881229 0.449612 -0.657262
O11   O     O_3   0.579303 0.101127 0.376854 -0.623224
O12   O     O_3   0.524841 0.158593 0.480907 -0.613821
O13   O     O_2   0.805423 0.756897 0.151514 -0.577349
O14   O     O_3   0.384239 0.167873 0.476932 -0.675597

loop_
_geom_bond_atom_site_label_1
_geom_bond_atom_site_label_2
_ccdc_geom_bond_type
C66   C68   A    
C55   C56   A    
C17   C69   A    
C12   C61   A    
C22   C29   S    
C59   C75   S    
C90   H63   S    
C27   C29   A    
C104  H96   S    
C41   C42   A    
C19   C20   A    
C58   O3    S    
C67   H20   S    
C5    H100  S    
C99   H83   S    
C97   C98   S    
C76   H32   S    
C9    H92   S    
C76   H33   S    
C47   H18   S    
C69   N10   A    
C3    C46   S    
C26   C27   A    
C33   C39   A    
N14   Ni3   S    
C23   C29   A    
C15   H59   S    
C8    H48   S    
C69   O6    S    
C63   N3    S    
C18   C19   A    
C50   H31   S    
C78   H38   S    
C3    O4    D    
C103  H93   S    
C30   C31   A    
C99   H82   S    
C53   H13   S    
C92   H67   S    
C16   H70   S    
C88   H57   S    
C39   C57   A    
C50   N13   A    
C87   H56   S    
C72   H15   S    
C60   C62   A    
C34   C35   A    
C85   H51   S    
C80   O8    S    
C98   H79   S    
C2    C13   A    
C86   H52   S    
C100  C101  S    
C6    H101  S    
C92   H68   S    
N11   Ni3   S    
N13   N18   A    
C95   H73   S    
C15   C22   A    
C96   O14   S    
C100  H85   S    
C66   H21   S    
C44   C46   A    
C49   C51   A    
C5    O6    S    
N15   Ni4   S    
C10   N19   A    
N10   Ni4   S    
C23   C24   A    
C70   C71   A    
N8    Ni2   S    
C89   H60   S    
C82   H47   S    
C8    N18   A    
N2    N20   D    
C101  H88   S    
C80   H42   S    
C66   C67   A    
C59   C60   A    
C38   C40   A    
C90   H62   S    
C14   C70   S    
C57   H29   S    
C24   H7    S    
C103  H91   S    
C14   C83   A    
C41   H11   S    
C102  H90   S    
C60   H27   S    
N12   Ni2   S    
C28   C55   S    
C52   C54   A    
C81   C82   S    
C20   H2    S    
C76   C77   S    
C53   C55   A    
C72   N14   A    
C73   H25   S    
C28   C45   A    
N1    N11   A    
C74   C75   A    
C91   H65   S    
C1    C75   A    
C57   N9    A    
C77   H34   S    
C19   H81   S    
C101  H86   S    
C100  H84   S    
C14   C94   A    
C30   O10   S    
C91   C92   S    
C71   C73   A    
C33   N7    A    
C86   C87   S    
C92   C93   S    
C97   H76   S    
C21   C95   S    
C81   H43   S    
C68   C73   A    
C77   C78   S    
C93   H71   S    
N19   Ni3   S    
C7    H5    S    
C35   C36   A    
C32   C34   A    
C98   H78   S    
C76   O1    S    
C18   C39   S    
N15   N16   A    
N18   Ni4   S    
C48   N20   S    
C84   H49   S    
C1    O1    S    
C4    H98   S    
C47   C48   A    
C91   O12   S    
N16   Ni2   S    
C9    N4    A    
C81   H44   S    
C96   C97   S    
C62   C63   A    
C51   H16   S    
N17   Ni1   S    
C11   C44   S    
C94   H26   S    
C24   C25   A    
C97   H77   S    
C89   H61   S    
C85   C86   S    
C82   H46   S    
C10   C12   A    
C61   N12   A    
C45   H28   S    
C79   H40   S    
C44   C51   A    
N1    Ni1   S    
C48   C49   A    
C21   C28   A    
N6    N8    A    
C27   H8    S    
C10   O8    S    
C37   C38   A    
C64   H22   S    
C17   C32   S    
C3    H97   S    
C104  H95   S    
C7    H3    S    
C37   C43   A    
C62   H24   S    
C84   O9    D    
C42   C43   A    
C79   O7    D    
C42   H12   S    
C13   C40   S    
C102  H89   S    
C65   H23   S    
C88   O11   S    
C61   H1    S    
C52   C53   A    
C33   H19   S    
C54   C58   A    
C9    C17   A    
N4    N10   A    
C23   H6    S    
C46   C47   A    
C80   H41   S    
C26   C84   S    
C37   O12   S    
N12   N19   A    
C91   H66   S    
C90   H64   S    
C59   C65   A    
N4    Ni2   S    
C31   C32   A    
C77   H35   S    
C20   C22   A    
C80   C81   S    
C101  H87   S    
C78   H36   S    
C5    H99   S    
C87   H54   S    
C35   O11   S    
C6    C7    S    
C13   C72   A    
C34   H10   S    
C38   O14   S    
C93   H72   S    
C54   N2    S    
C45   N8    A    
C21   N6    A    
C30   C36   A    
C12   C25   S    
C85   O10   S    
C96   H74   S    
C56   H17   S    
C67   C70   A    
C49   O2    S    
C25   C26   A    
N7    N9    A    
C11   C50   A    
C99   C100  S    
C64   C65   A    
C79   C83   S    
N6    Ni3   S    
C5    C6    S    
C87   H55   S    
C8    C11   A    
C88   H58   S    
C74   H30   S    
C74   N11   A    
C93   H69   S    
C2    N17   A    
C4    O5    D    
C56   C58   A    
N9    Ni1   S    
C85   H50   S    
N14   N17   A    
C96   H75   S    
C98   H80   S    
C102  C103  S    
C1    N1    A    
C86   H53   S    
C104  H94   S    
C6    H102  S    
C82   H45   S    
C63   C64   A    
C83   N15   A    
C88   C89   S    
C102  O3    S    
C16   C18   A    
C103  C104  S    
C94   N16   A    
C2    H37   S    
N3    N5    D    
C7    H4    S    
C36   C43   S    
C40   C41   A    
N13   Ni1   S    
C89   C90   S    
C78   H39   S    
C68   N5    S    
C31   H9    S    
C4    C71   S    
C99   O2    S    
N7    Ni4   S    
C15   C16   A    
C95   O13   D    
C52   H14   S    
