data_mof_unit_62229.cif
_audit_creation_date              2013-03-05T16:23:37-0500
_audit_creation_method            fapswitch 2.2
_symmetry_space_group_name_H-M    P1
_symmetry_Int_Tables_number       1
_space_group_crystal_system       triclinic
_cell_length_a                    18.7224
_cell_length_b                    18.570102
_cell_length_c                    18.715335
_cell_angle_alpha                 108.983901
_cell_angle_beta                  109.889445
_cell_angle_gamma                 109.158677
_cell_volume                      5032.19325309

loop_
_atom_site_label
_atom_site_type_symbol
_atom_site_description
_atom_site_fract_x
_atom_site_fract_y
_atom_site_fract_z
_atom_type_partial_charge
O1    O     O_R   0.592030 0.539910 0.448670 -0.567274
O2    O     O_R   0.591210 0.643320 0.551340 -0.613411
C1    C     C_R   0.617538 0.620252 0.497860 0.955870
O3    O     O_R   0.408090 0.448300 0.356360 -0.595372
O4    O     O_R   0.407280 0.551720 0.459030 -0.609959
C2    C     C_R   0.379157 0.499899 0.379310 0.940980
Zn1   Zn    Zn3+2 0.500550 0.430950 0.431450 1.062861
Zn2   Zn    Zn3+2 0.499450 0.569050 0.568550 0.996257
O5    O     O_R   0.408790 0.356680 0.448660 -0.621262
O6    O     O_R   0.407970 0.460090 0.551330 -0.628910
O7    O     O_R   0.592720 0.448280 0.540970 -0.625734
O8    O     O_R   0.591910 0.551700 0.643640 -0.634862
C3    C     C_R   0.380280 0.380076 0.500222 0.854282
C4    C     C_R   0.621506 0.500443 0.621201 0.858883
C5    C     C_3   0.321128 0.523305 0.244348 0.380217
C6    C     C_3   0.280092 0.581388 0.261882 -0.177922
H1    H     H_    0.302574 0.647518 0.268133 0.191244
C7    C     C_3   0.190922 0.499910 0.191872 -0.056887
C8    C     C_3   0.232560 0.442655 0.172777 -0.231060
C9    C     C_3   0.222626 0.418698 0.242180 -0.211210
C10   C     C_3   0.179389 0.475688 0.259671 -0.153995
C11   C     C_3   0.269783 0.556893 0.330802 -0.189309
C12   C     C_3   0.311961 0.499812 0.312431 -0.076348
H2    H     H_    0.217812 0.398061 0.107168 0.154819
H3    H     H_    0.200761 0.352550 0.235791 0.146964
H4    H     H_    0.119031 0.456042 0.264220 0.153712
H5    H     H_    0.285957 0.603246 0.396532 0.179916
C13   C     C_R   0.764223 0.696459 0.527370 -0.032241
C14   C     C_R   0.681570 0.687981 0.497980 -0.175437
C15   C     C_R   0.668968 0.755669 0.486606 0.319565
C16   C     C_R   0.736743 0.821147 0.490456 -0.260998
H6    H     H_    0.726758 0.870177 0.476021 0.202599
C17   C     C_R   0.815542 0.820612 0.508246 -0.121455
C18   C     C_R   0.831386 0.763350 0.535390 0.069739
C19   C     C_3   0.872184 0.708884 0.512110 -0.507366
C20   C     C_3   0.795919 0.633184 0.501142 0.412994
H7    H     H_    0.872704 0.699677 0.450695 0.194888
H8    H     H_    0.937029 0.733180 0.567527 0.190508
C21   C     C_R   0.726838 0.451345 0.668735 0.134914
C22   C     C_R   0.689095 0.502331 0.688531 -0.110956
C23   C     C_R   0.719225 0.556314 0.777514 -0.199478
H9    H     H_    0.692524 0.597883 0.796968 0.177880
C24   C     C_R   0.784093 0.555878 0.842463 -0.216784
H10   H     H_    0.806523 0.596775 0.910566 0.149948
C25   C     C_R   0.818889 0.501907 0.818406 -0.069222
C26   C     C_R   0.789231 0.451439 0.731136 0.104149
C27   C     C_3   0.796572 0.384512 0.668533 -0.520349
C28   C     C_3   0.724804 0.384034 0.596518 -0.424478
H11   H     H_    0.861052 0.411631 0.672312 0.209002
H12   H     H_    0.774892 0.322410 0.670934 0.215608
H13   H     H_    0.747749 0.410306 0.558264 0.209627
H14   H     H_    0.661782 0.321540 0.557334 0.216280
C29   C     C_R   0.228575 0.272952 0.435212 0.082168
C30   C     C_R   0.314748 0.315726 0.501445 -0.047098
C31   C     C_R   0.334776 0.306775 0.576136 -0.201237
H15   H     H_    0.400746 0.345224 0.631264 0.149582
C32   C     C_R   0.270073 0.244008 0.577314 -0.183046
H16   H     H_    0.286921 0.234025 0.633344 0.171770
C33   C     C_R   0.185375 0.192124 0.504394 -0.080632
C34   C     C_R   0.164328 0.211743 0.436709 0.122396
C35   C     C_3   0.118043 0.152797 0.340332 -0.413085
C36   C     C_3   0.189382 0.220391 0.338874 -0.489202
H17   H     H_    0.118155 0.089659 0.322722 0.256801
H18   H     H_    0.053043 0.146851 0.306580 0.196062
H19   H     H_    0.231320 0.196690 0.320704 0.238766
H20   H     H_    0.165448 0.253263 0.304156 0.188388
O9    O     O_R   0.951440 0.539930 0.094760 -0.624050
O10   O     O_R   0.054880 0.643340 0.094730 -0.621889
C37   C     C_R   0.002679 0.620665 0.122799 0.900863
O11   O     O_R   0.044460 0.448310 0.096120 -0.633247
O12   O     O_R   0.147900 0.551710 0.096100 -0.613296
C38   C     C_R   0.124352 0.500078 0.124816 0.894912
Zn3   Zn    Zn3+2 0.934790 0.430980 0.003830 0.952341
Zn4   Zn    Zn3+2 0.072930 0.569070 0.003790 0.989379
O13   O     O_R   0.952840 0.356700 0.912890 -0.634282
O14   O     O_R   0.056280 0.460110 0.912860 -0.621105
O15   O     O_R   0.859820 0.448330 0.911520 -0.616616
O16   O     O_R   0.963270 0.551730 0.911500 -0.621640
C39   C     C_R   0.004289 0.379824 0.884072 0.879543
C40   C     C_R   0.883521 0.499665 0.882541 0.882168
O17   O     O_R   0.947110 0.091620 0.538800 -0.623042
O18   O     O_R   0.051340 0.091660 0.643070 -0.626480
C41   C     C_R   0.998380 0.119196 0.618780 0.867791
O19   O     O_R   0.856270 0.908420 0.447910 -0.614157
O20   O     O_R   0.960500 0.908460 0.552180 -0.629887
C42   C     C_R   0.880177 0.880616 0.501179 0.894634
Zn5   Zn    Zn3+2 0.930400 0.000020 0.430430 0.990248
Zn6   Zn    Zn3+2 0.069600 0.000080 0.569670 0.994804
O21   O     O_R   0.948660 0.908440 0.357030 -0.621981
O22   O     O_R   0.052890 0.908480 0.461300 -0.593379
O23   O     O_R   0.039500 0.091640 0.447920 -0.634772
O24   O     O_R   0.143730 0.091680 0.552190 -0.598601
C43   C     C_R   0.001538 0.880780 0.381110 0.960691
C44   C     C_R   0.120040 0.121274 0.500664 0.929510
C45   C     C_R   0.934785 0.667394 0.206835 0.140406
C46   C     C_R   0.999031 0.688346 0.183902 -0.181199
C47   C     C_R   0.058711 0.776791 0.218501 -0.258060
H21   H     H_    0.106182 0.794555 0.197821 0.216092
C48   C     C_R   0.062468 0.842571 0.285348 0.287734
C49   C     C_R   0.003570 0.817643 0.315246 -0.204958
C50   C     C_R   0.936502 0.731539 0.271053 0.066490
C51   C     C_3   0.907655 0.673395 0.306598 -0.490949
C52   C     C_3   0.905980 0.602506 0.235707 -0.401601
H22   H     H_    0.958575 0.696070 0.373562 0.203396
H23   H     H_    0.841694 0.658446 0.297757 0.239044
H24   H     H_    0.955998 0.584070 0.261470 0.199827
H25   H     H_    0.839099 0.546624 0.186173 0.217610
C53   C     C_R   0.971979 0.229464 0.801557 0.138725
C54   C     C_R   0.002396 0.314471 0.815891 -0.133732
C55   C     C_R   0.031358 0.334871 0.760919 -0.198914
H26   H     H_    0.055079 0.400177 0.768936 0.171245
C56   C     C_R   0.028752 0.269793 0.694109 -0.215421
H27   H     H_    0.051206 0.285675 0.652154 0.148020
C57   C     C_R   0.998444 0.185011 0.683327 -0.060717
C58   C     C_R   0.970557 0.167494 0.738158 0.078231
C59   C     C_3   0.932065 0.096871 0.757030 -0.516029
C60   C     C_3   0.934264 0.168070 0.830798 -0.039043
H28   H     H_    0.864785 0.045582 0.702974 0.189911
H29   H     H_    0.976389 0.071288 0.778477 0.216792
H30   H     H_    0.867806 0.155942 0.818316 0.148512
N1    N     N_R   0.737718 0.563431 0.409192 0.221853
O25   O     O_R   0.721252 0.483178 0.386602 -0.395789
O26   O     O_R   0.705146 0.581790 0.348460 -0.362121
C61   C     C_3   0.820656 0.597789 0.565162 -0.412703
C62   C     C_3   0.865214 0.664154 0.662190 -0.906142
H31   H     H_    0.926739 0.721407 0.683100 0.267186
H32   H     H_    0.820834 0.686664 0.675833 0.262154
H33   H     H_    0.881171 0.632256 0.701573 0.266876
H34   H     H_    0.760058 0.542564 0.549162 0.228291
H35   H     H_    0.863972 0.571630 0.554849 0.223366
N2    N     N_R   0.398948 0.547888 0.235943 0.222901
O27   O     O_R   0.435426 0.621420 0.237052 -0.332034
O28   O     O_R   0.428931 0.493850 0.221679 -0.345326
N3    N     N_R   0.127955 0.932210 0.323551 0.188375
O29   O     O_R   0.166424 0.985696 0.406735 -0.402426
O30   O     O_R   0.157708 0.957514 0.277458 -0.409101
C63   C     C_3   0.994756 0.191085 0.924596 -0.363489
C64   C     C_3   0.091250 0.223743 0.951334 -0.812390
H36   H     H_    0.099934 0.174111 0.908343 0.261871
H37   H     H_    0.119524 0.285429 0.949565 0.251255
H38   H     H_    0.127965 0.236970 0.019038 0.240645
H39   H     H_    0.990379 0.242669 0.970890 0.216605
H40   H     H_    0.969839 0.132218 0.931781 0.210727
N4    N     N_R   0.588216 0.757194 0.467074 0.226838
O31   O     O_R   0.514273 0.685290 0.426626 -0.379163
O32   O     O_R   0.587400 0.830551 0.483649 -0.381190

loop_
_geom_bond_atom_site_label_1
_geom_bond_atom_site_label_2
_geom_bond_distance
_ccdc_geom_bond_type
C31   H15   1.083800 S    
C50   C51   1.493010 S    
Zn5   O23   2.018865 S    
C7    C10   1.533972 S    
Zn3   O13   2.020775 S    
C23   H9    1.082880 S    
C8    C9    1.551043 S    
O19   Zn5   2.011999 S    
C10   H4    1.110134 S    
C37   C46   1.437519 S    
C56   C57   1.403737 A    
C57   C58   1.379027 A    
C27   H11   1.111620 S    
C29   C30   1.388504 A    
C53   C54   1.385157 A    
Zn1   O7    2.020487 S    
Zn4   O14   2.017956 S    
C53   C58   1.342734 A    
C13   C14   1.388005 A    
C20   C61   1.554581 S    
O19   C42   1.282111 A    
C18   C19   1.497702 S    
C15   C16   1.400658 A    
O7    C4    1.282126 A    
O16   C40   1.272324 A    
C32   C33   1.405195 A    
C9    H3    1.109892 S    
O10   Zn4   2.020688 S    
C5    C6    1.531844 S    
C15   N4    1.441877 S    
C59   C60   1.547221 S    
C51   H23   1.111588 S    
C35   H17   1.110867 S    
C7    C8    1.533703 S    
C1    C14   1.423296 S    
O5    C3    1.278608 A    
C55   H26   1.083166 S    
O17   C41   1.274852 A    
C30   C31   1.399167 A    
C28   H13   1.110869 S    
Zn6   O24   2.011999 S    
C6    H1    1.110267 S    
C62   H33   1.110754 S    
C16   C17   1.401796 A    
O9    Zn3   2.017829 S    
C33   C44   1.434577 S    
C25   C40   1.408575 S    
C5    C12   1.518127 S    
C63   H40   1.110989 S    
C13   C18   1.368114 A    
C33   C34   1.395517 A    
C10   C11   1.547989 S    
C23   C24   1.400365 A    
C41   C57   1.410865 S    
C35   C36   1.518842 S    
O3    Zn1   2.020095 S    
C56   H27   1.083580 S    
C47   C48   1.397042 A    
C29   C34   1.373288 A    
C45   C52   1.493371 S    
C47   H21   1.083156 S    
C27   H12   1.111588 S    
C7    C38   1.438479 S    
C60   C63   1.545429 S    
C63   H39   1.111233 S    
C39   C54   1.426811 S    
C27   C28   1.540850 S    
C19   H8    1.110155 S    
N4    O32   1.301576 A    
C60   H30   1.112449 S    
C21   C22   1.386401 A    
C36   H20   1.111353 S    
O10   C37   1.277326 A    
N3    O30   1.301598 A    
O20   C42   1.277421 A    
O6    C3    1.274276 A    
C48   N3    1.440473 S    
C34   C35   1.493958 S    
O1    C1    1.281049 A    
C19   C20   1.533760 S    
C35   H18   1.111555 S    
C5    C8    1.529816 S    
C24   H10   1.083674 S    
C14   C15   1.419707 A    
O12   Zn4   2.016960 S    
C29   C36   1.492204 S    
C48   C49   1.413026 A    
C9    C12   1.535137 S    
C58   C59   1.489385 S    
Zn2   O8    2.020095 S    
C46   C47   1.405911 A    
O11   Zn3   2.023473 S    
O24   C44   1.281572 A    
C17   C18   1.390233 A    
C61   H35   1.111298 S    
C6    C7    1.535276 S    
C51   H22   1.112228 S    
C24   C25   1.402193 A    
C43   C49   1.420018 S    
N1    O25   1.301791 A    
O17   Zn5   2.019717 S    
C64   H37   1.109987 S    
C21   C26   1.340732 A    
O3    C2    1.275663 A    
C22   C23   1.414217 A    
O8    C4    1.278235 A    
C11   H5    1.110159 S    
C31   C32   1.390940 A    
C62   H31   1.108666 S    
N2    O27   1.300482 A    
O22   C43   1.277754 A    
C3    C30   1.417180 S    
O20   Zn6   2.018864 S    
Zn1   O5    2.016841 S    
C26   C27   1.486801 S    
C6    C11   1.549656 S    
C36   H19   1.112195 S    
C19   H7    1.109648 S    
O1    Zn1   2.014184 S    
C8    H2    1.107876 S    
C53   C60   1.496123 S    
C16   H6    1.083673 S    
O2    Zn2   2.016840 S    
Zn6   O22   2.019718 S    
N4    O31   1.299426 A    
N2    O28   1.300296 A    
C64   H38   1.110164 S    
O4    Zn2   2.020487 S    
C52   H25   1.111573 S    
N3    O29   1.300175 A    
C63   C64   1.533075 S    
C59   H29   1.109799 S    
Zn5   O21   2.019251 S    
C20   N1    1.474455 S    
O12   C38   1.273389 A    
C54   C55   1.412228 A    
O23   C44   1.280689 A    
O15   C40   1.273683 A    
C32   H16   1.083168 S    
O4    C2    1.275967 A    
O18   Zn6   2.019253 S    
C2    C12   1.440592 S    
C49   C50   1.390163 A    
C59   H28   1.111698 S    
C61   H34   1.110818 S    
O2    C1    1.274210 A    
C52   H24   1.112320 S    
O21   C43   1.275883 A    
C51   C52   1.517387 S    
C55   C56   1.401050 A    
N1    O26   1.302674 A    
C64   H36   1.108235 S    
C4    C22   1.430926 S    
C25   C26   1.378313 A    
C28   H14   1.111578 S    
O14   C39   1.276172 A    
C5    N2    1.456722 S    
C9    C10   1.549092 S    
C13   C20   1.501470 S    
Zn2   O6    2.014184 S    
O18   C41   1.276165 A    
Zn4   O16   2.023265 S    
C45   C46   1.391092 A    
C62   H32   1.110497 S    
Zn3   O15   2.016837 S    
C11   C12   1.537022 S    
C61   C62   1.533209 S    
O11   C38   1.274214 A    
O9    C37   1.282577 A    
O13   C39   1.278983 A    
C17   C42   1.429416 S    
C45   C50   1.371694 A    
C21   C28   1.491714 S    
