data_mof_unit_13402.cif
_audit_creation_date              2012-12-10T16:57:05-0500
_audit_creation_method            fapswitch 2.2
_symmetry_space_group_name_H-M    P1
_symmetry_Int_Tables_number       1
_space_group_crystal_system       triclinic
_cell_length_a                    7.755583
_cell_length_b                    8.580037
_cell_length_c                    16.483346
_cell_angle_alpha                 91.627598
_cell_angle_beta                  80.996552
_cell_angle_gamma                 93.675789
_cell_volume                      1080.923549

loop_
_atom_site_label
_atom_site_type_symbol
_atom_type_description
_atom_site_fract_x
_atom_site_fract_y
_atom_site_fract_z
_atom_type_partial_charge
C1    C     C_R   0.546221 0.794840 0.497794 0.970960
C2    C     C_R   0.453803 0.205145 0.501953 0.964085
C3    C     C_2   0.570644 0.958204 0.496410 -0.386308
C4    C     C_2   0.429418 0.041727 0.502850 -0.392179
C5    C     C_R   0.478443 0.504316 0.655121 0.852180
C6    C     C_R   0.523748 0.508349 0.345371 0.865181
C7    C     C_R   0.474340 0.539550 0.742655 -0.116028
C8    C     C_R   0.546476 0.565020 0.261306 -0.072872
C9    C     C_R   0.610651 0.498338 0.784201 0.204879
C10   C     C_R   0.438640 0.679195 0.239441 0.194425
C11   C     C_R   0.618077 0.562741 0.862819 -0.176600
C12   C     C_R   0.480158 0.748346 0.162826 -0.228082
C13   C     C_R   0.493268 0.665747 0.899261 0.152666
C14   C     C_R   0.621611 0.700000 0.106356 0.172912
C15   C     C_R   0.354409 0.697964 0.859306 -0.190798
C16   C     C_R   0.731963 0.592195 0.129272 -0.181916
C17   C     C_R   0.345136 0.635895 0.781540 -0.237324
C18   C     C_R   0.694981 0.525462 0.206323 -0.255739
C19   C     C_2   0.490830 0.721655 0.984080 -0.213816
C20   C     C_2   0.635880 0.734664 0.019152 -0.231109
H1    H     H_    0.781837 0.441710 0.222789 0.162312
H2    H     H_    0.240271 0.669025 0.750435 0.168409
H3    H     H_    0.763747 0.730146 0.981528 0.142807
H4    H     H_    0.362470 0.725973 0.021258 0.149169
H5    H     H_    0.253884 0.772675 0.888076 0.133458
H6    H     H_    0.841674 0.553635 0.086020 0.130156
H7    H     H_    0.396839 0.834972 0.146158 0.131423
H8    H     H_    0.716414 0.528037 0.897199 0.139913
H9    H     H_    0.704000 0.009236 0.490291 0.178938
H10   H     H_    0.296073 0.990676 0.508897 0.180373
H11   H     H_    0.022784 0.380509 0.439188 0.186830
H12   H     H_    0.977216 0.619490 0.560818 0.196375
N1    N     N_2   0.953500 0.457650 0.478520 -0.173365
N2    N     N_2   0.046500 0.542350 0.521480 -0.162751
O1    O     O_R   0.388470 0.738640 0.505270 -0.605556
O2    O     O_R   0.611530 0.261360 0.494730 -0.610141
O3    O     O_R   0.679650 0.711510 0.491500 -0.633598
O4    O     O_R   0.320350 0.288490 0.508500 -0.628387
O5    O     O_R   0.337210 0.515200 0.623500 -0.614273
O6    O     O_R   0.662790 0.484800 0.376500 -0.624402
O7    O     O_R   0.628380 0.488060 0.609730 -0.601728
O8    O     O_R   0.371620 0.511940 0.390270 -0.592337
Zn1   Zn    Zn3+2 0.305580 0.518120 0.509190 0.945628
Zn2   Zn    Zn3+2 0.694420 0.481880 0.490810 0.934643
N3    N     N_2   0.734961 0.391147 0.746495 -0.288441
H13   H     H_    0.681917 0.292369 0.720288 0.226073
C21   C     C_3   0.891452 0.368510 0.781364 -0.786029
H14   H     H_    0.980930 0.298357 0.737773 0.247488
H15   H     H_    0.857565 0.304498 0.839892 0.229438
H16   H     H_    0.961151 0.482777 0.791669 0.243030
N4    N     N_2   0.291967 0.729212 0.294787 -0.287933
H17   H     H_    0.284402 0.848924 0.297285 0.212893
C22   C     C_3   0.127410 0.649532 0.282769 -0.729731
H18   H     H_    0.021961 0.687059 0.331598 0.247626
H19   H     H_    0.134542 0.521021 0.286320 0.239440
H20   H     H_    0.093907 0.678452 0.222007 0.217734

loop_
_geom_bond_atom_site_label_1
_geom_bond_atom_site_label_2
_ccdc_geom_bond_type
C2    C4    S    
H11   N1    S    
C9    N3    S    
C17   H2    S    
C14   C20   S    
C18   H1    S    
O1    Zn1   S    
C2    O4    A    
O6    Zn2   S    
C19   C20   D    
C20   H3    S    
C1    O3    A    
O3    Zn2   S    
C22   H19   S    
C19   H4    S    
C4    H10   S    
O4    Zn1   S    
C21   H15   S    
C16   C18   A    
N3    H13   S    
C9    C11   A    
C10   C12   A    
C11   H8    S    
C10   N4    S    
C8    C10   A    
C12   C14   A    
N1    N2    D    
C21   H16   S    
C6    O6    A    
N3    C21   S    
C13   C15   A    
C16   H6    S    
O7    Zn2   S    
C14   C16   A    
C15   H5    S    
O2    Zn2   S    
O8    Zn1   S    
C13   C19   S    
C12   H7    S    
C3    C4    D    
C7    C9    A    
C11   C13   A    
N4    H17   S    
C1    O1    A    
C3    H9    S    
C6    O8    A    
C22   H20   S    
C2    O2    A    
C1    C3    S    
C5    C7    S    
C5    O5    A    
C5    O7    A    
C6    C8    S    
N4    C22   S    
C15   C17   A    
N1    Zn2   S    
O5    Zn1   S    
C8    C18   A    
N2    Zn1   S    
C21   H14   S    
C22   H18   S    
C7    C17   A    
H12   N2    S    
