data_mof_unit_10936.cif
_audit_creation_date              2012-12-11T16:26:12-0500
_audit_creation_method            fapswitch 2.2
_symmetry_space_group_name_H-M    P1
_symmetry_Int_Tables_number       1
_space_group_crystal_system       triclinic
_cell_length_a                    13.969517
_cell_length_b                    13.969505
_cell_length_c                    32.172791
_cell_angle_alpha                 89.999467
_cell_angle_beta                  89.999814
_cell_angle_gamma                 120.013055
_cell_volume                      5436.5655716

loop_
_atom_site_label
_atom_site_type_symbol
_atom_type_description
_atom_site_fract_x
_atom_site_fract_y
_atom_site_fract_z
_atom_type_partial_charge
C1    C     C_R   0.566779 0.444285 0.810438 0.580378
C2    C     C_R   0.877465 0.433188 0.689550 0.580346
C3    C     C_R   0.555711 0.122515 0.810440 0.580231
C4    C     C_R   0.566780 0.444286 0.689562 0.580390
C5    C     C_R   0.877466 0.433189 0.810450 0.580337
C6    C     C_R   0.555713 0.122519 0.689559 0.580239
C7    C     C_R   0.444285 0.566781 0.310439 0.580336
C8    C     C_R   0.433185 0.877461 0.189551 0.580303
C9    C     C_R   0.122514 0.555710 0.310440 0.580202
C10   C     C_R   0.444285 0.566779 0.189561 0.580333
C11   C     C_R   0.433182 0.877458 0.310449 0.580302
C12   C     C_R   0.122515 0.555712 0.189560 0.580208
C13   C     C_1   0.005320 0.498994 0.018596 0.075880
C14   C     C_1   0.493960 0.995333 0.481380 0.075968
C15   C     C_1   0.500861 0.505676 0.018626 0.075839
C16   C     C_1   0.005281 0.498940 0.481400 0.075881
C17   C     C_1   0.493989 0.995358 0.018622 0.075971
C18   C     C_1   0.500865 0.505691 0.481376 0.075837
C19   C     C_1   0.498850 0.005069 0.518616 0.075908
C20   C     C_1   0.995568 0.494107 0.981361 0.075952
C21   C     C_1   0.505784 0.500781 0.518609 0.075861
C22   C     C_1   0.498874 0.005091 0.981386 0.075907
C23   C     C_1   0.995533 0.494054 0.518636 0.075959
C24   C     C_1   0.505783 0.500766 0.981392 0.075858
C25   C     C_R   0.934016 0.472324 0.851384 -0.017424
C26   C     C_R   0.538299 0.065979 0.648627 -0.017526
C27   C     C_R   0.527611 0.461639 0.851374 -0.017460
C28   C     C_R   0.934010 0.472318 0.648615 -0.017406
C29   C     C_R   0.538299 0.065972 0.851373 -0.017533
C30   C     C_R   0.527613 0.461645 0.648627 -0.017452
C31   C     C_R   0.472280 0.933965 0.351391 -0.017472
C32   C     C_R   0.066004 0.538318 0.148621 -0.017541
C33   C     C_R   0.461670 0.527603 0.351368 -0.017525
C34   C     C_R   0.472296 0.933976 0.148610 -0.017463
C35   C     C_R   0.065996 0.538301 0.351378 -0.017552
C36   C     C_R   0.461664 0.527593 0.148633 -0.017531
C37   C     C_R   0.914227 0.544288 0.876499 0.187140
C38   C     C_R   0.630080 0.085625 0.623550 0.187111
C39   C     C_R   0.455350 0.369807 0.876409 0.187109
C40   C     C_R   0.914199 0.544259 0.623495 0.187138
C41   C     C_R   0.630083 0.085614 0.876447 0.187112
C42   C     C_R   0.455351 0.369815 0.623592 0.187109
C43   C     C_R   0.544255 0.914177 0.376502 0.187105
C44   C     C_R   0.085651 0.630112 0.123556 0.187089
C45   C     C_R   0.369861 0.455268 0.376402 0.187099
C46   C     C_R   0.544269 0.914186 0.123500 0.187114
C47   C     C_R   0.085622 0.630085 0.376445 0.187088
C48   C     C_R   0.369851 0.455263 0.123600 0.187111
C49   C     C_R   0.934434 0.550550 0.919359 0.105019
C50   C     C_R   0.616268 0.065647 0.580677 0.104919
C51   C     C_R   0.449117 0.383502 0.919289 0.104949
C52   C     C_R   0.934396 0.550504 0.580635 0.105020
C53   C     C_R   0.616279 0.065647 0.919321 0.104913
C54   C     C_R   0.449119 0.383513 0.580712 0.104951
C55   C     C_R   0.550471 0.934309 0.419366 0.104958
C56   C     C_R   0.065791 0.616350 0.080676 0.104850
C57   C     C_R   0.383582 0.448966 0.419277 0.104962
C58   C     C_R   0.550487 0.934319 0.080636 0.104962
C59   C     C_R   0.065749 0.616311 0.419324 0.104851
C60   C     C_R   0.383574 0.448961 0.080725 0.104967
C61   C     C_R   0.982268 0.492492 0.936974 -0.052870
C62   C     C_R   0.510430 0.018159 0.563014 -0.053043
C63   C     C_R   0.507508 0.489277 0.936997 -0.053040
C64   C     C_R   0.982241 0.492451 0.563024 -0.052863
C65   C     C_R   0.510446 0.018172 0.936988 -0.053048
C66   C     C_R   0.507508 0.489290 0.563005 -0.053036
C67   C     C_R   0.492367 0.982084 0.436990 -0.052891
C68   C     C_R   0.018383 0.510537 0.062995 -0.053079
C69   C     C_R   0.489357 0.507419 0.436982 -0.053091
C70   C     C_R   0.492397 0.982108 0.063012 -0.052882
C71   C     C_R   0.018342 0.510492 0.437002 -0.053083
C72   C     C_R   0.489351 0.507405 0.063020 -0.053085
C73   C     C_R   0.017616 0.434630 0.911430 0.114307
C74   C     C_R   0.417135 0.982883 0.588516 0.114149
C75   C     C_R   0.565751 0.582624 0.911536 0.114193
C76   C     C_R   0.017609 0.434613 0.588571 0.114320
C77   C     C_R   0.417148 0.982898 0.911487 0.114145
C78   C     C_R   0.565748 0.582636 0.588466 0.114207
C79   C     C_R   0.434513 0.017456 0.411453 0.114304
C80   C     C_R   0.983091 0.417219 0.088486 0.114102
C81   C     C_R   0.582688 0.565760 0.411521 0.114166
C82   C     C_R   0.434550 0.017488 0.088550 0.114310
C83   C     C_R   0.983065 0.417181 0.411509 0.114100
C84   C     C_R   0.582683 0.565738 0.088481 0.114169
C85   C     C_R   0.994617 0.425340 0.868590 0.231297
C86   C     C_R   0.430740 0.005636 0.631374 0.231147
C87   C     C_R   0.574913 0.569147 0.868671 0.231409
C88   C     C_R   0.994621 0.425341 0.631412 0.231306
C89   C     C_R   0.430743 0.005636 0.868629 0.231149
C90   C     C_R   0.574913 0.569154 0.631331 0.231428
C91   C     C_R   0.425243 0.994505 0.368611 0.231243
C92   C     C_R   0.005729 0.430780 0.131351 0.231135
C93   C     C_R   0.569190 0.574950 0.368660 0.231370
C94   C     C_R   0.425275 0.994531 0.131392 0.231253
C95   C     C_R   0.005728 0.430756 0.368646 0.231123
C96   C     C_R   0.569184 0.574931 0.131341 0.231363
Cr1   Cr    Cr6+3 0.504240 0.249200 0.750000 1.228712
Cr2   Cr    Cr6+3 0.744960 0.495760 0.750000 1.228688
Cr3   Cr    Cr6+3 0.750800 0.255040 0.750000 1.228697
Cr4   Cr    Cr6+3 0.249200 0.504240 0.250000 1.228687
Cr5   Cr    Cr6+3 0.495760 0.744960 0.250000 1.228696
Cr6   Cr    Cr6+3 0.255040 0.750800 0.250000 1.228689
O1    O     O_R   0.480350 0.140770 0.796330 -0.413487
O2    O     O_R   0.660420 0.519650 0.703670 -0.413347
O3    O     O_R   0.859230 0.339580 0.796330 -0.413412
O4    O     O_R   0.480350 0.140770 0.703670 -0.413489
O5    O     O_R   0.660420 0.519650 0.796330 -0.413355
O6    O     O_R   0.859230 0.339580 0.703670 -0.413416
O7    O     O_R   0.140770 0.480350 0.296330 -0.413516
O8    O     O_R   0.519650 0.660420 0.203670 -0.413354
O9    O     O_R   0.339580 0.859230 0.296330 -0.413468
O10   O     O_R   0.140770 0.480350 0.203670 -0.413507
O11   O     O_R   0.519650 0.660420 0.296330 -0.413357
O12   O     O_R   0.339580 0.859230 0.203670 -0.413455
O13   O     O_R   0.514930 0.348530 0.793250 -0.458591
O14   O     O_R   0.833600 0.485070 0.706750 -0.458477
O15   O     O_R   0.651470 0.166400 0.793250 -0.458540
O16   O     O_R   0.514930 0.348530 0.706750 -0.458593
O17   O     O_R   0.833600 0.485070 0.793250 -0.458481
O18   O     O_R   0.651470 0.166400 0.706750 -0.458538
O19   O     O_R   0.348530 0.514930 0.293250 -0.458583
O20   O     O_R   0.485070 0.833600 0.206750 -0.458481
O21   O     O_R   0.166400 0.651470 0.293250 -0.458543
O22   O     O_R   0.348530 0.514930 0.206750 -0.458587
O23   O     O_R   0.485070 0.833600 0.293250 -0.458477
O24   O     O_R   0.166400 0.651470 0.206750 -0.458547
O25   O     O_3   0.666667 0.333333 0.750000 -0.345762
O26   O     O_3   0.333333 0.666667 0.250000 -0.345771
Cl1   Cl    Cl    0.865837 0.629619 0.855634 -0.402372
Cl2   Cl    Cl    0.763675 0.133535 0.644490 -0.401810
Cl3   Cl    Cl    0.369550 0.236281 0.855411 -0.401359
Cl4   Cl    Cl    0.865788 0.629579 0.644354 -0.402411
Cl5   Cl    Cl    0.763672 0.133511 0.855503 -0.401772
Cl6   Cl    Cl    0.369548 0.236290 0.644590 -0.401355
Cl7   Cl    Cl    0.629677 0.865899 0.355622 -0.402226
Cl8   Cl    Cl    0.133366 0.763646 0.144523 -0.401568
Cl9   Cl    Cl    0.236329 0.369486 0.355409 -0.401359
Cl10  Cl    Cl    0.629688 0.865911 0.144381 -0.402217
Cl11  Cl    Cl    0.133331 0.763620 0.355480 -0.401562
Cl12  Cl    Cl    0.236304 0.369501 0.144591 -0.401379
I1    I     I_    0.114414 0.758351 0.042352 -0.096610
I2    I     I_    0.643644 0.885645 0.457763 -0.096812
I3    I     I_    0.241571 0.355271 0.042435 -0.095899
I4    I     I_    0.114350 0.758297 0.457654 -0.096598
I5    I     I_    0.643638 0.885633 0.042240 -0.096827
I6    I     I_    0.241583 0.355253 0.457567 -0.095892
I7    I     I_    0.758221 0.114216 0.542332 -0.096505
I8    I     I_    0.885758 0.643684 0.957769 -0.096757
I9    I     I_    0.355613 0.241467 0.542429 -0.096246
I10   I     I_    0.758238 0.114212 0.957661 -0.096475
I11   I     I_    0.885690 0.643605 0.542220 -0.096827
I12   I     I_    0.355609 0.241453 0.957573 -0.096237
Cl13  Cl    Cl    0.953638 0.311880 0.163304 -0.356648
Cl14  Cl    Cl    0.358505 0.046556 0.336608 -0.356530
Cl15  Cl    Cl    0.688156 0.641939 0.163260 -0.356379
Cl16  Cl    Cl    0.953693 0.311866 0.336693 -0.356623
Cl17  Cl    Cl    0.358554 0.046593 0.163396 -0.356558
Cl18  Cl    Cl    0.688158 0.641963 0.336740 -0.356369
Cl19  Cl    Cl    0.311870 0.953624 0.663340 -0.356637
Cl20  Cl    Cl    0.046682 0.358652 0.836576 -0.356594
Cl21  Cl    Cl    0.641836 0.688122 0.663251 -0.356476
Cl22  Cl    Cl    0.311866 0.953613 0.836666 -0.356635
Cl23  Cl    Cl    0.046708 0.358680 0.663431 -0.356613
Cl24  Cl    Cl    0.641836 0.688121 0.836751 -0.356474
I13   I     I_    0.898569 0.255409 0.062106 -0.052994
I14   I     I_    0.358015 0.102827 0.437737 -0.053936
I15   I     I_    0.744429 0.643353 0.062046 -0.052445
I16   I     I_    0.898535 0.255368 0.437884 -0.052991
I17   I     I_    0.358064 0.102870 0.062268 -0.053972
I18   I     I_    0.744426 0.643389 0.437955 -0.052401
I19   I     I_    0.255301 0.898201 0.562166 -0.053173
I20   I     I_    0.102979 0.358111 0.937703 -0.054032
I21   I     I_    0.643270 0.744369 0.562028 -0.052583
I22   I     I_    0.255320 0.898248 0.937845 -0.053158
I23   I     I_    0.102986 0.358103 0.562302 -0.054024
I24   I     I_    0.643284 0.744356 0.937975 -0.052582

loop_
_geom_bond_atom_site_label_1
_geom_bond_atom_site_label_2
_ccdc_geom_bond_type
C50   I7    S    
C44   Cl8   S    
C39   C51   A    
C68   C80   A    
C77   I22   S    
C82   C94   A    
C21   C66   S    
C18   C21   T    
C33   C45   A    
C80   I13   S    
C30   C90   A    
C35   C47   A    
C41   Cl5   S    
C58   I5    S    
Cr2   O17   S    
C5    O3    A    
C78   C90   A    
Cr3   O6    S    
C45   C57   A    
C31   C43   A    
C5    O17   A    
C38   Cl2   S    
C11   O23   A    
Cr4   O19   S    
Cr6   O26   S    
C60   I3    S    
C24   C63   S    
C39   Cl3   S    
C96   Cl15  S    
C12   O24   A    
C60   C72   A    
C19   C62   S    
C3    O1    A    
Cr1   O16   S    
Cr5   O26   S    
C37   C49   A    
C95   Cl16  S    
C84   C96   A    
C20   C61   S    
C3    C29   S    
C44   C56   A    
C3    O15   A    
C25   C37   A    
Cr3   O18   S    
C2    O14   A    
C27   C39   A    
C28   C88   A    
C78   I21   S    
Cr5   O23   S    
C14   C67   S    
C36   C48   A    
C92   Cl13  S    
C34   C46   A    
C85   Cl20  S    
Cr1   O13   S    
C53   C65   A    
C86   Cl19  S    
C76   C88   A    
C79   C91   A    
C8    O12   A    
C46   Cl10  S    
C18   C69   S    
C87   Cl24  S    
C40   Cl4   S    
C82   I17   S    
C11   C31   S    
Cr4   O7    S    
C55   I2    S    
C57   I6    S    
C12   C32   S    
C7    C33   S    
C4    O16   A    
Cr6   O9    S    
C93   Cl18  S    
C16   C71   S    
C7    O19   A    
C66   C78   A    
C6    O18   A    
C48   C60   A    
C54   I9    S    
C71   C83   A    
C9    O7    A    
Cr3   O3    S    
Cr1   O1    S    
C49   C61   A    
C38   C50   A    
C48   Cl12  S    
C90   Cl21  S    
C11   O9    A    
C23   C64   S    
C67   C79   A    
C91   Cl14  S    
C52   C64   A    
C29   C89   A    
C26   C38   A    
Cr3   O25   S    
C61   C73   A    
Cr5   O8    S    
C40   C52   A    
Cr2   O5    S    
C49   I8    S    
Cr4   O22   S    
C80   C92   A    
C43   Cl7   S    
C22   C65   S    
Cr6   O12   S    
Cr3   O15   S    
C65   C77   A    
C81   C93   A    
C36   C96   A    
Cr2   O14   S    
C26   C86   A    
C62   C74   A    
C83   C95   A    
C25   C85   A    
C64   C76   A    
C51   C63   A    
C8    C34   S    
C81   I18   S    
C74   C86   A    
C73   I20   S    
C27   C87   A    
C6    O4    A    
C41   C53   A    
C74   I19   S    
C72   C84   A    
C1    O5    A    
C5    C25   S    
C56   I1    S    
C43   C55   A    
C15   C24   T    
C51   I12   S    
Cr4   O10   S    
C16   C23   T    
C31   C91   A    
C53   I10   S    
C50   C62   A    
Cr1   O4    S    
Cr6   O21   S    
C89   Cl22  S    
C12   O10   A    
C9    C35   S    
C45   Cl9   S    
C73   C85   A    
C75   C87   A    
Cr1   O25   S    
Cr2   O25   S    
C13   C20   T    
C29   C41   A    
C75   I24   S    
Cr4   O26   S    
C77   C89   A    
C14   C19   T    
C76   I23   S    
C58   C70   A    
C34   C94   A    
Cr6   O24   S    
C33   C93   A    
C59   I4    S    
C55   C67   A    
C54   C66   A    
C35   C95   A    
C94   Cl17  S    
C88   Cl23  S    
C83   I16   S    
C10   O22   A    
Cr5   O20   S    
C42   Cl6   S    
C7    O11   A    
C84   I15   S    
C56   C68   A    
C42   C54   A    
C8    O20   A    
C6    C26   S    
C63   C75   A    
C52   I11   S    
Cr2   O2    S    
C4    O2    A    
C2    O6    A    
C9    O21   A    
C15   C72   S    
C10   O8    A    
C79   I14   S    
Cr5   O11   S    
C70   C82   A    
C4    C30   S    
C69   C81   A    
C32   C92   A    
C47   C59   A    
C17   C70   S    
C17   C22   T    
C32   C44   A    
C47   Cl11  S    
C1    C27   S    
C28   C40   A    
C30   C42   A    
C2    C28   S    
C1    O13   A    
C10   C36   S    
C57   C69   A    
C37   Cl1   S    
C46   C58   A    
C59   C71   A    
C13   C68   S    
