data_mof_unit_19214.cif
_audit_creation_date              2013-03-05T15:49:17-0500
_audit_creation_method            fapswitch 2.2
_symmetry_space_group_name_H-M    P1
_symmetry_Int_Tables_number       1
_space_group_crystal_system       triclinic
_cell_length_a                    20.677537
_cell_length_b                    22.714744
_cell_length_c                    6.928829
_cell_angle_alpha                 89.93263
_cell_angle_beta                  86.760949
_cell_angle_gamma                 89.97012
_cell_volume                      3249.16528852

loop_
_atom_site_label
_atom_site_type_symbol
_atom_site_description
_atom_site_fract_x
_atom_site_fract_y
_atom_site_fract_z
_atom_type_partial_charge
O1    O     O_R   0.387100 0.552640 0.378490 -0.568955
O2    O     O_R   0.612900 0.052640 0.621510 -0.568701
O3    O     O_R   0.249610 0.559600 0.072250 -0.608243
O4    O     O_R   0.750390 0.059600 0.927750 -0.608456
O5    O     O_R   0.249120 0.447360 0.902040 -0.563361
O6    O     O_R   0.750880 0.947360 0.097960 -0.564300
C1    C     C_R   0.227505 0.573915 0.244639 0.924083
C2    C     C_R   0.773000 0.073315 0.755224 0.924277
O7    O     O_R   0.386610 0.559560 0.048860 -0.570732
O8    O     O_R   0.613390 0.059560 0.951140 -0.570519
O9    O     O_R   0.387100 0.447320 0.878470 -0.582707
O10   O     O_R   0.612900 0.947320 0.121530 -0.583031
C3    C     C_R   0.408017 0.574737 0.214012 0.949822
C4    C     C_R   0.591932 0.074679 0.785874 0.951184
O11   O     O_R   0.249120 0.552680 0.402050 -0.604683
O12   O     O_R   0.750880 0.052680 0.597950 -0.604765
O13   O     O_3   0.318110 0.463180 0.223790 -0.279253
O14   O     O_3   0.681890 0.963180 0.776210 -0.280155
V1    V     V_3+5 0.318110 0.506830 0.948930 1.204691
V2    V     V_3+5 0.681890 0.006830 0.051070 1.203978
O15   O     O_R   0.386610 0.440400 0.548840 -0.598216
O16   O     O_R   0.613390 0.940400 0.451160 -0.597647
C5    C     C_R   0.407550 0.424869 0.714354 1.063388
C6    C     C_R   0.592479 0.924828 0.285765 1.062407
O17   O     O_R   0.249610 0.440440 0.572240 -0.614374
O18   O     O_R   0.750390 0.940440 0.427760 -0.616183
C7    C     C_R   0.228282 0.425433 0.745036 0.941432
C8    C     C_R   0.771539 0.925200 0.255333 0.941071
V3    V     V_3+5 0.318110 0.493170 0.448930 1.185455
V4    V     V_3+5 0.681890 0.993170 0.551070 1.184885
O19   O     O_3   0.318110 0.536820 0.723940 -0.274794
O20   O     O_3   0.681890 0.036820 0.276060 -0.273913
C9    C     C_R   0.176018 0.381224 0.763591 -0.298207
C10   C     C_R   0.822417 0.879512 0.239465 -0.296199
C11   C     C_R   0.136882 0.371840 0.607177 -0.229055
C12   C     C_R   0.859361 0.868352 0.399627 -0.232585
C13   C     C_R   0.084987 0.332769 0.623471 -0.134857
C14   C     C_R   0.908033 0.825974 0.390501 -0.131192
C15   C     C_R   0.071119 0.302138 0.797024 0.176375
C16   C     C_R   0.921920 0.794326 0.218997 0.179199
C17   C     C_R   0.110281 0.310835 0.952807 -0.325923
C18   C     C_R   0.884171 0.804181 0.060275 -0.331219
C19   C     C_R   0.163604 0.348718 0.936272 0.556336
C20   C     C_R   0.833763 0.845474 0.069942 0.557340
C21   C     C_R   0.914365 0.167835 0.883358 -0.137714
C22   C     C_R   0.095811 0.679711 0.113542 -0.141386
C23   C     C_R   0.861386 0.129985 0.900315 -0.177807
C24   C     C_R   0.145085 0.637831 0.097333 -0.176805
C25   C     C_R   0.847797 0.138861 0.556511 -0.168572
C26   C     C_R   0.155596 0.641800 0.443715 -0.169240
C27   C     C_R   0.900595 0.177092 0.539745 -0.168243
C28   C     C_R   0.106508 0.683948 0.459637 -0.166783
C29   C     C_R   0.934145 0.192318 0.702815 0.237464
C30   C     C_R   0.075595 0.702617 0.295439 0.235637
C31   C     C_2   0.014871 0.262387 0.823694 -0.188654
C32   C     C_2   0.974290 0.749848 0.200253 -0.190592
C33   C     C_2   0.990309 0.232537 0.677263 -0.242329
C34   C     C_2   0.023717 0.747181 0.318144 -0.246408
C35   C     C_R   0.827624 0.115007 0.737210 -0.120926
C36   C     C_R   0.175265 0.618178 0.262327 -0.122002
H1    H     H_    0.145308 0.395913 0.473062 0.192854
H2    H     H_    0.850856 0.892653 0.533088 0.195831
H3    H     H_    0.847703 0.111582 0.041020 0.132969
H4    H     H_    0.159499 0.620927 0.955279 0.132584
H5    H     H_    0.822848 0.128038 0.427924 0.134115
H6    H     H_    0.178313 0.628016 0.573372 0.134005
H7    H     H_    0.011731 0.237847 0.531611 0.129019
H8    H     H_    0.026390 0.777545 0.437907 0.133025
H9    H     H_    0.100084 0.287476 0.087641 0.133629
H10   H     H_    0.893502 0.779518 0.927758 0.134416
H11   H     H_    0.940138 0.176380 0.011715 0.098637
H12   H     H_    0.074582 0.694724 0.983061 0.101391
H13   H     H_    0.994269 0.257328 0.970066 0.124508
H14   H     H_    0.972207 0.718529 0.082518 0.129720
H15   H     H_    0.054689 0.328325 0.502051 0.120843
H16   H     H_    0.933896 0.818159 0.519277 0.120163
H17   H     H_    0.915170 0.194983 0.398905 0.101303
H18   H     H_    0.092136 0.701581 0.600839 0.103401
C37   C     C_R   0.578466 0.363370 0.682745 0.441177
C38   C     C_R   0.421567 0.863364 0.318656 0.441363
H19   H     H_    0.667749 0.277438 0.661420 0.158894
H20   H     H_    0.332314 0.777470 0.340707 0.159129
C39   C     C_R   0.462664 0.383146 0.714036 -0.318681
C40   C     C_R   0.537362 0.883108 0.286375 -0.318135
C41   C     C_R   0.474984 0.095732 0.825498 -0.031136
C42   C     C_R   0.524927 0.595814 0.172982 -0.030212
C43   C     C_R   0.421908 0.133451 0.833713 -0.073796
C44   C     C_R   0.577984 0.633515 0.164175 -0.075660
C45   C     C_R   0.430033 0.193854 0.805291 -0.209157
C46   C     C_R   0.569881 0.693889 0.193070 -0.208866
C47   C     C_R   0.492286 0.218556 0.767183 0.147202
C48   C     C_R   0.507672 0.718580 0.232353 0.147949
C49   C     C_R   0.546700 0.179226 0.757148 0.100110
C50   C     C_R   0.453268 0.679265 0.242915 0.099564
C51   C     C_R   0.502329 0.280840 0.739864 0.078105
C52   C     C_R   0.497662 0.780844 0.260249 0.078660
C53   C     C_R   0.566570 0.302169 0.705084 -0.049444
C54   C     C_R   0.433451 0.802178 0.295909 -0.049865
C55   C     C_R   0.618592 0.262294 0.692190 -0.162223
C56   C     C_R   0.381443 0.762322 0.309242 -0.161801
C57   C     C_R   0.608961 0.202237 0.718353 -0.221069
C58   C     C_R   0.391048 0.702283 0.282659 -0.221015
C59   C     C_R   0.451026 0.322760 0.746027 -0.319621
C60   C     C_R   0.548965 0.822741 0.253838 -0.321427
C61   C     C_R   0.526517 0.403380 0.677448 0.209789
C62   C     C_R   0.473522 0.903333 0.323680 0.210217
C63   C     C_R   0.537590 0.117556 0.787161 -0.203606
C64   C     C_R   0.462350 0.617615 0.212371 -0.203136
H21   H     H_    0.401146 0.309887 0.771697 0.118766
H22   H     H_    0.598820 0.809846 0.227647 0.118669
H23   H     H_    0.467158 0.049050 0.849529 0.143334
H24   H     H_    0.532748 0.549159 0.148564 0.143176
H25   H     H_    0.386496 0.219969 0.814945 0.115756
H26   H     H_    0.613394 0.719998 0.182762 0.115468
H27   H     H_    0.373785 0.115682 0.863402 0.120939
H28   H     H_    0.626077 0.615755 0.133612 0.120910
H29   H     H_    0.651090 0.173827 0.708125 0.106385
H30   H     H_    0.348931 0.673894 0.293265 0.106712
N1    N     N_R   0.539285 0.464521 0.634726 0.231083
O21   O     O_R   0.582528 0.479115 0.499474 -0.397118
O22   O     O_R   0.509960 0.505909 0.735639 -0.434589
N2    N     N_R   0.460764 0.964435 0.366736 0.231122
O23   O     O_R   0.417640 0.978911 0.502401 -0.397294
O24   O     O_R   0.489942 0.005910 0.265644 -0.434357
O25   O     O_3   0.641276 0.384660 0.659540 -0.632520
C65   C     C_3   0.668713 0.389000 0.842092 0.156101
H31   H     H_    0.722052 0.384773 0.816940 0.136749
H32   H     H_    0.653368 0.352809 0.943701 0.085911
C66   C     C_3   0.653704 0.448891 0.936406 -0.286656
H33   H     H_    0.667216 0.484715 0.832434 0.240304
H34   H     H_    0.601059 0.452116 0.976411 0.211866
C67   C     C_3   0.690689 0.457123 0.118865 -0.912312
H35   H     H_    0.677204 0.422194 0.226079 0.300119
H36   H     H_    0.678460 0.500649 0.184028 0.282649
H37   H     H_    0.743728 0.455460 0.083548 0.247195
O26   O     O_3   0.358765 0.884685 0.342444 -0.632510
C68   C     C_3   0.331137 0.889191 0.160172 0.155664
H38   H     H_    0.277806 0.885108 0.185833 0.136660
H39   H     H_    0.346289 0.852999 0.058571 0.086184
C69   C     C_3   0.346194 0.949079 0.065506 -0.286164
H40   H     H_    0.332825 0.984900 0.169397 0.240311
H41   H     H_    0.398821 0.952190 0.025139 0.211828
C70   C     C_3   0.309087 0.957461 0.883271 -0.912652
H42   H     H_    0.322417 0.922526 0.776159 0.300023
H43   H     H_    0.321368 0.000970 0.817799 0.282407
H44   H     H_    0.256064 0.955933 0.918944 0.247286
O27   O     O_3   0.201459 0.354971 0.093291 -0.655072
C71   C     C_3   0.252730 0.313745 0.076490 0.201214
H45   H     H_    0.289321 0.328435 0.962433 0.073782
H46   H     H_    0.235216 0.268855 0.039617 0.076708
C72   C     C_3   0.284782 0.309605 0.269722 -0.250373
H47   H     H_    0.300010 0.354039 0.315354 0.234866
H48   H     H_    0.249199 0.292221 0.381936 0.187852
C73   C     C_3   0.344099 0.269450 0.255955 -1.020147
H49   H     H_    0.330349 0.224477 0.210503 0.271052
H50   H     H_    0.365272 0.266565 0.399491 0.273754
H51   H     H_    0.381388 0.287461 0.150193 0.275169
O28   O     O_3   0.797256 0.852869 0.910445 -0.656839
C74   C     C_3   0.744253 0.813474 0.925329 0.200402
H52   H     H_    0.707437 0.829856 0.035956 0.076049
H53   H     H_    0.759443 0.768129 0.965916 0.075356
C75   C     C_3   0.713716 0.809708 0.729711 -0.252919
H54   H     H_    0.700775 0.854451 0.680524 0.235486
H55   H     H_    0.749407 0.790669 0.621004 0.188660
C76   C     C_3   0.652756 0.771668 0.741200 -1.017435
H56   H     H_    0.664276 0.726393 0.789584 0.270914
H57   H     H_    0.632598 0.769076 0.596219 0.273167
H58   H     H_    0.615499 0.791246 0.843752 0.275886

loop_
_geom_bond_atom_site_label_1
_geom_bond_atom_site_label_2
_geom_bond_distance
_ccdc_geom_bond_type
C70   H44   1.110732 S    
C14   C16   1.405193 A    
C76   H56   1.111187 S    
C21   H11   1.080142 S    
C20   O28   1.383136 S    
O27   C71   1.414110 S    
C69   C70   1.525807 S    
C48   C52   1.440948 A    
O4    C2    1.296438 A    
V1    O19   1.700523 S    
C15   C17   1.399740 A    
C14   H16   1.080314 S    
C7    C9    1.475793 S    
C68   H39   1.116128 S    
C50   C64   1.427249 A    
C65   H31   1.110953 S    
C25   H5    1.083030 S    
C11   C13   1.392451 A    
C71   H46   1.116944 S    
C75   H54   1.109002 S    
O3    C1    1.296311 A    
C22   H12   1.081807 S    
C2    C35   1.474129 S    
C23   H3    1.083168 S    
C42   C44   1.390680 A    
C24   H4    1.082906 S    
O12   V4    2.005789 S    
C70   H42   1.111093 S    
C38   C62   1.408860 A    
C18   H10   1.084070 S    
O13   V3    1.702944 S    
C37   C61   1.408737 A    
C5    C39   1.481725 S    
C72   C73   1.526845 S    
O7    C3    1.297133 A    
C9    C11   1.405237 A    
O5    C7    1.292906 A    
O7    V1    2.008674 S    
O6    C8    1.294584 A    
C51   C59   1.424002 A    
C67   H35   1.111091 S    
C16   C32   1.481032 S    
C52   C54   1.421709 A    
C26   C28   1.394838 A    
C72   H47   1.109110 S    
C74   H53   1.116962 S    
O3    V1    2.009222 S    
O14   V4    1.701474 S    
C45   C47   1.415459 A    
C73   H50   1.110896 S    
C58   H30   1.083002 S    
V2    O20   1.701991 S    
C66   C67   1.525797 S    
C15   C31   1.476013 S    
C16   C18   1.401826 A    
C37   O25   1.386856 S    
C8    C10   1.477142 S    
C2    O12   1.293895 A    
C72   H48   1.112085 S    
C17   C19   1.398480 A    
O10   V2    2.005585 S    
C76   H57   1.110773 S    
C24   C36   1.405275 A    
C18   C20   1.400673 A    
C33   H7    1.085585 S    
C3    C64   1.486801 S    
C28   H18   1.083457 S    
O1    V3    2.004944 S    
C53   C55   1.404918 A    
C28   C30   1.401263 A    
O11   V3    2.004272 S    
C75   H55   1.112038 S    
C40   C62   1.407648 A    
C41   C43   1.390626 A    
O15   C5    1.296967 A    
O17   V3    2.008336 S    
C13   C15   1.404153 A    
C68   C69   1.533916 S    
C45   H25   1.076801 S    
C23   C35   1.403782 A    
C32   H14   1.085732 S    
C9    C19   1.416358 A    
C71   C72   1.529895 S    
C10   C20   1.415381 A    
C69   H40   1.111455 S    
C73   H51   1.111147 S    
O8    C4    1.297067 A    
C49   C57   1.401481 A    
C29   C33   1.480587 S    
C1    O11   1.294454 A    
H19   C55   1.082887 S    
C65   C66   1.533878 S    
C25   C27   1.394982 A    
O15   V3    2.007311 S    
C39   C61   1.407587 A    
C12   H2    1.083259 S    
O4    V2    2.008905 S    
C44   H28   1.082812 S    
C42   H24   1.083967 S    
C62   N2    1.441046 S    
C27   H17   1.083618 S    
C47   C49   1.434985 A    
C75   C76   1.526901 S    
C46   C48   1.415378 A    
C74   H52   1.113537 S    
H20   C56   1.082899 S    
O9    V1    2.005357 S    
C22   C30   1.405592 A    
C56   C58   1.389041 A    
C74   C75   1.529766 S    
C11   H1    1.083271 S    
C71   H45   1.113735 S    
C26   H6    1.082877 S    
C73   H49   1.111211 S    
N1    O22   1.301323 A    
C39   C59   1.407873 A    
C34   H8    1.083477 S    
C4    C63   1.486261 S    
C55   C57   1.388928 A    
C44   C46   1.394788 A    
O18   V4    2.008653 S    
C76   H58   1.111171 S    
C54   C56   1.405057 A    
C31   C33   1.344365 D    
O25   C65   1.418774 S    
C40   C60   1.408158 A    
O16   C6    1.297100 A    
O1    C3    1.296516 A    
N2    O24   1.301334 A    
C12   C14   1.391209 A    
C1    C36   1.475441 S    
C60   H22   1.077086 S    
C17   H9    1.084203 S    
C66   H33   1.111457 S    
C30   C34   1.476581 S    
C70   H43   1.110496 S    
C65   H32   1.116158 S    
O16   V4    2.009163 S    
C38   C54   1.418676 A    
C43   H27   1.082810 S    
C37   C53   1.418641 A    
C42   C64   1.397776 A    
C69   H41   1.110430 S    
O26   C68   1.418798 S    
C41   H23   1.083969 S    
C38   O26   1.386874 S    
N1    O21   1.300977 A    
C51   C53   1.421802 A    
O5    V1    2.005190 S    
O17   C7    1.297565 A    
O6    V2    2.003673 S    
C68   H38   1.110956 S    
O10   C6    1.295687 A    
O18   C8    1.296225 A    
C25   C35   1.405265 A    
O2    V4    2.004716 S    
C59   H21   1.077212 S    
C26   C36   1.405872 A    
C52   C60   1.424298 A    
C6    C40   1.482411 S    
C57   H29   1.082987 S    
V3    O19   2.149053 S    
C49   C63   1.426948 A    
V4    O20   2.146985 S    
C48   C50   1.435241 A    
O28   C74   1.414417 S    
O8    V2    2.006823 S    
C67   H37   1.110734 S    
O9    C5    1.295665 A    
O13   V1    2.146063 S    
C10   C12   1.405086 A    
C32   C34   1.345223 D    
O14   V2    2.148132 S    
C46   H26   1.076831 S    
C13   H15   1.081790 S    
O2    C4    1.296490 A    
C19   O27   1.383192 S    
C21   C29   1.407907 A    
C31   H13   1.083607 S    
C22   C24   1.393528 A    
C21   C23   1.392578 A    
C50   C58   1.401442 A    
C47   C51   1.440745 A    
C67   H36   1.110496 S    
C43   C45   1.394769 A    
C61   N1    1.441064 S    
C27   C29   1.402576 A    
N2    O23   1.300986 A    
C41   C63   1.397741 A    
C66   H34   1.110423 S    
