data_mof_unit_15372.cif
_audit_creation_date              2012-12-10T18:08:18-0500
_audit_creation_method            fapswitch 2.2
_symmetry_space_group_name_H-M    P1
_symmetry_Int_Tables_number       1
_space_group_crystal_system       triclinic
_cell_length_a                    12.595881
_cell_length_b                    13.205613
_cell_length_c                    14.157011
_cell_angle_alpha                 91.164988
_cell_angle_beta                  102.62781
_cell_angle_gamma                 80.861987
_cell_volume                      2268.44785832

loop_
_atom_site_label
_atom_site_type_symbol
_atom_type_description
_atom_site_fract_x
_atom_site_fract_y
_atom_site_fract_z
_atom_type_partial_charge
C1    C     C_R   0.437742 0.691022 0.483413 0.878496
C2    C     C_R   0.534399 0.029609 0.504226 0.129908
C3    C     C_R   0.642550 0.984446 0.500163 0.117668
C4    C     C_R   0.501603 0.500395 0.670664 0.875002
C5    C     C_R   0.659248 0.888778 0.458678 -0.242579
C6    C     C_R   0.569486 0.838033 0.425945 0.223205
C7    C     C_R   0.510989 0.135528 0.501767 -0.129108
C8    C     C_R   0.704708 0.146064 0.542979 -0.081444
C9    C     C_R   0.396970 0.800886 0.466777 -0.151702
C10   C     C_R   0.079731 0.414791 0.320393 0.407164
C11   C     C_R   0.799813 0.617434 0.621794 0.056096
C12   C     C_1   0.495875 0.498719 0.227242 -0.164653
C13   C     C_R   0.901714 0.650354 0.647320 -0.235105
C14   C     C_R   0.981453 0.617682 0.594399 -0.159776
C15   C     C_R   0.958094 0.553297 0.514566 0.023022
C16   C     C_R   0.561528 0.307871 0.512870 0.908320
C17   C     C_R   0.851917 0.524958 0.488894 0.117086
C18   C     C_R   0.037452 0.509433 0.462314 -0.072992
C19   C     C_R   0.001550 0.464810 0.370650 0.009768
C20   C     C_R   0.889234 0.458792 0.339641 -0.236966
C21   C     C_R   0.831287 0.456557 0.412074 0.395139
C22   C     C_R   0.150560 0.500054 0.501228 0.006681
C23   C     C_R   0.728790 0.041403 0.526390 -0.185634
C24   C     C_R   0.190491 0.403334 0.366463 -0.043394
C25   C     C_R   0.498537 0.499337 0.329370 0.890058
C26   C     C_1   0.504578 0.500808 0.772882 -0.175107
C27   C     C_1   0.504276 0.500590 0.858175 0.017133
C28   C     C_1   0.501898 0.499971 0.957747 0.039976
C29   C     C_1   0.499257 0.499377 0.042543 0.043994
C30   C     C_1   0.496572 0.498828 0.142041 0.027406
C31   C     C_3   0.147555 0.978624 0.512864 -0.763479
C32   C     C_3   0.578690 0.759977 0.347606 -0.817251
C33   C     C_R   0.595179 0.195720 0.520372 -0.079694
C34   C     C_R   0.290341 0.839686 0.477010 -0.260922
C35   C     C_R   0.264184 0.941275 0.503422 0.138322
C36   C     C_R   0.349411 0.001299 0.528684 0.421376
C37   C     C_R   0.450487 0.968707 0.497470 -0.132020
C38   C     C_R   0.470887 0.868887 0.460422 0.031882
H1    H     H_    0.771586 0.186641 0.568710 0.227245
H2    H     H_    0.229726 0.788955 0.472672 0.184690
H3    H     H_    0.253113 0.367237 0.329785 0.178431
H4    H     H_    0.928446 0.414394 0.069670 0.392909
H5    H     H_    0.945899 0.184920 0.441379 0.376678
H6    H     H_    0.450157 0.178295 0.718362 0.386754
H7    H     H_    0.089192 0.959348 0.446584 0.218514
H8    H     H_    0.130862 0.940758 0.576222 0.245693
H9    H     H_    0.130989 0.063044 0.520418 0.288025
H10   H     H_    0.597628 0.797084 0.284875 0.234124
H11   H     H_    0.647034 0.696358 0.374412 0.249540
H12   H     H_    0.860180 0.419351 0.273711 0.240308
H13   H     H_    0.500735 0.729335 0.320597 0.215667
H14   H     H_    0.183629 0.535184 0.568420 0.134728
H15   H     H_    0.737832 0.642889 0.662919 0.144237
H16   H     H_    0.059520 0.645071 0.615447 0.138463
H17   H     H_    0.918877 0.700775 0.708104 0.164802
H18   H     H_    0.738320 0.859510 0.441748 0.156075
H19   H     H_    0.813589 0.006019 0.531225 0.146882
H20   H     H_    0.425730 0.170431 0.480969 0.202286
N1    N     N_R   0.222200 0.444680 0.454480 -0.117254
N2    N     N_R   0.776970 0.554780 0.545050 -0.116898
O1    O     O_R   0.366740 0.627160 0.478260 -0.618764
O2    O     O_2   0.992505 0.268916 0.210428 -0.250827
O3    O     O_3   0.951478 0.450737 0.130807 -0.568743
O4    O     O_2   0.850334 0.325371 0.554849 -0.324435
O5    O     O_2   0.737000 0.288491 0.393466 -0.331760
O6    O     O_3   0.949047 0.255024 0.419722 -0.513190
O7    O     O_2   0.277700 0.196124 0.572965 -0.315150
O8    O     O_2   0.274326 0.062420 0.688575 -0.258217
O9    O     O_3   0.462918 0.112389 0.684800 -0.551282
O10   O     O_R   0.544830 0.662520 0.507340 -0.609076
O11   O     O_R   0.410930 0.482320 0.611740 -0.585961
O12   O     O_R   0.589030 0.517680 0.640820 -0.602250
O13   O     O_R   0.455170 0.337480 0.492660 -0.607612
O14   O     O_R   0.633260 0.372840 0.521740 -0.514983
O15   O     O_R   0.410970 0.482320 0.359180 -0.601775
O16   O     O_R   0.589070 0.517680 0.388260 -0.611920
O17   O     O_2   0.143313 0.335261 0.160785 -0.287291
S1    S     S_3+6 0.043297 0.363293 0.203292 0.029754
S2    S     S_3+6 0.838150 0.328707 0.446930 0.027628
S3    S     S_3+6 0.338075 0.096029 0.619865 0.012704
Zn1   Zn    Zn3+2 0.381090 0.476390 0.480580 0.972670
Zn2   Zn    Zn3+2 0.618910 0.523610 0.519420 0.992703

loop_
_geom_bond_atom_site_label_1
_geom_bond_atom_site_label_2
_ccdc_geom_bond_type
O8    S3    D    
C15   C18   A    
C6    C32   S    
O5    S2    D    
C7    C33   A    
C5    H18   S    
C3    C23   A    
C35   C36   A    
C10   S1    S    
O17   S1    D    
O6    S2    S    
C26   C27   T    
C37   C38   A    
C16   O14   A    
C36   C37   A    
C18   C19   A    
H5    O6    S    
C5    C6    A    
C8    C23   A    
C23   H19   S    
C34   C35   A    
C20   H12   S    
C2    C7    A    
N2    Zn2   S    
C19   C20   A    
C31   H8    S    
C6    C38   A    
C8    H1    S    
C7    H20   S    
C11   H15   S    
C31   H9    S    
C13   C14   A    
C24   H3    S    
C32   H10   S    
O14   Zn2   S    
O13   Zn1   S    
C16   O13   A    
C1    C9    S    
C36   S3    S    
O16   Zn2   S    
C22   N1    A    
O15   Zn1   S    
C10   C24   A    
C17   C21   A    
C25   O15   A    
C32   H13   S    
C29   C30   S    
C16   C33   S    
C10   C19   A    
C21   S2    S    
H6    O9    S    
C14   H16   S    
C9    C34   A    
O4    S2    D    
C31   C35   S    
C11   N2    A    
C4    O12   A    
C22   H14   S    
C15   C17   A    
C28   C29   T    
C12   C30   T    
C18   C22   A    
O2    S1    D    
O7    S3    D    
N1    Zn1   S    
C3    C5    A    
C1    O1    A    
C4    C26   S    
C1    O10   A    
C12   C25   S    
C25   O16   A    
C2    C3    A    
O1    Zn1   S    
C11   C13   A    
C2    C37   A    
C24   N1    A    
C9    C38   A    
C8    C33   A    
O10   Zn2   S    
C32   H11   S    
C17   N2    A    
C20   C21   A    
C31   H7    S    
C27   C28   S    
C14   C15   A    
C34   H2    S    
O9    S3    S    
O11   Zn1   S    
H4    O3    S    
C4    O11   A    
O12   Zn2   S    
C13   H17   S    
O3    S1    S    
