data_mof_unit_33507.cif
_audit_creation_date              2012-12-10T18:09:52-0500
_audit_creation_method            fapswitch 2.2
_symmetry_space_group_name_H-M    P1
_symmetry_Int_Tables_number       1
_space_group_crystal_system       triclinic
_cell_length_a                    10.639826
_cell_length_b                    12.593958
_cell_length_c                    13.148118
_cell_angle_alpha                 82.38559
_cell_angle_beta                  90.870682
_cell_angle_gamma                 102.322793
_cell_volume                      1705.89126608

loop_
_atom_site_label
_atom_site_type_symbol
_atom_type_description
_atom_site_fract_x
_atom_site_fract_y
_atom_site_fract_z
_atom_type_partial_charge
C1    C     C_R   0.479516 0.438936 0.691048 0.847909
C2    C     C_R   0.465423 0.447402 0.973136 0.087211
C3    C     C_R   0.435363 0.469487 0.868924 0.083456
C4    C     C_R   0.741905 0.500578 0.500266 0.837372
C5    C     C_R   0.470185 0.531083 0.035758 0.086380
C6    C     C_R   0.426748 0.627926 0.998343 0.178839
C7    C     C_R   0.378252 0.640053 0.899579 -0.242813
C8    C     C_R   0.381556 0.561410 0.835700 -0.204251
C9    C     C_R   0.519365 0.521804 0.134271 -0.251179
C10   C     C_R   0.470257 0.694503 0.162494 -0.165433
C11   C     C_R   0.462261 0.399826 0.800400 -0.116499
C12   C     C_3   0.121402 0.501131 0.497849 0.127759
C13   C     C_R   0.322054 0.088536 0.345621 -0.308907
C14   C     C_R   0.651847 0.799184 0.630604 0.020137
C15   C     C_R   0.682858 0.903579 0.659540 -0.252390
C16   C     C_R   0.514977 0.561099 0.308776 0.892132
C17   C     C_R   0.625206 0.985254 0.610179 -0.201315
C18   C     C_R   0.535943 0.962511 0.530975 0.018699
C19   C     C_R   0.507989 0.854721 0.504263 0.233539
C20   C     C_R   0.473480 0.041806 0.477531 -0.012582
C21   C     C_R   0.384659 0.011689 0.399029 0.193547
C22   C     C_R   0.359451 0.905349 0.374276 -0.298489
C23   C     C_3   0.061055 0.470201 0.394297 -0.012729
C24   C     C_R   0.420640 0.828249 0.426053 -0.226372
C25   C     C_R   0.495452 0.150587 0.498335 -0.057015
C26   C     C_R   0.348098 0.194598 0.370007 0.005992
C27   C     C_R   0.258086 0.500117 0.498971 0.854685
C28   C     C_3   0.908764 0.416918 0.588143 -0.408155
C29   C     C_3   0.052978 0.416280 0.586831 -0.451215
C30   C     C_3   0.916821 0.471305 0.395581 -0.407522
C31   C     C_3   0.958040 0.617128 0.513805 -0.387352
C32   C     C_3   0.878675 0.501635 0.499613 0.142813
C33   C     C_3   0.100591 0.616468 0.514588 -0.368529
C34   C     C_R   0.430349 0.710295 0.061215 -0.170621
C35   C     C_R   0.509273 0.597389 0.199745 -0.046930
C36   C     C_R   0.489636 0.297799 0.838118 -0.196659
C37   C     C_R   0.498787 0.268137 0.942939 -0.148301
C38   C     C_R   0.489999 0.342797 0.010147 -0.185003
H1    H     H_    0.852149 0.333323 0.579983 0.177388
H2    H     H_    0.518417 0.188836 0.971971 0.142059
H3    H     H_    0.881506 0.437857 0.663271 0.166937
H4    H     H_    0.340681 0.573058 0.760242 0.167464
H5    H     H_    0.301146 0.255535 0.329379 0.144929
H6    H     H_    0.292209 0.881545 0.314367 0.170058
H7    H     H_    0.254161 0.066856 0.285598 0.148443
H8    H     H_    0.561260 0.181373 0.555859 0.121436
H9    H     H_    0.695929 0.735127 0.668810 0.137544
H10   H     H_    0.652345 0.064726 0.635710 0.131597
H11   H     H_    0.751121 0.921126 0.720148 0.149765
H12   H     H_    0.150828 0.680868 0.453871 0.202671
H13   H     H_    0.397755 0.748318 0.403089 0.224891
H14   H     H_    0.095752 0.436186 0.661642 0.168945
H15   H     H_    0.065532 0.332541 0.577531 0.183451
H16   H     H_    0.860728 0.388799 0.383151 0.172974
H17   H     H_    0.071707 0.385969 0.384888 0.149069
H18   H     H_    0.938667 0.679200 0.450299 0.189781
H19   H     H_    0.931076 0.641804 0.587408 0.176389
H20   H     H_    0.140847 0.638265 0.589666 0.177108
H21   H     H_    0.893028 0.530919 0.331877 0.186610
H22   H     H_    0.462781 0.754352 0.212845 0.159114
H23   H     H_    0.339700 0.711201 0.871053 0.149024
H24   H     H_    0.397114 0.784350 0.033505 0.136561
H25   H     H_    0.561710 0.453610 0.163846 0.147785
H26   H     H_    0.507839 0.242315 0.786499 0.152250
H27   H     H_    0.499899 0.315468 0.090561 0.134896
I1    I     I_    0.153687 0.574238 0.260977 -0.486657
N1    N     N_R   0.433240 0.222190 0.444680 -0.102899
N2    N     N_R   0.566070 0.776970 0.554790 -0.131871
O1    O     O_R   0.468120 0.366740 0.627160 -0.615453
O2    O     O_R   0.510770 0.544830 0.662520 -0.617927
O3    O     O_R   0.663880 0.410950 0.482330 -0.627573
O4    O     O_R   0.706530 0.589040 0.517700 -0.627090
O5    O     O_R   0.489230 0.455170 0.337480 -0.608222
O6    O     O_R   0.531880 0.633260 0.372840 -0.634320
O7    O     O_R   0.293470 0.410960 0.482300 -0.618444
O8    O     O_R   0.336120 0.589050 0.517670 -0.646854
Zn1   Zn    Zn3+2 0.471520 0.381090 0.476390 0.936618
Zn2   Zn    Zn3+2 0.528480 0.618910 0.523610 0.921345

loop_
_geom_bond_atom_site_label_1
_geom_bond_atom_site_label_2
_ccdc_geom_bond_type
C30   C32   S    
C33   H20   S    
C12   C29   S    
O2    Zn2   S    
O1    Zn1   S    
N1    Zn1   S    
C17   H10   S    
C4    O4    A    
C7    C8    A    
C30   H16   S    
C12   C23   S    
C16   O6    A    
C26   N1    A    
C23   I1    S    
C11   C36   A    
O8    Zn2   S    
C37   H2    S    
C16   C35   S    
C5    C6    A    
C20   C25   A    
C28   H3    S    
C34   H24   S    
C18   C19   A    
C7    H23   S    
O4    Zn2   S    
C22   H6    S    
C1    C11   S    
C31   C33   S    
C10   C35   A    
C31   H18   S    
C24   H13   S    
C21   C22   A    
C27   O7    A    
C26   H5    S    
C6    C7    A    
N2    Zn2   S    
C12   C27   S    
C16   O5    A    
C23   C30   S    
C28   C32   S    
C3    C8    A    
C28   H1    S    
C33   H12   S    
C1    O1    A    
C6    C34   A    
C25   N1    A    
C10   H22   S    
C5    C9    A    
C37   C38   A    
C2    C38   A    
C31   C32   S    
C38   H27   S    
C30   H21   S    
C17   C18   A    
C13   C21   A    
C19   N2    A    
C10   C34   A    
O7    Zn1   S    
C4    C32   S    
C22   C24   A    
C13   C26   A    
C2    C5    A    
C27   O8    A    
O3    Zn1   S    
C15   C17   A    
C28   C29   S    
O5    Zn1   S    
C9    H25   S    
C8    H4    S    
C23   H17   S    
C14   H9    S    
C1    O2    A    
C31   H19   S    
C2    C3    A    
C13   H7    S    
C29   H15   S    
C19   C24   A    
C18   C20   A    
C15   H11   S    
C3    C11   A    
C20   C21   A    
C36   C37   A    
O6    Zn2   S    
C9    C35   A    
C14   N2    A    
C14   C15   A    
C12   C33   S    
C36   H26   S    
C25   H8    S    
C4    O3    A    
C29   H14   S    
