data_mof_unit_37696.cif
_audit_creation_date              2012-12-10T17:44:38-0500
_audit_creation_method            fapswitch 2.2
_symmetry_space_group_name_H-M    P1
_symmetry_Int_Tables_number       1
_space_group_crystal_system       triclinic
_cell_length_a                    9.971273
_cell_length_b                    10.602155
_cell_length_c                    15.404159
_cell_angle_alpha                 92.067201
_cell_angle_beta                  66.89482
_cell_angle_gamma                 90.887261
_cell_volume                      1496.8778851

loop_
_atom_site_label
_atom_site_type_symbol
_atom_type_description
_atom_site_fract_x
_atom_site_fract_y
_atom_site_fract_z
_atom_type_partial_charge
Br1   Br    Br    0.324668 0.237702 0.192267 -0.612272
C1    C     C_R   0.501354 0.739151 0.499215 0.895408
C2    C     C_R   0.745620 0.473153 0.024130 0.173906
C3    C     C_R   0.600001 0.438961 0.080333 0.108032
C4    C     C_R   0.408120 0.498621 0.676364 0.880848
C5    C     C_R   0.844392 0.502808 0.066467 -0.218736
C6    C     C_R   0.797419 0.506387 0.164551 -0.192195
C7    C     C_R   0.552978 0.454929 0.177841 -0.217104
C8    C     C_R   0.556772 0.859951 0.323323 -0.166512
C9    C     C_R   0.584253 0.921703 0.239582 -0.123657
C10   C     C_R   0.584330 0.053032 0.239530 -0.070293
C11   C     C_R   0.555165 0.123003 0.323414 -0.147162
C12   C     C_R   0.427891 0.441107 0.906619 0.090442
C13   C     C_R   0.527632 0.061630 0.408744 0.078583
C14   C     C_R   0.529352 0.929545 0.408589 0.085194
C15   C     C_R   0.506357 0.871294 0.494034 -0.080828
C16   C     C_R   0.499734 0.260792 0.499198 0.865031
C17   C     C_R   0.485798 0.939373 0.577051 -0.167905
C18   C     C_R   0.482859 0.068416 0.577388 -0.207132
C19   C     C_R   0.501472 0.128201 0.494570 -0.087911
C20   C     C_R   0.804229 0.694838 0.594900 -0.153497
C21   C     C_R   0.855616 0.806306 0.620434 -0.250654
C22   C     C_R   0.995860 0.810852 0.617601 -0.164048
C23   C     C_R   0.292351 0.381985 0.955826 0.110844
C24   C     C_R   0.076467 0.698928 0.599679 0.048703
C25   C     C_R   0.043423 0.596828 0.548139 0.030353
C26   C     C_R   0.900240 0.596288 0.546789 0.166965
C27   C     C_R   0.954982 0.408070 0.454546 -0.096665
C28   C     C_R   0.591960 0.497862 0.323539 0.833188
C29   C     C_R   0.097693 0.408189 0.454439 -0.078508
C30   C     C_R   0.352682 0.477592 0.777602 -0.040513
C31   C     C_R   0.650034 0.486284 0.220502 -0.087300
C32   C     C_R   0.189010 0.370156 0.914844 -0.195497
C33   C     C_R   0.220394 0.415487 0.824962 -0.212677
C34   C     C_R   0.537587 0.442420 0.943408 0.038451
C35   C     C_R   0.449838 0.497571 0.821681 -0.226715
C36   C     C_2   0.126020 0.675106 0.675300 0.475258
C37   C     C_R   0.500585 0.406703 0.037695 -0.009430
C38   C     C_R   0.366388 0.341132 0.084300 0.226176
C39   C     C_R   0.264523 0.330484 0.043067 -0.246001
C40   C     C_R   0.684424 0.474023 0.887827 -0.205166
C41   C     C_R   0.787907 0.484390 0.927280 -0.239235
H1    H     H_    0.163857 0.279307 0.078758 0.184033
H2    H     H_    0.689057 0.687269 0.616765 0.200181
H3    H     H_    0.782343 0.885030 0.651049 0.167573
H4    H     H_    0.437910 0.451680 0.220959 0.206872
H5    H     H_    0.025987 0.892591 0.650410 0.183769
H6    H     H_    0.172420 0.333095 0.416947 0.183192
H7    H     H_    0.874175 0.530901 0.196382 0.171386
H8    H     H_    0.899033 0.509220 0.882875 0.141167
H9    H     H_    0.086830 0.321221 0.950568 0.148724
H10   H     H_    0.144955 0.396999 0.791107 0.145122
H11   H     H_    0.545651 0.554178 0.786476 0.142082
H12   H     H_    0.956100 0.528095 0.024041 0.158348
H13   H     H_    0.723215 0.487232 0.812747 0.143631
H14   H     H_    0.089000 0.590458 0.715581 0.035895
H15   H     H_    0.470107 0.892284 0.641697 0.163600
H16   H     H_    0.559158 0.758044 0.320462 0.129087
H17   H     H_    0.606510 0.867531 0.174494 0.148858
H18   H     H_    0.607272 0.100808 0.174294 0.172118
H19   H     H_    0.555978 0.224796 0.320671 0.140093
H20   H     H_    0.465513 0.122006 0.642230 0.148944
H21   H     H_    0.923448 0.332831 0.417058 0.162253
N1    N     N_R   0.856800 0.501200 0.500850 -0.116483
N2    N     N_R   0.142390 0.501280 0.500880 -0.125146
O1    O     O_R   0.385310 0.683220 0.500000 -0.590872
O2    O     O_R   0.614640 0.683250 0.500010 -0.636450
O3    O     O_R   0.319840 0.499980 0.632240 -0.627011
O4    O     O_R   0.549160 0.500000 0.632250 -0.636946
O5    O     O_R   0.385360 0.316750 0.499990 -0.612832
O6    O     O_R   0.614690 0.316780 0.500000 -0.610818
O7    O     O_R   0.450840 0.500000 0.367750 -0.607815
O8    O     O_R   0.680160 0.500020 0.367760 -0.605177
O9    O     O_2   0.198702 0.752962 0.698253 -0.613435
Zn1   Zn    Zn3+2 0.346880 0.499980 0.499990 0.956226
Zn2   Zn    Zn3+2 0.653120 0.500020 0.500010 0.940066

loop_
_geom_bond_atom_site_label_1
_geom_bond_atom_site_label_2
_ccdc_geom_bond_type
C36   O9    D    
C2    C41   A    
C40   C41   A    
C18   C19   A    
C3    C7    A    
C2    C5    A    
O3    Zn1   S    
C25   C26   A    
C29   H6    S    
C12   C34   A    
C28   C31   S    
C4    O3    A    
C37   C38   A    
C28   O8    A    
C18   H20   S    
C14   C15   A    
C16   C19   S    
O4    Zn2   S    
C8    H16   S    
C40   H13   S    
C4    O4    A    
C35   H11   S    
C24   C36   S    
C36   H14   S    
C39   H1    S    
C1    C15   S    
C8    C9    A    
C28   O7    A    
C20   C26   A    
C16   O5    A    
C20   C21   A    
C5    H12   S    
O7    Zn1   S    
C22   H5    S    
C7    C31   A    
C13   C19   A    
C34   C37   A    
C6    H7    S    
C12   C35   A    
C1    O2    A    
C26   N1    A    
C38   C39   A    
C17   C18   A    
C24   C25   A    
C12   C23   A    
C20   H2    S    
C17   H15   S    
C13   C14   A    
C32   C33   A    
N1    Zn2   S    
C30   C33   A    
C41   H8    S    
C27   N1    A    
C11   C13   A    
C16   O6    A    
O8    Zn2   S    
C10   H18   S    
C6    C31   A    
C30   C35   A    
C25   N2    A    
C3    C37   A    
C1    O1    A    
C10   C11   A    
C5    C6    A    
C32   H9    S    
C33   H10   S    
C23   C32   A    
N2    Zn1   S    
C27   C29   A    
C9    H17   S    
C8    C14   A    
C11   H19   S    
O6    Zn2   S    
O1    Zn1   S    
C23   C39   A    
C22   C24   A    
C34   C40   A    
C7    H4    S    
C29   N2    A    
C9    C10   A    
Br1   C38   S    
C27   H21   S    
C21   H3    S    
C15   C17   A    
O5    Zn1   S    
C21   C22   A    
O2    Zn2   S    
C2    C3    A    
C4    C30   S    
