data_mof_unit_39314.cif
_audit_creation_date              2012-12-11T16:35:24-0500
_audit_creation_method            fapswitch 2.2
_symmetry_space_group_name_H-M    P1
_symmetry_Int_Tables_number       1
_space_group_crystal_system       triclinic
_cell_length_a                    6.932009
_cell_length_b                    17.575782
_cell_length_c                    19.597025
_cell_angle_alpha                 109.003716
_cell_angle_beta                  90.337975
_cell_angle_gamma                 90.5722
_cell_volume                      2257.26364701

loop_
_atom_site_label
_atom_site_type_symbol
_atom_type_description
_atom_site_fract_x
_atom_site_fract_y
_atom_site_fract_z
_atom_type_partial_charge
O1    O     O_R   0.505700 0.440210 0.561730 -0.540640
O2    O     O_R   0.169350 0.406300 0.412660 -0.538430
O3    O     O_R   0.005650 0.559790 0.438270 -0.545954
C1    C     C_R   0.338077 0.382919 0.385016 0.693959
O4    O     O_R   0.175560 0.430650 0.559600 -0.540524
O5    O     O_R   0.011900 0.584320 0.586250 -0.533871
C2    C     C_R   0.344554 0.415483 0.581069 0.685193
O6    O     O_R   0.499450 0.415680 0.413750 -0.534668
O7    O     O_3   0.341370 0.550390 0.508570 -0.368563
V1    V     V_3+5 0.063940 0.490650 0.498410 1.410525
O8    O     O_R   0.682570 0.593700 0.587340 -0.538295
C3    C     C_R   0.853445 0.620467 0.612314 0.719888
O9    O     O_R   0.676370 0.569350 0.440400 -0.544061
C4    C     C_R   0.844572 0.581395 0.416396 0.684412
V2    V     V_3+5 0.564750 0.509350 0.501590 1.411281
O10   O     O_3   0.837190 0.449610 0.491430 -0.365751
C5    C     C_R   0.037575 0.677103 0.281914 -0.148779
H1    H     H_    0.170037 0.675543 0.252560 0.103567
C6    C     C_R   0.026134 0.631805 0.328768 -0.167997
H2    H     H_    0.150836 0.597799 0.334753 0.116922
C7    C     C_R   0.855553 0.629561 0.366593 -0.045118
C8    C     C_R   0.696768 0.674032 0.356541 -0.165222
H3    H     H_    0.563562 0.674169 0.385186 0.125332
C9    C     C_R   0.709088 0.720349 0.310505 -0.145934
H4    H     H_    0.585315 0.755459 0.305881 0.101180
C10   C     C_R   0.879590 0.722483 0.272276 0.089794
C11   C     C_R   0.729212 0.782792 0.184089 -0.146943
H5    H     H_    0.592215 0.754655 0.188295 0.102234
C12   C     C_R   0.740679 0.829418 0.138359 -0.172271
H6    H     H_    0.611786 0.836589 0.109649 0.123927
C13   C     C_R   0.916403 0.865306 0.129012 -0.054409
C14   C     C_R   0.080298 0.853709 0.166872 -0.159254
H7    H     H_    0.217561 0.881081 0.161455 0.118570
C15   C     C_R   0.068285 0.808023 0.213469 -0.144768
H8    H     H_    0.196635 0.802441 0.243108 0.099269
C16   C     C_R   0.892566 0.771643 0.222711 0.089621
H9    H     H_    0.790286 0.626587 0.927511 0.115088
C17   C     C_R   0.969620 0.913866 0.754534 -0.143960
C18   C     C_R   0.989644 0.934580 0.692803 -0.171028
C19   C     C_R   0.965768 0.876831 0.626023 -0.088968
C20   C     C_R   0.923263 0.796339 0.619206 0.154307
C21   C     C_R   0.906195 0.771877 0.682406 0.051177
C22   C     C_R   0.927672 0.833668 0.751171 0.041399
C23   C     C_R   0.867649 0.690286 0.680802 -0.176809
C24   C     C_R   0.848207 0.673628 0.746915 0.065873
C25   C     C_R   0.865344 0.736491 0.814217 0.063913
C26   C     C_R   0.905808 0.815952 0.816128 -0.168968
C27   C     C_R   0.812395 0.594202 0.747444 -0.135738
C28   C     C_R   0.791505 0.577786 0.811951 -0.123949
C29   C     C_R   0.806467 0.639574 0.877492 -0.112637
C30   C     C_R   0.843409 0.718094 0.878944 -0.133383
H10   H     H_    0.987850 0.962218 0.805182 0.112856
H11   H     H_    0.022931 0.996208 0.696802 0.123606
H12   H     H_    0.980756 0.895696 0.578872 0.115652
H13   H     H_    0.800625 0.543699 0.698140 0.098759
H14   H     H_    0.763852 0.516721 0.811032 0.110105
H15   H     H_    0.855350 0.764054 0.931356 0.089589
H16   H     H_    0.056723 0.451825 0.182216 0.119953
C31   C     C_R   0.513313 0.232492 0.381706 -0.126271
C32   C     C_R   0.608717 0.163182 0.381923 -0.123302
C33   C     C_R   0.642449 0.102036 0.317454 -0.122682
C34   C     C_R   0.580796 0.109622 0.252224 -0.146783
C35   C     C_R   0.485260 0.179615 0.250042 0.067350
C36   C     C_R   0.450901 0.242606 0.316304 0.072518
C37   C     C_R   0.420452 0.186682 0.183580 -0.188717
C38   C     C_R   0.321880 0.257361 0.183823 0.072982
C39   C     C_R   0.287432 0.320325 0.250089 0.068914
C40   C     C_R   0.352364 0.313289 0.316548 -0.189042
C41   C     C_R   0.259407 0.267480 0.118425 -0.125987
C42   C     C_R   0.163909 0.336781 0.118223 -0.122093
C43   C     C_R   0.130023 0.397888 0.182707 -0.123471
C44   C     C_R   0.191621 0.390257 0.247923 -0.146418
H17   H     H_    0.487014 0.277422 0.433501 0.101199
H18   H     H_    0.655440 0.156647 0.432513 0.113351
H19   H     H_    0.715640 0.048092 0.317980 0.119555
H20   H     H_    0.608560 0.059799 0.203796 0.113217
H21   H     H_    0.285704 0.222561 0.066621 0.099624
H22   H     H_    0.117182 0.343319 0.067634 0.112983
H23   H     H_    0.163530 0.439970 0.296368 0.107268
C45   C     C_R   0.523489 0.332156 0.725866 -0.132757
H24   H     H_    0.640503 0.344748 0.764888 0.106055
C46   C     C_R   0.511306 0.377361 0.678955 -0.158574
H25   H     H_    0.622245 0.421965 0.681732 0.111934
C47   C     C_R   0.355714 0.366531 0.630231 -0.050237
C48   C     C_R   0.212658 0.308882 0.629343 -0.166714
H26   H     H_    0.090919 0.299088 0.592464 0.121757
C49   C     C_R   0.228250 0.261737 0.674804 -0.157591
H27   H     H_    0.118965 0.216301 0.671694 0.118103
C50   C     C_R   0.384933 0.272316 0.723156 0.098464
C51   C     C_R   0.243359 0.219788 0.816405 -0.192808
H28   H     H_    0.114080 0.253344 0.815017 0.125334
C52   C     C_R   0.251562 0.174771 0.863583 -0.178274
H29   H     H_    0.127815 0.174241 0.896927 0.129875
C53   C     C_R   0.418491 0.132243 0.868701 -0.090377
C54   C     C_R   0.575330 0.134080 0.824119 -0.153407
H30   H     H_    0.703135 0.099880 0.826328 0.120041
C55   C     C_R   0.567333 0.177615 0.775133 0.196737
C56   C     C_R   0.400328 0.222694 0.772120 0.069289
O11   O     O_R   0.273230 0.084330 0.086440 -0.535197
O12   O     O_R   0.596660 0.069390 0.940470 -0.542851
O13   O     O_R   0.760270 0.915710 0.913690 -0.534846
C57   C     C_R   0.427719 0.084222 0.918745 0.694370
O14   O     O_R   0.603330 0.093680 0.087390 -0.537134
O15   O     O_R   0.766990 0.940160 0.061660 -0.544283
C58   C     C_R   0.434666 0.117061 0.115113 0.694794
O16   O     O_R   0.266510 0.059870 0.938470 -0.542206
O17   O     O_3   0.431050 0.949630 0.991510 -0.367399
V3    V     V_3+5 0.708490 0.009340 0.001580 1.412727
O18   O     O_R   0.096270 0.930570 0.059390 -0.542341
C59   C     C_R   0.927442 0.915236 0.080754 0.680118
O19   O     O_R   0.089600 0.906290 0.912460 -0.537857
C60   C     C_R   0.919285 0.882050 0.886191 0.700185
V4    V     V_3+5 0.207670 0.990600 0.998190 1.415757
O20   O     O_3   0.935250 0.050360 0.008480 -0.367903
C61   C     C_3   0.896900 0.741063 0.543409 -0.796030
H31   H     H_    0.905256 0.772932 0.502944 0.199479
H32   H     H_    0.015276 0.697150 0.530884 0.219189
H33   H     H_    0.751737 0.712570 0.536961 0.206032
C62   C     C_3   0.733785 0.171701 0.724590 -0.829272
H34   H     H_    0.680088 0.154484 0.668038 0.219203
H35   H     H_    0.812495 0.229920 0.738717 0.199910
H36   H     H_    0.838869 0.125681 0.727760 0.203453

loop_
_geom_bond_atom_site_label_1
_geom_bond_atom_site_label_2
_ccdc_geom_bond_type
C27   H13   S    
C49   H27   S    
C35   C37   A    
C11   C12   A    
C20   C21   A    
C52   C53   A    
C41   H21   S    
C54   H30   S    
C1    O6    A    
C55   C56   A    
O19   V4    S    
C48   H26   S    
C33   H19   S    
O13   C60   A    
C31   C36   A    
C12   H6    S    
C5    C10   A    
C36   C40   A    
C4    C7    S    
C6    C7    A    
C9    C10   A    
C39   C44   A    
C44   H23   S    
O5    C3    A    
C17   C18   A    
H16   C43   S    
C62   H36   S    
C38   C41   A    
C42   H22   S    
V2    O10   S    
C15   H8    S    
V3    O20   S    
C45   C50   A    
C28   C29   A    
O17   V4    S    
O8    V2    S    
O19   C60   A    
C61   H32   S    
O17   V3    S    
C57   O16   A    
C42   C43   A    
C30   H15   S    
O7    V1    S    
C31   H17   S    
O18   V4    S    
O13   V3    S    
C48   C49   A    
C38   C39   A    
C31   C32   A    
O9    C4    A    
C34   H20   S    
C41   C42   A    
C21   C23   A    
C20   C61   S    
C37   C58   S    
C29   C30   A    
C62   H35   S    
O11   C58   A    
O12   V3    S    
O16   V4    S    
C39   C40   A    
C47   C48   A    
C45   C46   A    
C18   C19   A    
C1    C40   S    
C24   C25   A    
C25   C30   A    
C32   C33   A    
C14   C15   A    
C55   C62   S    
O2    C1    A    
O5    V1    S    
C34   C35   A    
C51   C52   A    
C13   C14   A    
C61   H31   S    
C62   H34   S    
C61   H33   S    
O12   C57   A    
C5    H1    S    
C53   C54   A    
O14   C58   A    
C9    H4    S    
O14   V3    S    
O3    C4    A    
O1    V2    S    
C10   C16   S    
C19   C20   A    
C37   C38   A    
O6    V2    S    
C19   H12   S    
C49   C50   A    
C8    C9    A    
C21   C22   A    
O2    V1    S    
O15   V3    S    
C23   C24   A    
O4    C2    A    
V4    O20   S    
C24   C27   A    
C25   C26   A    
C27   C28   A    
O1    C2    A    
C45   H24   S    
O11   V4    S    
O8    C3    A    
C54   C55   A    
C11   C16   A    
C28   H14   S    
C46   C47   A    
C50   C56   S    
C14   H7    S    
C6    H2    S    
O9    V2    S    
O7    V2    S    
O4    V1    S    
C12   C13   A    
O3    V1    S    
V1    O10   S    
O18   C59   A    
O15   C59   A    
H9    C29   S    
C51   H28   S    
C18   H11   S    
C32   H18   S    
C52   H29   S    
C5    C6    A    
C13   C59   S    
C2    C47   S    
C15   C16   A    
C33   C34   A    
C35   C36   A    
C17   C22   A    
C17   H10   S    
C53   C57   S    
C3    C23   S    
C46   H25   S    
C11   H5    S    
C8    H3    S    
C43   C44   A    
C7    C8    A    
C22   C26   A    
C51   C56   A    
C26   C60   S    
