data_mof_unit_30049.cif
_audit_creation_date              2012-12-10T17:08:34-0500
_audit_creation_method            fapswitch 2.2
_symmetry_space_group_name_H-M    P1
_symmetry_Int_Tables_number       1
_space_group_crystal_system       triclinic
_cell_length_a                    18.303034
_cell_length_b                    18.34134
_cell_length_c                    34.374328
_cell_angle_alpha                 90.032644
_cell_angle_beta                  90.19018
_cell_angle_gamma                 90.268575
_cell_volume                      11539.3441666

loop_
_atom_site_label
_atom_site_type_symbol
_atom_type_description
_atom_site_fract_x
_atom_site_fract_y
_atom_site_fract_z
_atom_type_partial_charge
C1    C     C_R   0.999916 0.500675 0.894266 0.790034
C2    C     C_R   0.498603 0.000003 0.894472 0.792107
C3    C     C_R   0.499843 0.998717 0.394353 0.796178
C4    C     C_R   0.000261 0.499970 0.394422 0.796725
C5    C     C_R   0.497940 0.999830 0.852541 -0.012168
C6    C     C_R   0.999827 0.501310 0.852015 -0.011774
C7    C     C_R   0.000308 0.499976 0.352413 -0.016040
C8    C     C_R   0.499522 0.998162 0.352252 -0.013539
C9    C     C_R   0.562926 0.982888 0.792222 0.063905
C10   C     C_R   0.009130 0.568073 0.791187 0.066752
C11   C     C_R   0.432186 0.010626 0.791559 0.068963
C12   C     C_R   0.993259 0.434854 0.791010 0.066926
C13   C     C_R   0.065982 0.488203 0.291685 0.067531
C14   C     C_R   0.511585 0.064241 0.291675 0.064910
C15   C     C_R   0.935064 0.514999 0.291657 0.065135
C16   C     C_R   0.488797 0.932299 0.291219 0.067915
C17   C     C_R   0.497725 0.996099 0.771039 0.038204
C18   C     C_R   0.001352 0.501523 0.770456 0.039373
C19   C     C_R   0.000459 0.501965 0.270826 0.037897
C20   C     C_R   0.500382 0.998485 0.270689 0.038707
C21   C     C_R   0.628106 0.966758 0.772839 -0.067293
C22   C     C_R   0.018933 0.634280 0.770807 -0.063782
C23   C     C_R   0.366659 0.023404 0.771256 -0.065284
C24   C     C_R   0.985724 0.368356 0.770555 -0.067004
C25   C     C_R   0.131544 0.474939 0.271760 -0.066698
C26   C     C_R   0.524182 0.130202 0.271911 -0.068105
C27   C     C_R   0.869826 0.530037 0.271776 -0.067280
C28   C     C_R   0.477154 0.866571 0.270758 -0.063351
C29   C     C_R   0.132010 0.472655 0.230821 -0.072776
C30   C     C_R   0.525702 0.131510 0.231009 -0.071044
C31   C     C_R   0.869105 0.534577 0.230956 -0.074412
C32   C     C_R   0.476350 0.866552 0.229689 -0.070390
C33   C     C_R   0.628805 0.960943 0.732097 -0.074630
C34   C     C_R   0.018946 0.634614 0.729683 -0.069213
C35   C     C_R   0.366851 0.025890 0.730275 -0.071811
C36   C     C_R   0.988220 0.367883 0.729500 -0.065154
C37   C     C_R   0.067133 0.489583 0.209235 0.018157
C38   C     C_R   0.509851 0.066546 0.209372 0.018854
C39   C     C_R   0.933543 0.517432 0.209131 0.018988
C40   C     C_R   0.492359 0.931952 0.208778 0.015061
C41   C     C_R   0.564843 0.978943 0.709797 0.020054
C42   C     C_R   0.004993 0.568864 0.708801 0.012928
C43   C     C_R   0.431854 0.008970 0.709014 0.018029
C44   C     C_R   0.000359 0.434185 0.708961 0.013979
C45   C     C_R   0.000288 0.502648 0.229640 -0.004727
C46   C     C_R   0.500837 0.998989 0.229577 -0.005668
C47   C     C_R   0.498198 0.994921 0.729857 -0.005502
C48   C     C_R   0.001815 0.501576 0.729432 -0.006695
C49   C     C_R   0.066670 0.494452 0.167990 -0.084612
C50   C     C_R   0.501859 0.066374 0.168281 -0.085223
C51   C     C_R   0.934059 0.513433 0.167754 -0.084940
C52   C     C_R   0.500423 0.932871 0.167691 -0.084693
C53   C     C_R   0.564885 0.983023 0.668405 -0.083972
C54   C     C_R   0.994569 0.567409 0.667811 -0.085232
C55   C     C_R   0.433020 0.005494 0.667653 -0.083473
C56   C     C_R   0.011637 0.435426 0.668320 -0.090383
C57   C     C_R   0.000011 0.501124 0.148104 -0.111540
C58   C     C_R   0.500492 0.999892 0.148071 -0.109053
C59   C     C_R   0.499837 0.998170 0.648241 -0.112869
C60   C     C_R   0.001047 0.500765 0.648011 -0.104675
C61   C     C_R   0.999946 0.500164 0.105585 0.842707
C62   C     C_R   0.500139 0.000454 0.105614 0.836373
C63   C     C_R   0.500538 0.999764 0.605634 0.839434
C64   C     C_R   0.000199 0.499689 0.605622 0.825827
C65   C     C_R   0.858022 0.638267 0.001026 0.791326
C66   C     C_R   0.359245 0.860819 0.999347 0.769664
C67   C     C_R   0.139063 0.359016 0.999232 0.778643
C68   C     C_R   0.639591 0.140369 0.000262 0.782369
C69   C     C_R   0.139184 0.640765 0.999348 0.789484
C70   C     C_R   0.638533 0.858551 0.001124 0.798106
C71   C     C_R   0.859394 0.360593 0.000434 0.784598
C72   C     C_R   0.359060 0.139133 0.999238 0.784542
C73   C     C_R   0.358672 0.138753 0.500837 0.785811
C74   C     C_R   0.859676 0.360457 0.499760 0.775676
C75   C     C_R   0.641532 0.861433 0.500962 0.786517
C76   C     C_R   0.140837 0.639134 0.499382 0.771440
C77   C     C_R   0.640273 0.139709 0.500205 0.781757
C78   C     C_R   0.138617 0.358478 0.500995 0.791906
C79   C     C_R   0.360678 0.859308 0.499335 0.785066
C80   C     C_R   0.861310 0.641295 0.500908 0.793525
C81   C     C_R   0.183766 0.707881 0.925483 -0.172019
C82   C     C_R   0.295993 0.189221 0.924906 -0.170116
C83   C     C_R   0.709042 0.397723 0.021039 -0.185898
C84   C     C_R   0.594215 0.704240 0.996467 -0.174766
C85   C     C_R   0.700503 0.597268 0.990349 -0.187926
C86   C     C_R   0.599567 0.292024 0.015087 -0.192240
C87   C     C_R   0.187156 0.294992 0.924973 -0.169089
C88   C     C_R   0.290330 0.816992 0.925553 -0.168567
C89   C     C_R   0.785620 0.108932 0.531553 -0.179652
C90   C     C_R   0.904936 0.796343 0.501843 -0.179363
C91   C     C_R   0.314946 0.792164 0.425456 -0.173461
C92   C     C_R   0.095694 0.202372 0.500911 -0.182578
C93   C     C_R   0.203257 0.095568 0.502356 -0.183452
C94   C     C_R   0.209091 0.682382 0.425635 -0.167717
C95   C     C_R   0.798122 0.903861 0.500485 -0.179842
C96   C     C_R   0.891423 0.219001 0.533170 -0.179938
C97   C     C_R   0.207042 0.738430 0.890572 -0.138283
C98   C     C_R   0.267984 0.215301 0.889922 -0.138350
C99   C     C_R   0.636737 0.415194 0.029485 -0.175718
C100  C     C_R   0.574109 0.632871 0.987985 -0.154185
C101  C     C_R   0.627257 0.579999 0.983908 -0.162544
C102  C     C_R   0.581995 0.363097 0.025563 -0.150039
C103  C     C_R   0.213290 0.267502 0.889919 -0.155673
C104  C     C_R   0.259715 0.793207 0.890586 -0.153686
C105  C     C_R   0.854647 0.095659 0.547333 -0.178739
C106  C     C_R   0.925008 0.869477 0.499681 -0.157924
C107  C     C_R   0.291355 0.761333 0.390574 -0.139118
C108  C     C_R   0.076356 0.128857 0.499481 -0.151854
C109  C     C_R   0.129889 0.075647 0.500613 -0.149365
C110  C     C_R   0.239094 0.706163 0.390641 -0.152712
C111  C     C_R   0.871776 0.922982 0.498605 -0.161422
C112  C     C_R   0.906866 0.150700 0.548698 -0.164830
C113  C     C_R   0.269960 0.784620 0.961332 0.096895
C114  C     C_R   0.217297 0.272247 0.960957 0.098027
C115  C     C_R   0.672954 0.271903 0.008291 0.094584
C116  C     C_R   0.723206 0.670206 0.997244 0.094665
C117  C     C_R   0.668795 0.724998 0.999019 0.098670
C118  C     C_R   0.728091 0.326214 0.009906 0.106820
C119  C     C_R   0.272364 0.217983 0.960944 0.094570
C120  C     C_R   0.215456 0.729489 0.961321 0.092152
C121  C     C_R   0.822438 0.233510 0.516513 0.105658
C122  C     C_R   0.775883 0.829818 0.501403 0.093231
C123  C     C_R   0.229695 0.715106 0.461381 0.095672
C124  C     C_R   0.224767 0.169882 0.501892 0.089410
C125  C     C_R   0.169974 0.224412 0.501552 0.093396
C126  C     C_R   0.283896 0.770518 0.461321 0.091964
C127  C     C_R   0.830413 0.775016 0.501754 0.096603
C128  C     C_R   0.768349 0.178088 0.516170 0.098305
C129  C     C_R   0.192700 0.699379 0.997303 -0.072104
C130  C     C_R   0.300262 0.192485 0.997016 -0.073809
C131  C     C_R   0.801258 0.306550 0.002207 -0.068096
C132  C     C_R   0.690411 0.798687 0.004206 -0.079121
C133  C     C_R   0.797827 0.690430 0.003143 -0.092753
C134  C     C_R   0.693380 0.198630 0.001614 -0.070984
C135  C     C_R   0.192199 0.300071 0.997027 -0.072947
C136  C     C_R   0.300570 0.807375 0.997305 -0.066360
C137  C     C_R   0.698005 0.194257 0.501438 -0.061231
C138  C     C_R   0.808737 0.700691 0.503355 -0.073853
C139  C     C_R   0.306969 0.800871 0.497285 -0.071627
C140  C     C_R   0.191327 0.299028 0.503211 -0.076919
C141  C     C_R   0.299308 0.191380 0.503186 -0.086158
C142  C     C_R   0.199575 0.692446 0.497366 -0.067460
C143  C     C_R   0.701083 0.808731 0.503188 -0.086693
C144  C     C_R   0.805326 0.302796 0.501299 -0.057860
C145  C     C_R   0.221209 0.725614 0.032366 -0.212428
C146  C     C_R   0.271357 0.217921 0.032026 -0.210669
C147  C     C_R   0.820072 0.233623 0.996566 -0.210090
C148  C     C_R   0.763445 0.816355 0.011513 -0.218619
C149  C     C_R   0.816282 0.762871 0.011364 -0.225695
C150  C     C_R   0.766650 0.179990 0.996709 -0.211819
C151  C     C_R   0.217982 0.271083 0.032037 -0.226077
C152  C     C_R   0.274799 0.778922 0.032374 -0.225418
C153  C     C_R   0.681591 0.264229 0.488090 -0.207569
C154  C     C_R   0.735057 0.681969 0.507192 -0.216258
C155  C     C_R   0.278888 0.774786 0.532370 -0.215576
C156  C     C_R   0.264995 0.318032 0.506987 -0.214498
C157  C     C_R   0.318313 0.264915 0.506850 -0.218770
C158  C     C_R   0.225516 0.721265 0.532414 -0.225973
C159  C     C_R   0.681947 0.735303 0.507202 -0.223406
C160  C     C_R   0.734977 0.318070 0.487877 -0.213544
C161  C     C_R   0.433960 0.014016 0.832433 -0.259188
C162  C     C_R   0.990630 0.436405 0.831884 -0.246008
C163  C     C_R   0.561491 0.983943 0.832984 -0.235015
C164  C     C_R   0.009976 0.566442 0.832128 -0.250638
C165  C     C_R   0.936369 0.514474 0.332498 -0.239518
C166  C     C_R   0.486889 0.933716 0.332150 -0.253797
C167  C     C_R   0.064338 0.486205 0.332564 -0.248075
C168  C     C_R   0.512191 0.062523 0.332493 -0.237188
H1    H     H_    0.203082 0.703358 0.059906 0.158218
H2    H     H_    0.291575 0.197727 0.059638 0.160973
H3    H     H_    0.876376 0.218300 0.991512 0.151865
H4    H     H_    0.780208 0.872438 0.016203 0.165398
H5    H     H_    0.872654 0.778865 0.016246 0.168835
H6    H     H_    0.782301 0.123766 0.991963 0.149987
H7    H     H_    0.197855 0.290970 0.059677 0.149955
H8    H     H_    0.297537 0.796952 0.059934 0.149088
H9    H     H_    0.627448 0.276820 0.477214 0.141931
H10   H     H_    0.718232 0.625342 0.509047 0.161471
H11   H     H_    0.297199 0.797302 0.559901 0.157264
H12   H     H_    0.281647 0.374724 0.508805 0.162530
H13   H     H_    0.375130 0.281588 0.508524 0.161759
H14   H     H_    0.203039 0.703395 0.559973 0.149796
H15   H     H_    0.625127 0.718820 0.509126 0.164027
H16   H     H_    0.721655 0.371717 0.476795 0.140784
H17   H     H_    0.140041 0.668269 0.923804 0.149645
H18   H     H_    0.335155 0.145575 0.923008 0.152726
H19   H     H_    0.750023 0.439790 0.024699 0.133216
H20   H     H_    0.550227 0.741909 0.001705 0.160338
H21   H     H_    0.737533 0.552046 0.990135 0.173336
H22   H     H_    0.555302 0.252906 0.014298 0.155931
H23   H     H_    0.142367 0.332971 0.923282 0.151372
H24   H     H_    0.328942 0.861615 0.924055 0.148022
H25   H     H_    0.745742 0.065294 0.532195 0.129871
H26   H     H_    0.948798 0.757626 0.504793 0.159397
H27   H     H_    0.358373 0.832056 0.423717 0.150677
H28   H     H_    0.051469 0.240816 0.502321 0.157050
H29   H     H_    0.242096 0.051789 0.505138 0.159280
H30   H     H_    0.170759 0.637491 0.424194 0.148987
H31   H     H_    0.759743 0.948069 0.502016 0.160501
H32   H     H_    0.933289 0.260600 0.534823 0.111275
H33   H     H_    0.183338 0.719964 0.863454 0.148580
H34   H     H_    0.288213 0.193997 0.862708 0.146342
H35   H     H_    0.622771 0.469291 0.039255 0.133155
H36   H     H_    0.516953 0.618380 0.985001 0.143407
H37   H     H_    0.611308 0.524763 0.976744 0.158642
H38   H     H_    0.525879 0.377314 0.031716 0.131999
H39   H     H_    0.190345 0.286126 0.862641 0.127584
H40   H     H_    0.276369 0.817929 0.863422 0.127232
H41   H     H_    0.867768 0.042776 0.559117 0.127677
H42   H     H_    0.982218 0.884752 0.499461 0.136812
H43   H     H_    0.314507 0.779899 0.363439 0.148777
H44   H     H_    0.019458 0.112930 0.498108 0.149976
H45   H     H_    0.114471 0.018582 0.500678 0.133097
H46   H     H_    0.222273 0.681144 0.363502 0.128300
H47   H     H_    0.887797 0.979702 0.496959 0.150970
H48   H     H_    0.959589 0.140127 0.561783 0.132714
H49   H     H_    0.385949 0.027379 0.849264 0.141482
H50   H     H_    0.982154 0.387348 0.848781 0.146926
H51   H     H_    0.609656 0.972506 0.850285 0.150098
H52   H     H_    0.018301 0.615465 0.849153 0.140265
H53   H     H_    0.887869 0.525219 0.349499 0.147456
H54   H     H_    0.475895 0.885062 0.349000 0.140576
H55   H     H_    0.112579 0.474195 0.349662 0.148827
H56   H     H_    0.522145 0.111128 0.349647 0.148739
O1    O     O_3   1.000000 0.500000 0.999990 -0.481133
O2    O     O_3   0.500000 0.000000 0.999990 -0.481857
O3    O     O_3   0.500000 0.000000 0.499990 -0.481617
O4    O     O_3   1.000000 0.500000 0.499990 -0.483944
O5    O     O_R   0.060750 0.500000 0.912560 -0.648202
O6    O     O_R   0.500000 0.060750 0.912560 -0.640598
O7    O     O_R   0.939250 0.500000 0.912560 -0.631581
O8    O     O_R   0.500000 0.939250 0.912560 -0.639458
O9    O     O_R   0.560750 0.000000 0.412560 -0.632742
O10   O     O_R   1.000000 0.560750 0.412560 -0.640392
O11   O     O_R   0.439250 0.000000 0.412560 -0.641054
O12   O     O_R   1.000000 0.439250 0.412560 -0.632558
O13   O     O_R   0.000000 0.560690 0.087420 -0.642163
O14   O     O_R   0.439310 0.000000 0.087420 -0.644749
O15   O     O_R   0.000000 0.439310 0.087420 -0.646157
O16   O     O_R   0.560690 0.000000 0.087420 -0.640357
O17   O     O_R   0.500000 0.060690 0.587420 -0.646433
O18   O     O_R   0.939310 0.500000 0.587420 -0.636745
O19   O     O_R   0.500000 0.939310 0.587420 -0.643247
O20   O     O_R   0.060690 0.500000 0.587420 -0.640504
O21   O     O_R   0.853830 0.585440 0.977070 -0.653594
O22   O     O_R   0.414560 0.853830 0.977070 -0.652890
O23   O     O_R   0.146170 0.414560 0.977070 -0.642465
O24   O     O_R   0.585440 0.146170 0.977070 -0.639422
O25   O     O_R   0.146170 0.585440 0.977070 -0.644153
O26   O     O_R   0.585440 0.853830 0.977070 -0.645118
O27   O     O_R   0.853830 0.414560 0.977070 -0.645644
O28   O     O_R   0.414560 0.146170 0.977070 -0.652662
O29   O     O_R   0.353830 0.085440 0.477070 -0.640913
O30   O     O_R   0.914560 0.353830 0.477070 -0.642371
O31   O     O_R   0.646170 0.914560 0.477070 -0.647513
O32   O     O_R   0.085440 0.646170 0.477070 -0.650891
O33   O     O_R   0.646170 0.085440 0.477070 -0.643001
O34   O     O_R   0.085440 0.353830 0.477070 -0.648788
O35   O     O_R   0.353830 0.914560 0.477070 -0.653657
O36   O     O_R   0.914560 0.646170 0.477070 -0.645965
O37   O     O_R   0.085460 0.353830 0.022910 -0.641250
O38   O     O_R   0.646170 0.085460 0.022910 -0.642597
O39   O     O_R   0.914540 0.646170 0.022910 -0.643159
O40   O     O_R   0.353830 0.914540 0.022910 -0.639270
O41   O     O_R   0.914540 0.353830 0.022910 -0.636795
O42   O     O_R   0.353830 0.085460 0.022910 -0.633215
O43   O     O_R   0.085460 0.646170 0.022910 -0.636045
O44   O     O_R   0.646170 0.914540 0.022910 -0.638650
O45   O     O_R   0.585460 0.853830 0.522910 -0.643677
O46   O     O_R   0.146170 0.585460 0.522910 -0.640817
O47   O     O_R   0.414540 0.146170 0.522910 -0.644691
O48   O     O_R   0.853830 0.414540 0.522910 -0.640640
O49   O     O_R   0.414540 0.853830 0.522910 -0.634818
O50   O     O_R   0.853830 0.585460 0.522910 -0.634753
O51   O     O_R   0.585460 0.146170 0.522910 -0.636034
O52   O     O_R   0.146170 0.414540 0.522910 -0.632297
Zn1   Zn    Zn3+2 0.000000 0.586740 0.032740 0.971613
Zn2   Zn    Zn3+2 0.413260 0.000000 0.032740 0.967191
Zn3   Zn    Zn3+2 0.000000 0.413260 0.032740 0.969046
Zn4   Zn    Zn3+2 0.586740 0.000000 0.032740 0.973320
Zn5   Zn    Zn3+2 0.500000 0.086740 0.532740 0.967462
Zn6   Zn    Zn3+2 0.913260 0.500000 0.532740 0.970786
Zn7   Zn    Zn3+2 0.500000 0.913260 0.532740 0.967158
Zn8   Zn    Zn3+2 0.086740 0.500000 0.532740 0.967447
Zn9   Zn    Zn3+2 0.913250 0.500000 0.967240 0.963335
Zn10  Zn    Zn3+2 0.500000 0.913250 0.967240 0.959801
Zn11  Zn    Zn3+2 0.086750 0.500000 0.967240 0.963565
Zn12  Zn    Zn3+2 0.500000 0.086750 0.967240 0.962930
Zn13  Zn    Zn3+2 0.413250 0.000000 0.467240 0.964479
Zn14  Zn    Zn3+2 0.000000 0.413250 0.467240 0.965199
Zn15  Zn    Zn3+2 0.586750 0.000000 0.467240 0.967447
Zn16  Zn    Zn3+2 0.000000 0.586750 0.467240 0.960835
C169  C     C_R   0.696529 0.955635 0.795564 0.125963
C170  C     C_R   0.736693 0.016308 0.808590 -0.172172
C171  C     C_R   0.797829 0.006611 0.832402 -0.135887
C172  C     C_R   0.819422 0.936517 0.843138 -0.113998
C173  C     C_R   0.780152 0.875769 0.829848 -0.134356
C174  C     C_R   0.718606 0.885211 0.806216 -0.128442
H57   H     H_    0.719773 0.070946 0.800875 0.127536
H58   H     H_    0.827848 0.053426 0.843019 0.119933
H59   H     H_    0.866181 0.929587 0.862065 0.112456
H60   H     H_    0.796771 0.821460 0.838275 0.125478
H61   H     H_    0.687587 0.838017 0.796689 0.128002
C175  C     C_R   0.030071 0.703845 0.792306 0.126595
C176  C     C_R   0.971231 0.736465 0.811632 -0.182195
C177  C     C_R   0.981073 0.802764 0.830975 -0.135121
C178  C     C_R   0.048918 0.837901 0.830284 -0.097902
C179  C     C_R   0.107544 0.806033 0.810764 -0.149009
C180  C     C_R   0.098581 0.738648 0.792366 -0.146405
H62   H     H_    0.918018 0.710375 0.811790 0.133364
H63   H     H_    0.936084 0.826845 0.846482 0.122631
H64   H     H_    0.055900 0.889645 0.844973 0.116940
H65   H     H_    0.160225 0.832918 0.810180 0.126160
H66   H     H_    0.144620 0.714060 0.777733 0.130259
C181  C     C_R   0.297061 0.033971 0.792972 0.135426
C182  C     C_R   0.265186 0.975043 0.812855 -0.185696
C183  C     C_R   0.201085 0.984952 0.834135 -0.154339
C184  C     C_R   0.166866 0.052838 0.834522 -0.092032
C185  C     C_R   0.197753 0.111474 0.814391 -0.145510
C186  C     C_R   0.263434 0.102598 0.794396 -0.149010
H67   H     H_    0.290777 0.921935 0.812383 0.123708
H68   H     H_    0.178164 0.940124 0.850507 0.125522
H69   H     H_    0.116817 0.060002 0.850701 0.115601
H70   H     H_    0.171793 0.164292 0.814867 0.124441
H71   H     H_    0.287992 0.149101 0.780045 0.129355
C187  C     C_R   0.973037 0.299220 0.792147 0.129758
C188  C     C_R   0.030281 0.267068 0.813233 -0.192853
C189  C     C_R   0.017362 0.204514 0.835386 -0.146196
C190  C     C_R   0.947936 0.172589 0.835798 -0.107283
C191  C     C_R   0.890957 0.203704 0.814397 -0.134691
C192  C     C_R   0.903235 0.267173 0.792848 -0.120195
H72   H     H_    0.084265 0.291476 0.813139 0.122329
H73   H     H_    0.060917 0.181248 0.852602 0.125548
H74   H     H_    0.938343 0.124098 0.852965 0.112159
H75   H     H_    0.837069 0.179217 0.814840 0.121856
H76   H     H_    0.858458 0.291600 0.776919 0.128063
C193  C     C_R   0.200293 0.462829 0.294058 0.130759
C194  C     C_R   0.235611 0.522017 0.312116 -0.185436
C195  C     C_R   0.296874 0.510363 0.335594 -0.146456
C196  C     C_R   0.324125 0.439968 0.340538 -0.107995
C197  C     C_R   0.289793 0.380889 0.322215 -0.134508
C198  C     C_R   0.227673 0.392113 0.299255 -0.123617
H77   H     H_    0.214532 0.576735 0.308733 0.121758
H78   H     H_    0.322582 0.555718 0.350432 0.124499
H79   H     H_    0.371377 0.431325 0.358908 0.112264
H80   H     H_    0.310601 0.326277 0.326248 0.122977
H81   H     H_    0.200425 0.345845 0.285935 0.127762
C199  C     C_R   0.537159 0.198418 0.294327 0.126402
C200  C     C_R   0.477725 0.236855 0.309654 -0.173399
C201  C     C_R   0.489824 0.297571 0.333387 -0.131930
C202  C     C_R   0.561039 0.320565 0.341676 -0.120440
C203  C     C_R   0.620472 0.283162 0.325977 -0.140414
C204  C     C_R   0.608669 0.221999 0.302448 -0.125401
H82   H     H_    0.422312 0.218806 0.303873 0.128036
H83   H     H_    0.444075 0.326122 0.345855 0.120597
H84   H     H_    0.569969 0.366983 0.360554 0.111830
H85   H     H_    0.675652 0.300940 0.332464 0.126164
H86   H     H_    0.654976 0.192396 0.291054 0.127642
C205  C     C_R   0.801082 0.540919 0.293896 0.127478
C206  C     C_R   0.758499 0.480334 0.304374 -0.165969
C207  C     C_R   0.695320 0.489804 0.326389 -0.135375
C208  C     C_R   0.674401 0.559527 0.338117 -0.114359
C209  C     C_R   0.716394 0.620216 0.327528 -0.133516
C210  C     C_R   0.779749 0.611026 0.305481 -0.133611
H87   H     H_    0.774584 0.425952 0.295707 0.127781
H88   H     H_    0.662912 0.443063 0.334615 0.125747
H89   H     H_    0.625888 0.566172 0.355602 0.112382
H90   H     H_    0.700229 0.674257 0.336639 0.125155
H91   H     H_    0.812443 0.658138 0.297699 0.127831
C211  C     C_R   0.466583 0.796825 0.292211 0.126291
C212  C     C_R   0.525890 0.764820 0.311637 -0.179984
C213  C     C_R   0.516748 0.698814 0.331275 -0.136483
C214  C     C_R   0.449146 0.663196 0.330714 -0.098553
C215  C     C_R   0.390047 0.694348 0.311082 -0.149353
C216  C     C_R   0.398269 0.761591 0.292471 -0.146070
H92   H     H_    0.578916 0.791293 0.311740 0.133367
H93   H     H_    0.562084 0.675417 0.346963 0.121056
H94   H     H_    0.442674 0.611684 0.345641 0.116187
H95   H     H_    0.337545 0.667053 0.310690 0.123524
H96   H     H_    0.351770 0.785788 0.277929 0.130754
C217  C     C_R   0.199282 0.444324 0.212132 0.150617
C218  C     C_R   0.201607 0.371515 0.199582 -0.170900
C219  C     C_R   0.265943 0.343043 0.184065 -0.148367
C220  C     C_R   0.328382 0.386858 0.181219 -0.118985
C221  C     C_R   0.326841 0.459032 0.194241 -0.119529
C222  C     C_R   0.262681 0.487694 0.209902 -0.103079
H97   H     H_    0.153678 0.336971 0.201943 0.126536
H98   H     H_    0.267357 0.286943 0.174375 0.121564
H99   H     H_    0.378025 0.364811 0.169079 0.123223
H100  H     H_    0.375466 0.492615 0.192356 0.114597
H101  H     H_    0.262181 0.543500 0.220219 0.120280
C223  C     C_R   0.554106 0.199262 0.212580 0.152246
C224  C     C_R   0.627575 0.203001 0.201018 -0.171337
C225  C     C_R   0.656392 0.268009 0.186184 -0.145213
C226  C     C_R   0.612450 0.329892 0.183340 -0.116131
C227  C     C_R   0.539700 0.327016 0.195510 -0.117294
C228  C     C_R   0.510538 0.262061 0.210239 -0.100830
H102  H     H_    0.662335 0.155609 0.203557 0.126858
H103  H     H_    0.712862 0.270502 0.177020 0.127654
H104  H     H_    0.634892 0.380115 0.171854 0.114294
H105  H     H_    0.506070 0.375251 0.193679 0.114061
H106  H     H_    0.454288 0.260583 0.219901 0.120021
C229  C     C_R   0.801555 0.564843 0.213301 0.157309
C230  C     C_R   0.797027 0.640039 0.206106 -0.159763
C231  C     C_R   0.731869 0.670241 0.192450 -0.142547
C232  C     C_R   0.670715 0.625765 0.186324 -0.115516
C233  C     C_R   0.674110 0.551254 0.194529 -0.114264
C234  C     C_R   0.739089 0.520857 0.208366 -0.107163
H107  H     H_    0.843933 0.675047 0.211133 0.120822
H108  H     H_    0.728800 0.728142 0.186709 0.120781
H109  H     H_    0.620652 0.649103 0.175363 0.125089
H110  H     H_    0.626357 0.517142 0.190245 0.111664
H111  H     H_    0.741020 0.463203 0.215066 0.114012
C235  C     C_R   0.448750 0.799808 0.209747 0.149963
C236  C     C_R   0.377528 0.798831 0.194396 -0.174387
C237  C     C_R   0.349108 0.735078 0.177833 -0.151512
C238  C     C_R   0.391274 0.671791 0.176785 -0.117550
C239  C     C_R   0.461874 0.672086 0.192363 -0.122170
C240  C     C_R   0.490707 0.735817 0.208820 -0.101491
H112  H     H_    0.344063 0.847324 0.195496 0.128361
H113  H     H_    0.294235 0.734718 0.166037 0.121429
H114  H     H_    0.369164 0.622397 0.164095 0.122048
H115  H     H_    0.493942 0.622697 0.191919 0.113678
H116  H     H_    0.545244 0.735352 0.221129 0.122748
C241  C     C_R   0.695602 0.928451 0.715140 0.156890
C242  C     C_R   0.697368 0.853278 0.707608 -0.161647
C243  C     C_R   0.761757 0.820751 0.694783 -0.142577
C244  C     C_R   0.824698 0.862978 0.689543 -0.118125
C245  C     C_R   0.824102 0.937362 0.698268 -0.116815
C246  C     C_R   0.760005 0.969962 0.711543 -0.103875
H117  H     H_    0.648964 0.820059 0.711822 0.121381
H118  H     H_    0.762734 0.762806 0.688978 0.121020
H119  H     H_    0.873927 0.838055 0.678793 0.130523
H120  H     H_    0.873215 0.969740 0.694704 0.113355
H121  H     H_    0.760152 0.027492 0.718668 0.115613
C247  C     C_R   0.045376 0.701461 0.709494 0.150113
C248  C     C_R   0.115240 0.702144 0.692647 -0.174148
C249  C     C_R   0.142414 0.765702 0.675402 -0.152178
C250  C     C_R   0.100468 0.829145 0.675239 -0.115531
C251  C     C_R   0.031359 0.829200 0.692393 -0.124538
C252  C     C_R   0.003724 0.765603 0.709460 -0.105012
H122  H     H_    0.148540 0.653492 0.692984 0.127790
H123  H     H_    0.196104 0.765827 0.662307 0.121375
H124  H     H_    0.121647 0.878339 0.661980 0.118122
H125  H     H_    0.999471 0.878717 0.692635 0.113805
H126  H     H_    0.950423 0.766267 0.723010 0.123936
C253  C     C_R   0.300770 0.055834 0.711112 0.152964
C254  C     C_R   0.300737 0.128935 0.699203 -0.185719
C255  C     C_R   0.238507 0.158724 0.682097 -0.142210
C256  C     C_R   0.175986 0.115983 0.676669 -0.111588
C257  C     C_R   0.174772 0.043705 0.689567 -0.124658
C258  C     C_R   0.236786 0.013714 0.707124 -0.097464
H127  H     H_    0.349023 0.162569 0.703058 0.127608
H128  H     H_    0.239194 0.214834 0.672940 0.130446
H129  H     H_    0.128693 0.139026 0.662431 0.132907
H130  H     H_    0.125932 0.010946 0.685836 0.112766
H131  H     H_    0.235488 0.957703 0.717071 0.120713
C259  C     C_R   0.966300 0.300020 0.708574 0.142667
C260  C     C_R   0.899318 0.297569 0.688468 -0.179343
C261  C     C_R   0.875941 0.233057 0.670535 -0.143008
C262  C     C_R   0.918504 0.170230 0.673140 -0.116436
C263  C     C_R   0.984690 0.171926 0.693502 -0.138862
C264  C     C_R   0.009109 0.236706 0.710814 -0.106735
H132  H     H_    0.865223 0.345580 0.686829 0.134528
H133  H     H_    0.824516 0.231595 0.654910 0.135331
H134  H     H_    0.899954 0.120103 0.659621 0.115613
H135  H     H_    0.016652 0.122739 0.696150 0.121525
H136  H     H_    0.060565 0.237312 0.726459 0.128195
C265  C     C_R   0.134587 0.504110 0.144718 0.117490
C266  C     C_R   0.169824 0.572289 0.144232 -0.138084
C267  C     C_R   0.230483 0.583743 0.120349 -0.167498
C268  C     C_R   0.256281 0.527445 0.096783 -0.113659
C269  C     C_R   0.221100 0.459682 0.096790 -0.132177
C270  C     C_R   0.160059 0.448090 0.120384 -0.120922
H137  H     H_    0.149919 0.616548 0.162107 0.123930
H138  H     H_    0.257237 0.636414 0.119885 0.117765
H139  H     H_    0.303282 0.536479 0.078352 0.123774
H140  H     H_    0.240962 0.416313 0.078361 0.119026
H141  H     H_    0.132781 0.395578 0.119863 0.135008
C271  C     C_R   0.489324 0.134056 0.145633 0.117907
C272  C     C_R   0.419765 0.165966 0.144891 -0.137106
C273  C     C_R   0.407734 0.229178 0.123103 -0.167546
C274  C     C_R   0.465238 0.261451 0.102634 -0.120229
C275  C     C_R   0.534406 0.229510 0.103183 -0.141106
C276  C     C_R   0.545963 0.164878 0.123590 -0.125047
H142  H     H_    0.375149 0.141885 0.161112 0.125122
H143  H     H_    0.354064 0.253539 0.122330 0.119932
H144  H     H_    0.456229 0.311274 0.086522 0.119520
H145  H     H_    0.579593 0.255119 0.088404 0.142459
H146  H     H_    0.599647 0.140287 0.123467 0.137631
C277  C     C_R   0.867281 0.521556 0.143387 0.107498
C278  C     C_R   0.821622 0.461346 0.136079 -0.151887
C279  C     C_R   0.759427 0.469373 0.112728 -0.156967
C280  C     C_R   0.743511 0.536994 0.095965 -0.138082
C281  C     C_R   0.790235 0.596327 0.101941 -0.129249
C282  C     C_R   0.852268 0.588610 0.125308 -0.094537
H147  H     H_    0.833489 0.408887 0.149022 0.126750
H148  H     H_    0.723330 0.423335 0.107886 0.139082
H149  H     H_    0.695021 0.543737 0.078371 0.124855
H150  H     H_    0.778041 0.648455 0.088749 0.131824
H151  H     H_    0.888010 0.635062 0.129928 0.132024
C283  C     C_R   0.517200 0.866088 0.144657 0.124831
C284  C     C_R   0.587021 0.834953 0.147087 -0.137517
C285  C     C_R   0.605021 0.775368 0.123636 -0.149327
C286  C     C_R   0.553380 0.746018 0.097959 -0.127056
C287  C     C_R   0.483976 0.776994 0.095110 -0.146260
C288  C     C_R   0.466031 0.837170 0.118097 -0.123727
H152  H     H_    0.627610 0.857386 0.166779 0.122878
H153  H     H_    0.659102 0.752013 0.125222 0.129050
H154  H     H_    0.567313 0.699461 0.080170 0.130203
H155  H     H_    0.444189 0.754595 0.074974 0.118435
H156  H     H_    0.412233 0.861008 0.115431 0.133195
C289  C     C_R   0.631724 0.972799 0.644695 0.106109
C290  C     C_R   0.681021 0.030672 0.639494 -0.151659
C291  C     C_R   0.745128 0.019827 0.618367 -0.153358
C292  C     C_R   0.758919 0.952116 0.601129 -0.139532
C293  C     C_R   0.708216 0.895447 0.604589 -0.128652
C294  C     C_R   0.644633 0.905685 0.626216 -0.094226
H157  H     H_    0.671100 0.083040 0.653004 0.128099
H158  H     H_    0.784584 0.063620 0.616146 0.138130
H159  H     H_    0.809044 0.943009 0.585380 0.125954
H160  H     H_    0.718832 0.843209 0.591134 0.131903
H161  H     H_    0.606281 0.860961 0.629409 0.134026
C295  C     C_R   0.971900 0.632912 0.645259 0.131097
C296  C     C_R   0.900452 0.659486 0.648904 -0.135233
C297  C     C_R   0.877251 0.718152 0.626094 -0.150368
C298  C     C_R   0.925557 0.751809 0.600313 -0.124998
C299  C     C_R   0.996533 0.725289 0.596190 -0.147038
C300  C     C_R   0.019453 0.665492 0.618194 -0.126284
H162  H     H_    0.862558 0.634064 0.668931 0.123487
H163  H     H_    0.821796 0.737694 0.628326 0.129588
H164  H     H_    0.907738 0.798252 0.583464 0.135508
H165  H     H_    0.033694 0.750858 0.575854 0.117667
H166  H     H_    0.074407 0.645039 0.614517 0.128516
C301  C     C_R   0.365489 0.999325 0.643499 0.115041
C302  C     C_R   0.327759 0.932556 0.641430 -0.139776
C303  C     C_R   0.266524 0.925248 0.617254 -0.161952
C304  C     C_R   0.242893 0.984262 0.594862 -0.123114
C305  C     C_R   0.280797 0.050526 0.596376 -0.139123
C306  C     C_R   0.342391 0.057866 0.620186 -0.108535
H167  H     H_    0.345801 0.886408 0.658529 0.123727
H168  H     H_    0.237376 0.873852 0.615875 0.117065
H169  H     H_    0.195286 0.978625 0.576323 0.122487
H170  H     H_    0.262415 0.096387 0.579261 0.124980
H171  H     H_    0.371544 0.109364 0.620935 0.139101
C307  C     C_R   0.051091 0.375564 0.648318 0.133507
C308  C     C_R   0.126779 0.369570 0.654112 -0.129178
C309  C     C_R   0.167497 0.320488 0.632069 -0.143829
C310  C     C_R   0.132696 0.274892 0.605215 -0.111434
C311  C     C_R   0.057379 0.280225 0.599402 -0.152520
C312  C     C_R   0.016706 0.331442 0.620197 -0.127264
H172  H     H_    0.154591 0.404944 0.674672 0.123963
H173  H     H_    0.226199 0.318371 0.635567 0.122596
H174  H     H_    0.164217 0.236057 0.588612 0.133160
H175  H     H_    0.030995 0.245470 0.578282 0.115158
H176  H     H_    0.958871 0.337046 0.614275 0.126958

loop_
_geom_bond_atom_site_label_1
_geom_bond_atom_site_label_2
_ccdc_geom_bond_type
C79   C139  S    
C243  C244  A    
C161  H49   S    
C130  C146  A    
C241  C242  A    
C281  C282  A    
C34   C42   A    
C260  C261  A    
C13   C25   A    
C271  C272  A    
C193  C194  A    
C165  H53   S    
C248  C249  A    
O42   Zn2   S    
C40   C46   A    
C184  H69   S    
C263  H135  S    
O1    Zn11  S    
C111  H47   S    
C55   C59   A    
C198  H81   S    
C206  H87   S    
C21   C33   A    
O35   Zn13  S    
C85   H21   S    
C273  H143  S    
C63   O17   A    
C269  H140  S    
C119  C130  A    
C213  C214  A    
C30   C38   A    
C176  H62   S    
O2    Zn2   S    
C117  C132  A    
C268  H139  S    
C206  C207  A    
C226  C227  A    
C65   O21   A    
C118  C131  A    
C8    C168  A    
C108  H44   S    
C283  C284  A    
C222  H101  S    
C84   C117  A    
O50   Zn6   S    
C295  C300  A    
C173  H60   S    
C187  C188  A    
C51   C57   A    
C144  C160  A    
C129  C145  A    
C238  H114  S    
C69   O25   A    
C138  C154  A    
C274  H144  S    
C286  H154  S    
C155  C158  A    
C82   C98   A    
C309  H173  S    
C142  C158  A    
O28   Zn12  S    
C27   C205  S    
C136  C152  A    
C302  C303  A    
O48   Zn6   S    
C298  H164  S    
O20   Zn8   S    
C191  C192  A    
C27   C31   A    
C289  C294  A    
C61   O15   A    
C91   C107  A    
C28   C32   A    
C147  C150  A    
C196  C197  A    
C121  C128  A    
C3    C8    S    
C259  C260  A    
C294  H161  S    
C74   O48   A    
C202  H84   S    
C123  C126  A    
C116  C133  A    
C287  C288  A    
C265  C266  A    
C182  C183  A    
C5    C161  A    
C22   C175  S    
C231  H108  S    
C55   C301  S    
C189  H73   S    
C113  C120  A    
C91   H27   S    
C1    O7    A    
C15   C27   A    
C256  H129  S    
C16   C20   A    
C115  C118  A    
C89   H25   S    
C203  C204  A    
C72   O42   A    
C177  C178  A    
O26   Zn10  S    
C137  C153  A    
C268  C269  A    
C57   C61   S    
C74   O30   A    
C75   C143  S    
C228  H106  S    
C140  C156  A    
C66   C136  S    
C296  H162  S    
C95   C122  A    
C141  C157  A    
C172  C173  A    
C105  C112  A    
C306  H171  S    
C217  C218  A    
C107  C110  A    
C36   C44   A    
C37   C45   A    
C219  C220  A    
C285  C286  A    
C257  H130  S    
C66   O22   A    
C303  H168  S    
C305  H170  S    
C4    O10   A    
C85   C116  A    
C272  H142  S    
C292  C293  A    
C92   H28   S    
C69   O43   A    
C70   O44   A    
C115  C134  A    
C224  C225  A    
C59   C63   S    
C60   C64   S    
C79   O35   A    
C254  C255  A    
C308  H172  S    
C269  C270  A    
C33   C41   A    
C311  H175  S    
O39   Zn1   S    
C231  C232  A    
C237  C238  A    
C156  H12   S    
C9    C21   A    
C293  C294  A    
C36   C259  S    
C10   C18   A    
C11   C23   A    
C199  C200  A    
C215  H95   S    
C201  C202  A    
C179  H65   S    
C239  H115  S    
C64   O18   A    
C69   C129  S    
C212  H92   S    
C205  C206  A    
C251  H125  S    
O45   Zn7   S    
O27   Zn9   S    
O46   Zn8   S    
O30   Zn14  S    
C43   C47   A    
O18   Zn6   S    
C54   C295  S    
C44   C48   A    
C163  H51   S    
C39   C51   A    
C207  H88   S    
O36   Zn16  S    
C200  C201  A    
C209  H90   S    
C77   O51   A    
C202  C203  A    
C78   O52   A    
C128  C137  A    
C92   C125  A    
C68   O38   A    
C211  C212  A    
C90   C127  A    
C105  H41   S    
C252  H126  S    
C262  C263  A    
C108  C109  A    
C181  C186  A    
C223  C228  A    
C28   C211  S    
C96   C121  A    
O3    Zn15  S    
C5    C163  A    
C110  H46   S    
O2    Zn12  S    
C75   O31   A    
C266  H137  S    
C311  C312  A    
C208  C209  A    
C194  H77   S    
C49   C57   A    
C178  H64   S    
C122  C127  A    
C219  H98   S    
O31   Zn15  S    
C302  H167  S    
C67   O23   A    
C183  H68   S    
C92   C108  A    
C52   C283  S    
C241  C246  A    
C131  C147  A    
C281  H150  S    
C35   C43   A    
C192  H76   S    
C193  C198  A    
C2    O8    A    
C39   C45   A    
C3    O11   A    
C195  H78   S    
C33   C241  S    
C77   O33   A    
C296  C297  A    
C4    O12   A    
C121  C144  A    
C122  C143  A    
C4    C7    S    
C275  C276  A    
C88   C104  A    
C106  C111  A    
C125  C140  A    
C22   C34   A    
C153  H9    S    
C126  C139  A    
C86   H22   S    
C213  H93   S    
C120  C129  A    
C253  C254  A    
C21   C169  S    
C230  C231  A    
C225  C226  A    
C164  H52   S    
C266  C267  A    
C299  C300  A    
O52   Zn8   S    
C233  H110  S    
C76   O46   A    
C86   C115  A    
C210  H91   S    
C93   H29   S    
C169  C170  A    
C226  H104  S    
C274  C275  A    
C139  C155  A    
C190  H74   S    
C50   C271  S    
C70   C132  S    
C272  C273  A    
C41   C47   A    
C42   C48   A    
C52   C58   A    
C102  H38   S    
C41   C53   A    
C101  H37   S    
C43   C55   A    
C26   C30   A    
C191  H75   S    
C264  H136  S    
C124  C141  A    
O22   Zn10  S    
C2    C5    S    
C196  H79   S    
C26   C199  S    
C291  C292  A    
C86   C102  A    
C244  C245  A    
O33   Zn15  S    
C51   C277  S    
C287  H155  S    
C96   H32   S    
C7    C167  A    
C234  H111  S    
C99   H35   S    
O3    Zn13  S    
C17   C47   A    
C97   H33   S    
C189  C190  A    
O14   Zn2   S    
C18   C48   A    
C284  C285  A    
C19   C45   A    
C12   C24   A    
C177  H63   S    
C247  C248  A    
C153  C160  A    
C229  C234  A    
C154  C159  A    
C220  H99   S    
C25   C193  S    
C288  H156  S    
C218  H97   S    
C80   C138  S    
C100  C101  A    
C67   O37   A    
C32   C235  S    
C174  H61   S    
C112  H48   S    
O51   Zn5   S    
C38   C46   A    
C145  C152  A    
C53   C289  S    
C247  C252  A    
C2    O6    A    
O11   Zn13  S    
C12   C162  A    
C257  C258  A    
C255  C256  A    
C89   C105  A    
C305  C306  A    
O1    Zn1   S    
C15   C165  A    
C292  H159  S    
C246  H121  S    
C20   C46   A    
C93   C109  A    
C244  H119  S    
C58   C62   S    
C224  H102  S    
C162  H50   S    
C218  C219  A    
C277  C282  A    
C308  C309  A    
C166  H54   S    
C270  H141  S    
C73   C141  S    
C284  H152  S    
C10   C22   A    
C15   C19   A    
C304  C305  A    
C82   H18   S    
C77   C137  S    
C225  H103  S    
C170  C171  A    
O47   Zn5   S    
C107  H43   S    
C242  C243  A    
C88   C113  A    
C212  C213  A    
C11   C161  A    
C62   O16   A    
C251  C252  A    
C307  C308  A    
C190  C191  A    
C71   O27   A    
C310  H174  S    
C9    C163  A    
C249  C250  A    
C229  C230  A    
O15   Zn3   S    
C209  C210  A    
O16   Zn4   S    
C127  C138  A    
O10   Zn16  S    
C70   O26   A    
C211  C216  A    
C208  H89   S    
C94   C123  A    
O34   Zn14  S    
C7    C165  A    
C181  C182  A    
C79   O49   A    
C83   C99   A    
C279  C280  A    
C25   C29   A    
C278  C279  A    
C65   O39   A    
C157  H13   S    
C82   C119  A    
C66   O40   A    
O3    Zn5   S    
C155  H11   S    
C283  C288  A    
C175  C180  A    
C145  H1    S    
C151  H7    S    
C13   C19   A    
C178  C179  A    
C50   C58   A    
C14   C20   A    
C227  C228  A    
C90   C106  A    
O8    Zn10  S    
C171  C172  A    
C263  C264  A    
C245  C246  A    
O21   Zn9   S    
C280  H149  S    
C94   C110  A    
C68   O24   A    
C1    C6    S    
O3    Zn7   S    
C84   C100  A    
C278  H147  S    
C67   C135  S    
C250  C251  A    
C310  C311  A    
C56   C307  S    
C37   C49   A    
C44   C56   A    
C195  C196  A    
O37   Zn3   S    
C265  C270  A    
O38   Zn4   S    
C78   O34   A    
C24   C187  S    
C24   C36   A    
C186  H71   S    
C167  H55   S    
C275  H145  S    
C114  C135  A    
C73   O29   A    
C279  H148  S    
C6    C164  A    
C182  H67   S    
C291  H158  S    
C23   C35   A    
C259  C264  A    
C154  H10   S    
C73   O47   A    
C235  C236  A    
C84   H20   S    
C230  H107  S    
C253  C258  A    
C49   C265  S    
C87   H23   S    
C221  C222  A    
O4    Zn6   S    
O9    Zn15  S    
C88   H24   S    
C74   C144  S    
C185  H70   S    
C11   C17   A    
C237  H113  S    
C297  H163  S    
C103  H39   S    
C223  C224  A    
C78   C140  S    
C227  H105  S    
C197  H80   S    
C143  C159  A    
C171  H58   S    
C64   O20   A    
O2    Zn10  S    
C260  H132  S    
O44   Zn4   S    
C109  H45   S    
C300  H166  S    
C62   O14   A    
C31   C229  S    
C68   C134  S    
C3    O9    A    
C188  C189  A    
C271  C276  A    
C42   C54   A    
C100  H36   S    
C135  C151  A    
C123  C142  A    
C290  C291  A    
C104  H40   S    
C97   C104  A    
C185  C186  A    
C56   C60   A    
C170  H57   S    
C99   C102  A    
C261  C262  A    
C273  C274  A    
C29   C37   A    
C236  H112  S    
O7    Zn9   S    
O4    Zn14  S    
C258  H131  S    
O12   Zn14  S    
C255  H128  S    
C89   C128  A    
C16   C28   A    
C299  H165  S    
C91   C126  A    
C173  C174  A    
O13   Zn1   S    
C290  H157  S    
C93   C124  A    
C267  C268  A    
C245  H120  S    
C220  C221  A    
C238  C239  A    
C53   C59   A    
C250  H124  S    
C54   C60   A    
C197  C198  A    
C96   C112  A    
C81   C120  A    
C286  C287  A    
C301  C302  A    
C176  C177  A    
C201  H83   S    
C83   C118  A    
C309  C310  A    
C30   C223  S    
C216  H96   S    
C188  H72   S    
C13   C167  A    
O6    Zn12  S    
C298  C299  A    
C134  C150  A    
C276  H146  S    
C116  C117  A    
C289  C290  A    
C87   C114  A    
C35   C253  S    
O19   Zn7   S    
C215  C216  A    
C6    C162  A    
C16   C166  A    
C113  C136  A    
C90   H26   S    
C98   C103  A    
O40   Zn2   S    
C233  C234  A    
C80   O36   A    
C169  C174  A    
C204  H86   S    
C249  H123  S    
O4    Zn8   S    
C256  C257  A    
C304  H169  S    
C71   O41   A    
C203  H85   S    
C83   H19   S    
C168  H56   S    
C76   O32   A    
C217  C222  A    
C81   H17   S    
C147  H3    S    
C199  C204  A    
C242  H117  S    
O1    Zn3   S    
C172  H59   S    
C267  H138  S    
C243  H118  S    
C307  C312  A    
O49   Zn7   S    
C133  C149  A    
C148  C149  A    
O23   Zn11  S    
O24   Zn12  S    
C285  H153  S    
O41   Zn3   S    
C75   O45   A    
C303  C304  A    
C40   C52   A    
C71   C131  S    
O43   Zn1   S    
C293  H160  S    
C14   C26   A    
C146  C151  A    
C94   H30   S    
O1    Zn9   S    
C261  H133  S    
C214  H94   S    
C184  C185  A    
C29   C217  S    
C34   C247  S    
C236  C237  A    
C277  C278  A    
C63   O19   A    
C80   O50   A    
O4    Zn16  S    
O2    Zn4   S    
C254  H127  S    
C72   O28   A    
C23   C181  S    
C158  H14   S    
C205  C210  A    
C8    C166  A    
C235  C240  A    
C9    C17   A    
C175  C176  A    
C150  H6    S    
C146  H2    S    
C87   C103  A    
O32   Zn16  S    
C85   C101  A    
C179  C180  A    
C239  C240  A    
C232  C233  A    
C280  C281  A    
C10   C164  A    
C132  C148  A    
C98   H34   S    
O29   Zn13  S    
C114  C119  A    
O17   Zn5   S    
C106  H42   S    
C248  H122  S    
C72   C130  S    
C312  H176  S    
C38   C50   A    
C207  C208  A    
C232  H109  S    
C61   O13   A    
C240  H116  S    
C95   C111  A    
C214  C215  A    
C180  H66   S    
C301  C306  A    
C282  H151  S    
C81   C97   A    
C262  H134  S    
C200  H82   S    
C148  H4    S    
C31   C39   A    
C149  H5    S    
C32   C40   A    
C183  C184  A    
C221  H100  S    
C152  H8    S    
C1    O5    A    
C156  C157  A    
C295  C296  A    
O5    Zn11  S    
C95   H31   S    
C194  C195  A    
O25   Zn11  S    
C12   C18   A    
C187  C192  A    
C297  C298  A    
C159  H15   S    
C14   C168  A    
C160  H16   S    
C65   C133  S    
C124  C125  A    
C76   C142  S    
