data_mof_unit_43656.cif
_audit_creation_date              2012-12-10T17:24:42-0500
_audit_creation_method            fapswitch 2.2
_symmetry_space_group_name_H-M    P1
_symmetry_Int_Tables_number       1
_space_group_crystal_system       triclinic
_cell_length_a                    23.525827
_cell_length_b                    10.851843
_cell_length_c                    9.604655
_cell_angle_alpha                 89.820504
_cell_angle_beta                  89.422991
_cell_angle_gamma                 92.963228
_cell_volume                      2448.6356322

loop_
_atom_site_label
_atom_site_type_symbol
_atom_type_description
_atom_site_fract_x
_atom_site_fract_y
_atom_site_fract_z
_atom_type_partial_charge
C1    C     C_R   0.504335 0.263126 0.500737 0.806695
C2    C     C_R   0.964222 0.288639 0.468266 -0.149512
C3    C     C_R   0.023369 0.284376 0.469060 0.155141
C4    C     C_R   0.057356 0.395167 0.491699 -0.017529
C5    C     C_R   0.030219 0.508127 0.514934 -0.084883
C6    C     C_R   0.063162 0.619560 0.537556 -0.020569
C7    C     C_R   0.035337 0.729216 0.574324 0.090191
C8    C     C_R   0.974978 0.728834 0.574263 -0.022607
C9    C     C_R   0.117491 0.397896 0.492495 0.534110
C10   C     C_R   0.123189 0.616002 0.524711 0.539751
C11   C     C_R   0.239859 0.528767 0.627143 -0.103920
C12   C     C_R   0.391050 0.500214 0.500620 0.805824
C13   C     C_R   0.299051 0.526894 0.625957 -0.225180
C14   C     C_R   0.328526 0.502218 0.501958 -0.041060
C15   C     C_R   0.297714 0.480304 0.379039 -0.213881
C16   C     C_R   0.238475 0.482042 0.380554 -0.098527
C17   C     C_R   0.209372 0.506091 0.504631 0.368420
C18   C     C_R   0.760586 0.517177 0.625065 -0.097207
C19   C     C_R   0.701352 0.514907 0.624840 -0.220322
C20   C     C_R   0.671602 0.503234 0.498910 -0.039559
C21   C     C_R   0.702278 0.494149 0.373219 -0.216150
C22   C     C_R   0.761638 0.495755 0.373887 -0.097244
C23   C     C_R   0.496605 0.737344 0.501137 0.786044
C24   C     C_R   0.790865 0.507255 0.499844 0.356642
C25   C     C_R   0.533295 0.119349 0.756396 -0.164269
C26   C     C_R   0.524763 0.059706 0.884095 -0.149843
C27   C     C_R   0.496197 0.944647 0.889400 -0.137137
C28   C     C_R   0.481460 0.884079 0.766168 -0.154149
C29   C     C_R   0.495812 0.937804 0.634583 0.098237
C30   C     C_R   0.513230 0.063841 0.631458 0.092354
C31   C     C_R   0.509121 0.129194 0.503918 -0.118818
C32   C     C_R   0.501833 0.064144 0.379151 -0.200314
C33   C     C_R   0.496875 0.936784 0.379962 -0.208368
C34   C     C_R   0.608980 0.500962 0.499441 0.778847
C35   C     C_R   0.493863 0.871886 0.506194 -0.111032
C36   C     C_R   0.575996 0.663968 0.141615 -0.151866
C37   C     C_R   0.613069 0.744632 0.068438 -0.212537
C38   C     C_R   0.613178 0.744704 0.924943 -0.187948
C39   C     C_R   0.576204 0.664151 0.853712 -0.142119
C40   C     C_R   0.537588 0.580299 0.923928 0.156134
C41   C     C_R   0.537461 0.580363 0.073442 0.189881
C42   C     C_R   0.464308 0.424212 0.077354 -0.069270
C43   C     C_R   0.463217 0.424042 0.929845 0.238635
C44   C     C_R   0.882059 0.617433 0.522842 0.562890
C45   C     C_R   0.877977 0.400415 0.485463 0.545265
C46   C     C_R   0.937423 0.398953 0.489180 -0.042309
C47   C     C_R   0.970037 0.509296 0.514486 -0.034825
C48   C     C_R   0.942201 0.620136 0.537744 -0.079550
Cu1   Cu    Cu3+1 0.500000 0.499990 0.640660 0.920223
Cu2   Cu    Cu3+1 0.500000 0.500010 0.359340 0.931981
H1    H     H_    0.938711 0.204285 0.450045 0.191022
H2    H     H_    0.678959 0.522548 0.723276 0.163578
H3    H     H_    0.680490 0.485340 0.274667 0.164041
H4    H     H_    0.784961 0.488304 0.276744 0.142097
H5    H     H_    0.500065 0.111603 0.279996 0.161799
H6    H     H_    0.556713 0.207621 0.757134 0.169086
H7    H     H_    0.538855 0.104404 0.979220 0.138613
H8    H     H_    0.486531 0.900927 0.988940 0.137956
H9    H     H_    0.457204 0.797402 0.776876 0.167562
H10   H     H_    0.494587 0.889220 0.280999 0.163768
H11   H     H_    0.435206 0.363625 0.136965 0.144614
H12   H     H_    0.579361 0.671460 0.251362 0.202864
H13   H     H_    0.641901 0.807701 0.123800 0.165079
H14   H     H_    0.642002 0.808035 0.868033 0.166728
H15   H     H_    0.579538 0.672772 0.743850 0.202995
H16   H     H_    0.217564 0.547530 0.723337 0.135608
H17   H     H_    0.321655 0.545757 0.721786 0.151137
H18   H     H_    0.319303 0.461086 0.281985 0.154931
H19   H     H_    0.215113 0.464685 0.285443 0.137758
H20   H     H_    0.783074 0.526087 0.722658 0.144947
N1    N     N_R   0.851802 0.508496 0.501502 -0.471530
N2    N     N_R   0.148343 0.506732 0.506790 -0.469645
N3    N     N_R   0.500540 0.501210 0.147910 -0.216416
N4    N     N_R   0.500560 0.501290 0.852040 -0.202776
O1    O     O_R   0.500000 0.319640 0.618810 -0.592284
O2    O     O_2   0.846373 0.294601 0.465630 -0.529532
O3    O     O_2   0.145671 0.293455 0.479600 -0.544092
O4    O     O_2   0.156805 0.720383 0.526392 -0.541988
O5    O     O_R   0.500000 0.319660 0.381240 -0.578307
O6    O     O_R   0.417880 0.499950 0.618810 -0.582019
O7    O     O_R   0.417880 0.499980 0.381240 -0.578549
O8    O     O_R   0.500000 0.680340 0.618760 -0.611514
O9    O     O_R   0.500000 0.680360 0.381190 -0.596327
O10   O     O_R   0.582120 0.500020 0.618760 -0.602412
O11   O     O_R   0.582120 0.500050 0.381190 -0.596640
O12   O     O_2   0.853715 0.722290 0.525653 -0.503297
C49   C     C_3   0.047657 0.159961 0.443256 -0.756175
H21   H     H_    0.075293 0.164031 0.348820 0.262397
H22   H     H_    0.071796 0.131222 0.535529 0.258015
H23   H     H_    0.014029 0.086380 0.424858 0.192132
C50   C     C_3   0.417723 0.339952 0.865375 -0.767570
H24   H     H_    0.435211 0.273929 0.792114 0.260924
H25   H     H_    0.394799 0.281486 0.945182 0.175778
H26   H     H_    0.384636 0.394058 0.817373 0.235470
C51   C     C_3   0.069572 0.843988 0.623083 -0.755470
H27   H     H_    0.099949 0.818485 0.704748 0.261103
H28   H     H_    0.092413 0.889061 0.533336 0.265515
H29   H     H_    0.044114 0.915150 0.672306 0.193686
C52   C     C_2   0.946886 0.841905 0.618402 0.489452
H30   H     H_    0.955243 0.927770 0.561894 0.046343
O13   O     O_2   0.916217 0.840499 0.721802 -0.495215

loop_
_geom_bond_atom_site_label_1
_geom_bond_atom_site_label_2
_ccdc_geom_bond_type
C18   H20   S    
C49   H21   S    
C23   O8    A    
C45   N1    A    
C51   H27   S    
C25   H6    S    
Cu2   O5    S    
C10   O4    S    
C51   H29   S    
C7    C8    A    
C22   H4    S    
C45   C46   A    
C2    C46   A    
C5    C47   A    
C26   C27   A    
C29   C30   A    
C23   O9    A    
C45   O2    S    
C18   C24   A    
Cu1   O10   S    
C28   C29   A    
C8    C52   S    
C30   C31   A    
C36   H12   S    
C15   C16   A    
C1    C31   S    
C44   N1    A    
C18   C19   A    
Cu2   O11   S    
C19   H2    S    
C11   C17   A    
C31   C32   A    
C16   C17   A    
C9    N2    A    
C32   H5    S    
C11   H16   S    
C20   C34   S    
C43   N4    A    
C21   C22   A    
C39   H15   S    
C36   C41   A    
C34   O10   A    
C44   O12   S    
C37   H13   S    
Cu2   O9    S    
C38   H14   S    
C38   C39   A    
C3    C49   S    
C1    O1    A    
Cu2   N3    S    
C50   H24   S    
C25   C26   A    
C43   C50   S    
C34   O11   A    
Cu1   O8    S    
C8    C48   A    
C37   C38   A    
C50   H25   S    
C47   C48   A    
Cu1   O1    S    
C9    O3    S    
C42   H11   S    
C40   C41   A    
C52   O13   D    
C12   C14   S    
C33   H10   S    
C23   C35   S    
C49   H22   S    
C1    O5    A    
C22   C24   A    
C42   C43   A    
C3    C4    A    
C39   C40   A    
C13   H17   S    
C28   H9    S    
C25   C30   A    
C46   C47   A    
C36   C37   A    
C42   N3    A    
C14   C15   A    
C16   H19   S    
C4    C5    A    
C27   H8    S    
C6    C10   A    
C51   H28   S    
C6    C7    A    
C7    C51   S    
C29   C35   A    
Cu1   O6    S    
C32   C33   A    
C19   C20   A    
C2    C3    A    
C52   H30   S    
C50   H26   S    
C21   H3    S    
C11   C13   A    
C5    C6    A    
C15   H18   S    
C12   O6    A    
C33   C35   A    
C40   N4    A    
C12   O7    A    
C26   H7    S    
C2    H1    S    
C41   N3    A    
C20   C21   A    
C24   N1    S    
C17   N2    S    
Cu1   Cu2   S    
C49   H23   S    
C27   C28   A    
Cu1   N4    S    
C4    C9    A    
C13   C14   A    
C44   C48   A    
Cu2   O7    S    
C10   N2    A    
