data_mof_unit_33945.cif
_audit_creation_date              2012-12-10T19:44:40-0500
_audit_creation_method            fapswitch 2.2
_symmetry_space_group_name_H-M    P1
_symmetry_Int_Tables_number       1
_space_group_crystal_system       triclinic
_cell_length_a                    8.799096
_cell_length_b                    14.817199
_cell_length_c                    14.153243
_cell_angle_alpha                 91.033532
_cell_angle_beta                  96.744003
_cell_angle_gamma                 89.60588
_cell_volume                      1832.18382839

loop_
_atom_site_label
_atom_site_type_symbol
_atom_type_description
_atom_site_fract_x
_atom_site_fract_y
_atom_site_fract_z
_atom_type_partial_charge
C1    C     C_R   0.496344 0.325509 0.498529 1.024615
C2    C     C_R   0.429658 0.433798 0.889767 -0.272703
C3    C     C_R   0.478788 0.509338 0.052045 0.064927
C4    C     C_R   0.481080 0.509892 0.945155 0.052307
C5    C     C_R   0.202726 0.499096 0.476155 0.963769
C6    C     C_R   0.798049 0.497546 0.523174 0.943158
C7    C     C_2   0.042380 0.508009 0.463008 0.139232
C8    C     C_2   0.958771 0.481639 0.532616 0.072801
C9    C     C_R   0.604009 0.083838 0.557532 -0.245651
C10   C     C_R   0.468132 0.911924 0.420541 -0.263079
C11   C     C_R   0.554131 0.171405 0.572226 0.436868
C12   C     C_R   0.508846 0.673485 0.501138 1.035888
C13   C     C_R   0.433144 0.823250 0.436024 0.313598
C14   C     C_R   0.507135 0.225370 0.491936 -0.345925
C15   C     C_R   0.532405 0.771782 0.499907 -0.301959
C16   C     C_R   0.493315 0.183745 0.399469 0.281293
C17   C     C_R   0.669488 0.811614 0.545990 0.219508
C18   C     C_R   0.565456 0.100013 0.386332 0.354649
C19   C     C_R   0.714828 0.896758 0.515552 0.343842
C20   C     C_R   0.610180 0.047854 0.466488 -0.033565
C21   C     C_R   0.606804 0.949175 0.459527 0.007774
C22   C     C_R   0.206924 0.446953 0.044323 0.057062
C23   C     C_R   0.357720 0.471617 0.097183 -0.075502
C24   C     C_R   0.128868 0.507236 0.979575 -0.093310
C25   C     C_R   0.984337 0.485534 0.933034 -0.103440
C26   C     C_R   0.915150 0.404264 0.951538 -0.108517
C27   C     C_R   0.991100 0.344015 0.015866 -0.047390
C28   C     C_R   0.136173 0.365077 0.062066 -0.134797
C29   C     C_R   0.579889 0.671865 0.943248 0.097923
C30   C     C_R   0.473476 0.717992 0.993485 -0.114376
C31   C     C_R   0.509730 0.802041 0.036423 -0.104039
C32   C     C_R   0.651687 0.841172 0.028933 -0.064244
C33   C     C_R   0.757796 0.796277 0.978627 -0.082437
C34   C     C_R   0.541407 0.582804 0.896923 -0.087013
C35   C     C_R   0.722244 0.712106 0.935809 -0.105030
C36   C     C_R   0.375936 0.464653 0.197691 0.117069
C37   C     C_R   0.556183 0.572917 0.799077 -0.007927
C38   C     C_R   0.601956 0.548576 0.210076 0.122900
C39   C     C_R   0.433393 0.432424 0.791097 0.141965
C40   C     C_R   0.602561 0.546398 0.111632 -0.272294
H1    H     H_    0.627461 0.039819 0.617747 0.223235
H2    H     H_    0.872698 0.389723 0.734441 0.379145
H3    H     H_    0.643426 0.277778 0.804265 0.361953
H4    H     H_    0.350632 0.774193 0.240928 0.341880
H5    H     H_    0.149525 0.305110 0.297054 0.376026
H6    H     H_    0.592448 0.844965 0.736494 0.376468
H7    H     H_    0.779347 0.976407 0.218856 0.378346
H8    H     H_    0.053135 0.026637 0.474622 0.395964
H9    H     H_    0.178888 0.571382 0.965652 0.135652
H10   H     H_    0.925629 0.531833 0.882777 0.148658
H11   H     H_    0.802682 0.388073 0.916077 0.134352
H12   H     H_    0.383384 0.953802 0.380282 0.229023
H13   H     H_    0.937437 0.280965 0.030094 0.173888
H14   H     H_    0.193174 0.317403 0.111466 0.191872
H15   H     H_    0.362465 0.689142 0.999281 0.135327
H16   H     H_    0.427447 0.837052 0.075153 0.172143
H17   H     H_    0.679148 0.906469 0.061703 0.167156
H18   H     H_    0.867591 0.826779 0.972626 0.169490
H19   H     H_    0.805795 0.678384 0.897056 0.151533
H20   H     H_    0.285494 0.435818 0.232726 0.166661
H21   H     H_    0.606685 0.625269 0.762537 0.238883
H22   H     H_    0.681449 0.591016 0.251950 0.207612
H23   H     H_    0.381939 0.377365 0.749115 0.236536
H24   H     H_    0.698436 0.576439 0.082875 0.163758
H25   H     H_    0.384911 0.375569 0.922104 0.191974
H26   H     H_    0.045724 0.607138 0.223489 0.372035
N1    N     N_R   0.500000 0.499980 0.252470 -0.102749
N2    N     N_R   0.500000 0.500020 0.747530 -0.123425
O1    O     O_R   0.500010 0.369070 0.579480 -0.559254
O2    O     O_2   0.868173 0.635976 0.371709 -0.291789
O3    O     O_3   0.102186 0.593403 0.286376 -0.448336
O4    O     O_2   0.143206 0.345527 0.601808 -0.233494
O5    O     O_2   0.108096 0.474029 0.709363 -0.321717
O6    O     O_3   0.888891 0.357863 0.674289 -0.470801
O7    O     O_2   0.355170 0.226038 0.689340 -0.238242
O8    O     O_2   0.550555 0.119565 0.753891 -0.281510
O9    O     O_3   0.634388 0.284071 0.734274 -0.545980
O10   O     O_2   0.189675 0.716322 0.438872 -0.208865
O11   O     O_2   0.147935 0.856377 0.350544 -0.223027
O12   O     O_R   0.499990 0.630930 0.420520 -0.588268
O13   O     O_3   0.299757 0.728174 0.276048 -0.511536
O14   O     O_2   0.438920 0.273672 0.236149 -0.280804
O15   O     O_2   0.269919 0.146870 0.256958 -0.229198
O16   O     O_3   0.229610 0.294101 0.350919 -0.562528
O17   O     O_2   0.797630 0.673554 0.648770 -0.293900
O18   O     O_2   0.885159 0.822333 0.704410 -0.195697
O19   O     O_3   0.610935 0.779269 0.729721 -0.578311
O20   O     O_2   0.465708 0.013209 0.220882 -0.276350
O21   O     O_2   0.647065 0.136993 0.213449 -0.225176
O22   O     O_3   0.749670 0.985154 0.283753 -0.484809
O23   O     O_R   0.500010 0.369060 0.420520 -0.582027
O24   O     O_2   0.920819 0.988814 0.635647 -0.241302
O25   O     O_2   0.017202 0.861411 0.546000 -0.179116
O26   O     O_3   0.944713 0.009607 0.456934 -0.463062
O27   O     O_R   0.499990 0.630940 0.579480 -0.581588
O28   O     O_R   0.271750 0.500000 0.560890 -0.584121
O29   O     O_R   0.728250 0.500000 0.439110 -0.587025
O30   O     O_R   0.271750 0.499990 0.401930 -0.566571
O31   O     O_R   0.728250 0.500010 0.598070 -0.584039
O32   O     O_2   0.881578 0.483730 0.294571 -0.352573
S1    S     S_3+6 0.968636 0.556915 0.352036 0.042516
S2    S     S_3+6 0.030730 0.413949 0.631706 0.057189
S3    S     S_3+6 0.520105 0.199480 0.690188 0.069926
S4    S     S_3+6 0.259850 0.781139 0.376328 0.116134
S5    S     S_3+6 0.356762 0.224456 0.306648 0.072672
S6    S     S_3+6 0.749922 0.770284 0.658159 0.054551
S7    S     S_3+6 0.603805 0.059594 0.271870 0.095896
S8    S     S_3+6 0.904801 0.938504 0.541853 0.137417
Zn1   Zn    Zn3+2 0.500000 0.500010 0.606140 1.096724
Zn2   Zn    Zn3+2 0.500000 0.499990 0.393860 1.106646

loop_
_geom_bond_atom_site_label_1
_geom_bond_atom_site_label_2
_ccdc_geom_bond_type
C33   H18   S    
O30   Zn2   S    
C34   C37   A    
C39   N2    A    
C3    C23   A    
C2    H25   S    
C10   H12   S    
O2    S1    D    
C7    C8    D    
O26   S8    S    
C26   C27   A    
H8    O26   S    
O23   Zn2   S    
C19   C21   A    
O22   S7    S    
O25   S8    D    
C30   C31   A    
C11   C14   A    
O31   Zn1   S    
C37   N2    A    
C35   H19   S    
O14   S5    D    
C18   S7    S    
N1    Zn2   S    
C17   C19   A    
C25   H10   S    
O1    Zn1   S    
C2    C39   A    
O24   S8    D    
C31   C32   A    
C12   O27   A    
C31   H16   S    
C18   C20   A    
O6    S2    S    
C19   S8    S    
O8    S3    D    
O3    S1    S    
C1    O23   A    
C22   C28   A    
O7    S3    D    
O18   S6    D    
C32   H17   S    
C10   C21   A    
C4    C34   A    
C36   N1    A    
H2    O6    S    
O10   S4    D    
C6    O29   A    
C24   C25   A    
H4    O13   S    
O27   Zn1   S    
C5    C7    S    
O20   S7    D    
C28   H14   S    
C6    C8    S    
C25   C26   A    
C29   C34   S    
C1    O1    A    
O15   S5    D    
C2    C4    A    
C29   C30   A    
C9    C20   A    
H26   O3    S    
C12   C15   S    
O21   S7    D    
O16   S5    S    
C5    O30   A    
C13   S4    S    
C9    C11   A    
C16   S5    S    
O5    S2    D    
C3    C40   A    
C13   C15   A    
H7    O22   S    
C14   C16   A    
O11   S4    D    
O9    S3    S    
H5    O16   S    
O17   S6    D    
C38   N1    A    
C5    O28   A    
H6    O19   S    
C30   H15   S    
C24   H9    S    
C15   C17   A    
C36   H20   S    
C10   C13   A    
C37   H21   S    
C27   H13   S    
H3    O9    S    
C39   H23   S    
O28   Zn1   S    
C29   C35   A    
C9    H1    S    
C40   H24   S    
C6    O31   A    
C26   H11   S    
C32   C33   A    
C38   C40   A    
O29   Zn2   S    
O19   S6    S    
O4    S2    D    
C12   O12   A    
O32   S1    D    
C33   C35   A    
C22   C24   A    
N2    Zn1   S    
C20   C21   S    
C16   C18   A    
C23   C36   A    
C7    S1    S    
O12   Zn2   S    
C27   C28   A    
C22   C23   S    
C11   S3    S    
C1    C14   S    
C17   S6    S    
C8    S2    S    
C3    C4    S    
C38   H22   S    
O13   S4    S    
