data_mof_unit_47844.cif
_audit_creation_date              2012-12-11T15:26:00-0500
_audit_creation_method            fapswitch 2.2
_symmetry_space_group_name_H-M    P1
_symmetry_Int_Tables_number       1
_space_group_crystal_system       triclinic
_cell_length_a                    24.796443
_cell_length_b                    17.185047
_cell_length_c                    15.724074
_cell_angle_alpha                 89.70908
_cell_angle_beta                  50.235938
_cell_angle_gamma                 89.863351
_cell_volume                      5150.47937523

loop_
_atom_site_label
_atom_site_type_symbol
_atom_type_description
_atom_site_fract_x
_atom_site_fract_y
_atom_site_fract_z
_atom_type_partial_charge
C1    C     C_R   0.333393 0.106525 0.802655 -0.141635
C2    C     C_2   0.306801 0.846077 0.981338 -0.002250
C3    C     C_R   0.233277 0.776400 0.745931 -0.113951
C4    C     C_R   0.267298 0.159649 0.696838 0.104905
C5    C     C_R   0.258126 0.227737 0.753870 -0.138726
C6    C     C_R   0.190788 0.252843 0.843412 -0.089947
C7    C     C_R   0.132058 0.210774 0.875856 -0.097390
C8    C     C_R   0.140625 0.143760 0.818579 -0.114031
C9    C     C_R   0.207874 0.119134 0.728172 -0.176563
C10   C     C_R   0.732702 0.840351 0.303162 0.104904
C11   C     C_R   0.792126 0.880865 0.271828 -0.176562
C12   C     C_R   0.859375 0.856239 0.181421 -0.114032
C13   C     C_2   0.309866 0.161786 0.973109 -0.002214
C14   C     C_R   0.867942 0.789226 0.124144 -0.097390
C15   C     C_R   0.809212 0.747157 0.156588 -0.089947
C16   C     C_R   0.741874 0.772263 0.246129 -0.138725
C17   C     C_R   0.255099 0.606785 0.290686 0.070068
C18   C     C_R   0.306030 0.665509 0.250470 -0.146945
C19   C     C_R   0.368073 0.665466 0.140455 -0.117395
C20   C     C_R   0.379628 0.608184 0.067911 -0.103495
C21   C     C_R   0.328800 0.551304 0.105034 -0.102078
C22   C     C_R   0.266943 0.550818 0.215207 -0.170026
C23   C     C_R   0.744901 0.393215 0.709314 0.070068
C24   C     C_2   0.690134 0.838214 0.026891 -0.002215
C25   C     C_R   0.733057 0.449181 0.784793 -0.170026
C26   C     C_R   0.671200 0.448695 0.894966 -0.102078
C27   C     C_R   0.620372 0.391816 0.932089 -0.103494
C28   C     C_R   0.631927 0.334534 0.859545 -0.117395
C29   C     C_R   0.693970 0.334491 0.749530 -0.146945
C30   C     C_R   0.749376 0.633307 0.688782 0.084418
C31   C     C_R   0.750930 0.712763 0.707906 -0.169352
C32   C     C_R   0.688746 0.753813 0.783960 -0.095799
C33   C     C_R   0.624114 0.715929 0.843040 -0.098770
C34   C     C_R   0.621606 0.637641 0.822761 -0.101636
C35   C     C_2   0.136935 0.762205 0.156696 0.000540
C36   C     C_R   0.683711 0.597459 0.743244 -0.133794
C37   C     C_R   0.250623 0.366693 0.311218 0.084418
C38   C     C_R   0.316289 0.402540 0.256756 -0.133795
C39   C     C_R   0.378394 0.362358 0.177239 -0.101634
C40   C     C_R   0.375886 0.284070 0.156960 -0.098770
C41   C     C_R   0.311253 0.246187 0.216041 -0.095799
C42   C     C_R   0.249069 0.287237 0.292094 -0.169353
C43   C     C_2   0.863065 0.237794 0.843303 0.000540
C44   C     C_2   0.856841 0.755968 0.855977 0.010126
C45   C     C_2   0.143159 0.244032 0.144022 0.010126
C46   C     C_2   0.763412 0.148861 0.956596 -0.124958
C47   C     C_2   0.236588 0.851138 0.043404 -0.124960
C48   C     C_2   0.239985 0.151950 0.040718 -0.121483
C49   C     C_R   0.666607 0.893475 0.197345 -0.141635
C50   C     C_2   0.760015 0.848050 0.959282 -0.121481
C51   C     C_2   0.189890 0.800998 0.140817 -0.126059
C52   C     C_2   0.810110 0.199002 0.859183 -0.126060
C53   C     C_2   0.805654 0.794733 0.866976 -0.153947
C54   C     C_2   0.194346 0.205266 0.133024 -0.153946
C55   C     C_R   0.587933 0.142976 0.593160 -0.150205
C56   C     C_R   0.412067 0.857024 0.406840 -0.150205
C57   C     C_R   0.412179 0.142259 0.404407 -0.154491
C58   C     C_R   0.587821 0.857740 0.595593 -0.154491
C59   C     C_R   0.111647 0.608363 0.592596 -0.158082
C60   C     C_R   0.666461 0.106664 0.196361 -0.135400
C61   C     C_R   0.888353 0.391636 0.407403 -0.158082
C62   C     C_R   0.888723 0.599336 0.402453 -0.168097
C63   C     C_R   0.111276 0.400664 0.597547 -0.168097
C64   C     C_R   0.665706 0.141825 0.407699 0.032361
C65   C     C_R   0.334294 0.858175 0.592301 0.032361
C66   C     C_R   0.336406 0.143858 0.588854 0.028288
C67   C     C_R   0.663594 0.856142 0.411146 0.028288
C68   C     C_R   0.187586 0.607557 0.407494 0.022166
C69   C     C_R   0.812414 0.392443 0.592506 0.022166
C70   C     C_R   0.811577 0.599881 0.583998 0.024590
C71   C     C_R   0.333539 0.893336 0.803638 -0.135400
C72   C     C_R   0.188423 0.400119 0.416002 0.024590
C73   C     C_R   0.576423 0.107646 0.198332 -0.140006
C74   C     C_R   0.423577 0.892354 0.801668 -0.140007
C75   C     C_R   0.424116 0.109115 0.799874 -0.144498
C76   C     C_R   0.575884 0.890885 0.200126 -0.144498
C77   C     C_R   0.056469 0.642924 0.246148 -0.140404
C78   C     C_R   0.943531 0.357075 0.753852 -0.140405
C79   C     C_R   0.941083 0.640227 0.759218 -0.139253
C80   C     C_R   0.058917 0.359773 0.240782 -0.139252
C81   C     C_R   0.354272 0.128354 0.862088 0.081816
C82   C     C_R   0.848047 0.638222 0.766457 -0.171666
C83   C     C_R   0.645727 0.871646 0.137912 0.081816
C84   C     C_R   0.646586 0.126404 0.134623 0.077748
C85   C     C_R   0.353413 0.873596 0.865376 0.077749
C86   C     C_R   0.881359 0.681205 0.796038 0.096332
C87   C     C_R   0.118641 0.318795 0.203962 0.096332
C88   C     C_R   0.112100 0.687854 0.218477 0.075608
C89   C     C_R   0.887900 0.312146 0.781522 0.075609
C90   C     C_R   0.640631 0.184570 0.501439 -0.024777
C91   C     C_R   0.359368 0.815430 0.498561 -0.024776
C92   C     C_R   0.361125 0.185521 0.494278 -0.026595
C93   C     C_R   0.151953 0.361778 0.233543 -0.171666
C94   C     C_R   0.638874 0.814479 0.505722 -0.026595
C95   C     C_R   0.178148 0.627220 0.501107 -0.011219
C96   C     C_R   0.821852 0.372780 0.498893 -0.011219
C97   C     C_R   0.820700 0.611645 0.488601 -0.018085
C98   C     C_R   0.179300 0.388356 0.511399 -0.018085
C99   C     C_R   0.261059 0.209924 0.506275 -0.151345
C100  C     C_R   0.738941 0.790076 0.493725 -0.151346
C101  C     C_R   0.743197 0.201984 0.483556 -0.161195
C102  C     C_R   0.256803 0.798016 0.516444 -0.161195
C103  C     C_R   0.718411 0.629470 0.499140 -0.174276
C104  C     C_R   0.144999 0.645756 0.249184 -0.132395
C105  C     C_R   0.281589 0.370530 0.500860 -0.174277
C106  C     C_R   0.284243 0.638201 0.479459 -0.175455
C107  C     C_R   0.715757 0.361799 0.520542 -0.175456
C108  C     C_R   0.670440 0.680211 0.510973 -0.178241
C109  C     C_R   0.329560 0.319788 0.489027 -0.178239
C110  C     C_R   0.331110 0.685929 0.474162 -0.205888
C111  C     C_R   0.668890 0.314071 0.525838 -0.205887
C112  C     C_R   0.211725 0.259981 0.523995 -0.158255
C113  C     C_R   0.788275 0.740019 0.476006 -0.158255
C114  C     C_R   0.790465 0.249444 0.475193 -0.202254
C115  C     C_R   0.855001 0.354243 0.750816 -0.132394
C116  C     C_R   0.209535 0.750556 0.524807 -0.202253
C117  C     C_R   0.681124 0.760144 0.508806 0.160342
C118  C     C_R   0.318875 0.239856 0.491194 0.160341
C119  C     C_R   0.316327 0.765227 0.493673 0.145308
C120  C     C_R   0.683673 0.234773 0.506327 0.145308
C121  C     C_R   0.222918 0.339879 0.518784 0.164080
C122  C     C_R   0.777082 0.660121 0.481215 0.164080
C123  C     C_R   0.776113 0.328568 0.494505 0.143094
C124  C     C_R   0.223887 0.671431 0.505495 0.143093
C125  C     C_R   0.737069 0.149824 0.299070 0.104239
C126  C     C_2   0.693199 0.153923 0.018662 -0.002251
C127  C     C_R   0.766722 0.223600 0.254069 -0.113951
C128  C     C_R   0.837286 0.230464 0.159819 -0.118515
C129  C     C_R   0.878383 0.163853 0.108136 -0.094988
C130  C     C_R   0.848684 0.090278 0.149952 -0.117902
C131  C     C_R   0.778458 0.083474 0.245249 -0.197188
C132  C     C_R   0.262931 0.850176 0.700930 0.104239
C133  C     C_R   0.221542 0.916527 0.754751 -0.197189
C134  C     C_R   0.151316 0.909722 0.850048 -0.117902
C135  C     C_R   0.121617 0.836147 0.891864 -0.094988
C136  C     C_R   0.162714 0.769536 0.840181 -0.118515
H1    H     H_    0.280059 0.100802 0.834602 0.112192
H2    H     H_    0.437563 0.844164 0.321493 0.106016
H3    H     H_    0.057428 0.797051 0.161089 0.094410
H4    H     H_    0.084790 0.256952 0.093954 0.087023
H5    H     H_    0.085281 0.167166 0.135855 0.105469
H6    H     H_    0.915209 0.743048 0.906045 0.087023
H7    H     H_    0.914719 0.832833 0.864144 0.105469
H8    H     H_    0.437858 0.154257 0.318624 0.109061
H9    H     H_    0.562142 0.845743 0.681376 0.109061
H10   H     H_    0.090618 0.609185 0.677675 0.102908
H11   H     H_    0.909382 0.390815 0.322325 0.102908
H12   H     H_    0.912728 0.598581 0.315931 0.104428
H13   H     H_    0.087272 0.401419 0.684069 0.104428
H14   H     H_    0.546978 0.104640 0.169383 0.083343
H15   H     H_    0.453022 0.895360 0.830617 0.083344
H16   H     H_    0.453760 0.107715 0.828561 0.084152
H17   H     H_    0.719941 0.899198 0.165398 0.112192
H18   H     H_    0.546240 0.892285 0.171439 0.084152
H19   H     H_    0.019940 0.657952 0.233142 0.092592
H20   H     H_    0.980060 0.342048 0.766858 0.092592
H21   H     H_    0.978818 0.655810 0.769206 0.090371
H22   H     H_    0.021182 0.344190 0.230794 0.090371
H23   H     H_    0.253227 0.147744 0.507849 0.109669
H24   H     H_    0.746773 0.852256 0.492152 0.109669
H25   H     H_    0.753627 0.140058 0.469476 0.123534
H26   H     H_    0.246373 0.859942 0.530524 0.123534
H27   H     H_    0.709643 0.567275 0.505397 0.106752
H28   H     H_    0.719527 0.101155 0.163756 0.116925
H29   H     H_    0.290357 0.432725 0.494602 0.106753
H30   H     H_    0.294889 0.576613 0.462428 0.113459
H31   H     H_    0.705111 0.423386 0.537572 0.113459
H32   H     H_    0.625764 0.657789 0.521307 0.115344
H33   H     H_    0.374236 0.342210 0.478692 0.115344
H34   H     H_    0.377737 0.661684 0.456353 0.123224
H35   H     H_    0.622263 0.338316 0.543647 0.123224
H36   H     H_    0.166793 0.236752 0.535572 0.112632
H37   H     H_    0.833207 0.763248 0.464429 0.112632
H38   H     H_    0.836953 0.224493 0.457346 0.126839
H39   H     H_    0.280473 0.898845 0.836244 0.116925
H40   H     H_    0.163047 0.775507 0.542653 0.126839
H41   H     H_    0.213649 0.882550 0.013528 0.130866
H42   H     H_    0.786351 0.117450 0.986472 0.130866
H43   H     H_    0.783687 0.886319 0.982026 0.125062
H44   H     H_    0.216313 0.113680 0.017974 0.125062
H45   H     H_    0.792703 0.215026 0.813463 0.130033
H46   H     H_    0.207296 0.784975 0.186537 0.130032
H47   H     H_    0.211913 0.223925 0.177230 0.137813
H48   H     H_    0.788086 0.776075 0.822770 0.137813
H49   H     H_    0.735757 0.275829 0.293181 0.111720
H50   H     H_    0.796494 0.647357 0.793677 0.120351
H51   H     H_    0.860157 0.287486 0.126994 0.098165
H52   H     H_    0.932987 0.169259 0.035008 0.091530
H53   H     H_    0.880063 0.038585 0.108877 0.109799
H54   H     H_    0.755204 0.026886 0.276187 0.118012
H55   H     H_    0.244796 0.973114 0.723813 0.118013
H56   H     H_    0.119937 0.961416 0.891123 0.109799
H57   H     H_    0.067013 0.830741 0.964992 0.091530
H58   H     H_    0.139842 0.712514 0.873006 0.098165
H59   H     H_    0.264242 0.724171 0.706819 0.111720
H60   H     H_    0.303093 0.262322 0.727050 0.110459
H61   H     H_    0.203505 0.352643 0.206323 0.120351
H62   H     H_    0.184105 0.305609 0.886540 0.108689
H63   H     H_    0.079837 0.230816 0.944124 0.089451
H64   H     H_    0.095080 0.112556 0.841631 0.099188
H65   H     H_    0.213202 0.072192 0.677759 0.102682
H66   H     H_    0.786798 0.927808 0.322240 0.102681
H67   H     H_    0.904920 0.887444 0.158369 0.099188
H68   H     H_    0.920163 0.769184 0.055876 0.089451
H69   H     H_    0.815895 0.694391 0.113460 0.108689
H70   H     H_    0.696907 0.737678 0.272950 0.110458
H71   H     H_    0.297638 0.713250 0.301924 0.130100
H72   H     H_    0.189540 0.664903 0.239252 0.121368
H73   H     H_    0.406768 0.710751 0.110957 0.099321
H74   H     H_    0.427519 0.608521 0.982617 0.094534
H75   H     H_    0.337303 0.507298 0.048555 0.111997
H76   H     H_    0.228793 0.506144 0.240926 0.127259
H77   H     H_    0.771207 0.493856 0.759074 0.127259
H78   H     H_    0.662697 0.492702 0.951445 0.111997
H79   H     H_    0.572481 0.391479 0.017383 0.094534
H80   H     H_    0.593232 0.289249 0.889043 0.099321
H81   H     H_    0.702362 0.286750 0.698076 0.130101
H82   H     H_    0.800396 0.743862 0.659185 0.107675
H83   H     H_    0.810460 0.335096 0.760747 0.121368
H84   H     H_    0.690750 0.815390 0.795810 0.106294
H85   H     H_    0.575962 0.747766 0.902214 0.086307
H86   H     H_    0.571465 0.609088 0.864871 0.101152
H87   H     H_    0.680276 0.539971 0.719321 0.120317
H88   H     H_    0.319724 0.460028 0.280678 0.120317
H89   H     H_    0.428535 0.390911 0.135129 0.101151
H90   H     H_    0.424038 0.252233 0.097786 0.086307
H91   H     H_    0.309250 0.184610 0.204191 0.106295
H92   H     H_    0.199604 0.256138 0.340815 0.107676
H93   H     H_    0.369503 0.845113 0.021869 0.090228
H94   H     H_    0.562437 0.155836 0.678506 0.106016
H95   H     H_    0.367501 0.760583 0.969383 0.114788
H96   H     H_    0.630497 0.154886 0.978130 0.090229
H97   H     H_    0.632499 0.239416 0.030617 0.114788
H98   H     H_    0.620672 0.817212 0.002913 0.088416
H99   H     H_    0.633704 0.741732 0.057070 0.113572
H100  H     H_    0.379328 0.182787 0.997087 0.088416
H101  H     H_    0.366296 0.258268 0.942931 0.113572
H102  H     H_    0.882234 0.259670 0.947539 0.109279
H103  H     H_    0.942573 0.202949 0.838909 0.094410
H104  H     H_    0.117767 0.740329 0.052459 0.109279
N1    N     N_R   0.388930 0.078160 0.705470 -0.042802
N2    N     N_R   0.419500 0.922160 0.443350 -0.047027
N3    N     N_R   0.419500 0.077840 0.443350 -0.046453
N4    N     N_R   0.580500 0.922160 0.556650 -0.046453
N5    N     N_R   0.080500 0.577840 0.556650 -0.040836
N6    N     N_R   0.919500 0.422160 0.443350 -0.040836
N7    N     N_R   0.919500 0.577840 0.443350 -0.040299
N8    N     N_R   0.080500 0.422160 0.556650 -0.040299
N9    N     N_R   0.626210 0.077590 0.443410 -0.064857
N10   N     N_R   0.373790 0.922410 0.556590 -0.064857
N11   N     N_R   0.373790 0.077590 0.556590 -0.066068
N12   N     N_R   0.611070 0.921840 0.294530 -0.042801
N13   N     N_R   0.626210 0.922410 0.443410 -0.066068
N14   N     N_R   0.126210 0.577590 0.443410 -0.059333
N15   N     N_R   0.873790 0.422410 0.556590 -0.059333
N16   N     N_R   0.873790 0.577590 0.556590 -0.062488
N17   N     N_R   0.126210 0.422410 0.443410 -0.062489
N18   N     N_R   0.554800 0.077270 0.294580 -0.033593
N19   N     N_R   0.445200 0.922730 0.705420 -0.033592
N20   N     N_R   0.445200 0.077270 0.705420 -0.033575
N21   N     N_R   0.554800 0.922730 0.294580 -0.033575
N22   N     N_R   0.054800 0.577270 0.294580 -0.037950
N23   N     N_R   0.611070 0.078160 0.294530 -0.042391
N24   N     N_R   0.945200 0.422730 0.705420 -0.037950
N25   N     N_R   0.945200 0.577270 0.705420 -0.036771
N26   N     N_R   0.054800 0.422730 0.294580 -0.036771
N27   N     N_3   0.336628 0.806253 0.023180 -0.207407
N28   N     N_3   0.663372 0.193747 0.976819 -0.207407
N29   N     N_3   0.658925 0.786330 0.998003 -0.205705
N30   N     N_3   0.341075 0.213670 0.001997 -0.205705
N31   N     N_3   0.888770 0.213334 0.898959 -0.206874
N32   N     N_3   0.111230 0.786665 0.101039 -0.206874
N33   N     N_3   0.116802 0.215562 0.090875 -0.203385
N34   N     N_R   0.388930 0.921840 0.705470 -0.042391
N35   N     N_3   0.883198 0.784437 0.909125 -0.203385
N36   N     N_R   0.888930 0.578160 0.705470 -0.046299
N37   N     N_R   0.111070 0.421840 0.294530 -0.046299
N38   N     N_R   0.111070 0.578160 0.294530 -0.047481
N39   N     N_R   0.888930 0.421840 0.705470 -0.047481
N40   N     N_R   0.580500 0.077840 0.556650 -0.047027
Ni1   Ni    Ni4+2 0.382710 0.000000 0.629850 0.201656
Ni2   Ni    Ni4+2 0.617290 1.000000 0.370150 0.201656
Ni3   Ni    Ni4+2 0.882710 0.500000 0.629850 0.207714
Ni4   Ni    Ni4+2 0.117290 0.500000 0.370150 0.207714
Ni5   Ni    Ni4+2 0.513020 0.000000 0.629850 0.199911
Ni6   Ni    Ni4+2 0.486980 1.000000 0.370150 0.199911
Ni7   Ni    Ni4+2 0.013020 0.500000 0.629850 0.202633
Ni8   Ni    Ni4+2 0.986980 0.500000 0.370150 0.202632

loop_
_geom_bond_atom_site_label_1
_geom_bond_atom_site_label_2
_ccdc_geom_bond_type
C95   C124  S    
C28   H80   S    
C98   C121  S    
N22   Ni8   S    
C76   N21   A    
C41   H91   S    
N1    N20   A    
H95   N27   S    
C73   H14   S    
N5    Ni7   S    
C128  H51   S    
C41   C42   A    
C46   H42   S    
N6    Ni8   S    
N18   N23   A    
C60   N23   A    
H5    N33   S    
C35   N32   S    
C51   H46   S    
C115  H83   S    
C128  C129  A    
N24   N39   A    
C58   C94   A    
C89   C115  A    
H93   N27   S    
C58   H9    S    
C135  C136  A    
C18   H71   S    
C72   C98   A    
C74   N19   A    
C48   C54   S    
C63   N8    A    
C133  H55   S    
C26   C27   A    
C43   C89   S    
N23   Ni2   S    
C82   H50   S    
C80   N26   A    
C106  H30   S    
C49   H17   S    
C28   C29   A    
C45   C87   S    
C24   C83   S    
N21   Ni6   S    
C80   C87   A    
C16   H70   S    
C67   C94   A    
C38   C39   A    
C94   C117  S    
C43   C52   D    
N6    N15   A    
C2    N27   S    
C38   H88   S    
C55   C90   A    
N22   N38   A    
C46   C52   S    
C9    H65   S    
C71   N34   A    
N19   N34   A    
C18   C19   A    
N11   Ni1   S    
C12   H67   S    
C134  H56   S    
C37   C42   A    
N19   Ni5   S    
C92   C118  S    
N40   Ni5   S    
C63   H13   S    
C56   N2    A    
C30   C70   S    
C71   C85   A    
C49   N12   A    
C44   C53   D    
C13   C48   D    
C56   C91   A    
N2    Ni6   S    
C113  C122  A    
C19   C20   A    
C77   C88   A    
C71   H39   S    
C132  C133  A    
C22   H76   S    
N17   Ni4   S    
C57   H8    S    
C127  C128  A    
C33   H85   S    
H101  N30   S    
C107  C123  A    
C73   C84   A    
C43   N31   S    
N20   Ni5   S    
C96   C123  S    
C70   C97   A    
H99   N29   S    
C31   H82   S    
C107  C111  A    
N7    N16   A    
C69   C96   A    
C29   H81   S    
C108  H32   S    
C37   C72   S    
N4    Ni5   S    
C78   C89   A    
N38   Ni4   S    
C65   N10   A    
C27   H79   S    
C101  C114  A    
C101  C120  A    
C55   H94   S    
C126  N28   S    
C112  H36   S    
N34   Ni1   S    
C59   C95   A    
H7    N35   S    
C44   C86   S    
C76   C83   A    
C88   C104  A    
C109  H33   S    
C109  C118  A    
C33   C34   A    
C6    C7    A    
C93   N37   A    
C67   N13   A    
N26   N37   A    
C84   C126  S    
C60   H28   S    
C107  H31   S    
C61   C96   A    
C50   C53   S    
N3    N11   A    
N9    Ni2   S    
C116  H40   S    
C3    C132  A    
N2    N10   A    
C64   C90   A    
C7    C8    A    
C52   H45   S    
C64   N9    A    
C77   N22   A    
C53   H48   S    
C104  N38   A    
C39   C40   A    
C6    H62   S    
C73   N18   A    
C8    C9    A    
C66   C92   A    
C2    C85   S    
N3    Ni6   S    
C61   N6    A    
C10   C67   S    
C23   C69   S    
C3    H59   S    
C21   H75   S    
H96   N28   S    
C111  C120  A    
C11   H66   S    
C90   C120  S    
H4    N33   S    
C37   C38   A    
C82   N36   A    
C30   C36   A    
C136  H58   S    
C97   C122  S    
C125  C127  A    
N12   Ni2   S    
C135  H57   S    
C62   C97   A    
C56   H2    S    
C35   C88   S    
C125  C131  A    
N25   N36   A    
C80   H22   S    
C31   C32   A    
C36   H87   S    
C114  H38   S    
C75   H16   S    
C102  H26   S    
C13   C81   S    
C44   N35   S    
H100  N30   S    
C17   C18   A    
C105  C121  A    
C59   N5    A    
C15   H69   S    
C75   N20   A    
C58   N4    A    
C4    C5    A    
C24   C50   D    
C68   C95   A    
C32   H84   S    
C1    N1    A    
N12   N21   A    
C5    H60   S    
C114  C123  A    
C110  H34   S    
C40   C41   A    
N37   Ni4   S    
C12   C14   A    
C45   C54   D    
N39   Ni3   S    
N4    N13   A    
C35   C51   D    
C133  C134  A    
N10   Ni1   S    
C91   C119  S    
C74   H15   S    
C8    H64   S    
C99   H23   S    
C70   N16   A    
C20   H74   S    
C23   C29   A    
C48   H44   S    
C65   C132  S    
C1    H1    S    
N13   Ni2   S    
C69   N15   A    
H98   N29   S    
C113  H37   S    
C129  C130  A    
C106  C110  A    
C131  H54   S    
C55   N40   A    
C65   C91   A    
C105  C109  A    
C66   N11   A    
C79   N25   A    
C17   C68   S    
C116  C124  A    
N16   Ni3   S    
C61   H11   S    
C19   H73   S    
N24   Ni7   S    
C78   N24   A    
C108  C117  A    
C46   C126  D    
C75   C81   A    
C100  C113  A    
C14   C15   A    
N1    Ni1   S    
C100  H24   S    
C110  C119  A    
C79   H21   S    
N8    Ni7   S    
C47   C51   S    
C11   C12   A    
C130  H53   S    
C134  C135  A    
N36   Ni3   S    
C42   H92   S    
C2    C47   D    
C63   C98   A    
H3    N32   S    
C103  H27   S    
C17   C22   A    
N9    N40   A    
H103  N31   S    
C24   N29   S    
N18   Ni6   S    
C34   H86   S    
C32   C33   A    
C49   C83   A    
C25   H77   S    
C50   H43   S    
C25   C26   A    
C112  C121  A    
C47   H41   S    
C40   H90   S    
C82   C86   A    
C13   N30   S    
C77   H19   S    
H97   N28   S    
C4    C66   S    
C60   C84   A    
C30   C31   A    
H104  N32   S    
C62   N7    A    
C5    C6    A    
C10   C16   A    
N26   Ni8   S    
C45   N33   S    
C99   C112  A    
C87   C93   A    
C101  H25   S    
C127  H49   S    
C76   H18   S    
C105  H29   S    
C130  C131  A    
C57   C92   A    
C34   C36   A    
C104  H72   S    
C74   C85   A    
C7    H63   S    
H102  N31   S    
C26   H78   S    
C115  N39   A    
C39   H89   S    
C102  C116  A    
C10   C11   A    
N25   Ni7   S    
N5    N14   A    
C93   H61   S    
N8    N17   A    
C59   H10   S    
C68   N14   A    
C72   N17   A    
C23   C25   A    
C20   C21   A    
C57   N3    A    
C64   C125  S    
C129  H52   S    
N15   Ni3   S    
C27   C28   A    
C78   H20   S    
C54   H47   S    
N7    Ni8   S    
C103  C108  A    
C62   H12   S    
C100  C117  A    
C3    C136  A    
C106  C124  A    
C4    C9    A    
C21   C22   A    
C103  C122  A    
C1    C81   A    
H6    N35   S    
C79   C86   A    
C102  C119  A    
C15   C16   A    
C14   H68   S    
C99   C118  A    
C111  H35   S    
N14   Ni4   S    
