data_mof_unit_13411.cif
_audit_creation_date              2012-12-11T14:26:52-0500
_audit_creation_method            fapswitch 2.2
_symmetry_space_group_name_H-M    P1
_symmetry_Int_Tables_number       1
_space_group_crystal_system       triclinic
_cell_length_a                    15.255089
_cell_length_b                    15.01995
_cell_length_c                    15.022307
_cell_angle_alpha                 109.595667
_cell_angle_beta                  108.87364
_cell_angle_gamma                 110.315643
_cell_volume                      2637.1836499

loop_
_atom_site_label
_atom_site_type_symbol
_atom_type_description
_atom_site_fract_x
_atom_site_fract_y
_atom_site_fract_z
_atom_type_partial_charge
C1    C     C_R   0.999599 0.802320 0.088622 -0.125285
C2    C     C_R   0.221873 0.770837 0.313249 -0.075813
C3    C     C_R   0.908203 0.406296 0.207155 -0.156404
C4    C     C_R   0.795357 0.194413 0.705216 -0.020389
C5    C     C_R   0.308948 0.593545 0.021154 0.033554
C6    C     C_R   0.941726 0.495731 0.302900 -0.118001
C7    C     C_R   0.318548 0.502456 0.983858 0.068828
C8    C     C_R   0.323428 0.810378 0.323715 -0.021497
C9    C     C_R   0.039662 0.217541 0.043409 0.127163
C10   C     C_3   0.518904 0.442130 0.923415 -0.484644
C11   C     C_3   0.410338 0.432909 0.901723 -0.470217
C12   C     C_R   0.707629 0.128551 0.707540 -0.314090
C13   C     C_3   0.531856 0.431511 0.091537 0.340743
C14   C     C_3   0.617042 0.616717 0.099971 -0.258268
C15   C     C_3   0.594976 0.497190 0.048369 0.072338
C16   C     C_R   0.039145 0.590915 0.777287 -0.139929
C17   C     C_3   0.418472 0.502533 0.010484 0.114203
C18   C     C_3   0.437288 0.452319 0.086961 0.287286
C19   C     C_3   0.514125 0.619956 0.066771 -0.432169
C20   C     C_2   0.436663 0.879660 0.514171 -0.002727
C21   C     C_2   0.424697 0.883984 0.424059 -0.092802
C22   C     C_2   0.530822 0.970120 0.617231 -0.376300
C23   C     C_R   0.974908 0.498528 0.674511 -0.062190
C24   C     C_2   0.631451 0.010437 0.632080 0.559670
C25   C     C_2   0.855011 0.418689 0.481933 -0.160365
C26   C     C_2   0.945617 0.501019 0.574953 -0.170543
C27   C     C_2   0.848785 0.406374 0.379449 -0.040957
C28   C     C_R   0.700656 0.408140 0.001655 0.506005
C29   C     C_2   0.897687 0.496284 0.375130 0.015453
C30   C     C_2   0.152721 0.139698 0.077135 -0.090468
C31   C     C_2   0.075352 0.156566 0.087019 -0.188654
C32   C     C_2   0.146970 0.036738 0.062089 -0.016635
C33   C     C_2   0.107941 0.984219 0.108880 -0.100673
C34   C     C_R   0.697083 0.498452 0.063289 -0.163771
C35   C     C_R   0.954278 0.407296 0.686883 0.521911
C36   C     C_R   0.793983 0.591219 0.099211 0.389536
C37   C     C_R   0.710204 0.193516 0.800038 0.566716
C38   C     C_R   0.098760 0.803578 0.007419 0.495578
C39   C     C_R   0.066083 0.866393 0.063536 -0.102657
C40   C     C_R   0.004509 0.587774 0.303275 0.590902
C41   C     C_R   0.219400 0.409313 0.930956 -0.124715
C42   C     C_R   0.312440 0.771535 0.221618 0.049006
C43   C     C_R   0.967965 0.246706 0.060086 -0.102084
C44   C     C_R   0.059846 0.245192 0.969585 -0.041447
H1    H     H_    0.971049 0.833088 0.141524 0.217946
H2    H     H_    0.556058 0.491603 0.890932 0.199676
H3    H     H_    0.386105 0.461141 0.843084 0.206595
H4    H     H_    0.827046 0.164736 0.654860 0.230286
H5    H     H_    0.348373 0.344946 0.862859 0.170817
H6    H     H_    0.488067 0.343228 0.029725 0.002682
H7    H     H_    0.363922 0.370354 0.047156 0.023949
H8    H     H_    0.662435 0.657873 0.189959 0.274462
H9    H     H_    0.661690 0.662594 0.069700 0.209481
H10   H     H_    0.504988 0.652374 0.009615 0.181814
H11   H     H_    0.519636 0.678458 0.140085 0.224236
H12   H     H_    0.196943 0.325189 0.882647 0.092239
H13   H     H_    0.370035 0.822184 0.514754 0.129842
H14   H     H_    0.071442 0.675092 0.796278 0.205555
H15   H     H_    0.489591 0.944698 0.424354 0.177879
H16   H     H_    0.511325 0.019429 0.669973 0.165154
H17   H     H_    0.796372 0.350736 0.480395 0.167191
H18   H     H_    0.006365 0.568634 0.578083 0.141754
H19   H     H_    0.822688 0.325269 0.317083 0.132238
H20   H     H_    0.915240 0.574674 0.434686 0.147680
H21   H     H_    0.201216 0.184615 0.050868 0.147203
H22   H     H_    0.024350 0.110841 0.110791 0.135534
H23   H     H_    0.376005 0.792812 0.201984 0.134809
H24   H     H_    0.156902 0.996173 0.995298 0.201580
H25   H     H_    0.095115 0.025159 0.174073 0.137127
H26   H     H_    0.582239 0.348676 0.298609 0.377787
H27   H     H_    0.362937 0.601398 0.274005 0.379391
H28   H     H_    0.814858 0.918864 0.592696 0.394095
H29   H     H_    0.583580 0.289411 0.988500 0.341961
H30   H     H_    0.918936 0.301140 0.545804 0.322917
H31   H     H_    0.871671 0.873087 0.286934 0.389613
H32   H     H_    0.653891 0.078086 0.832031 0.308844
H33   H     H_    0.281558 0.910850 0.912115 0.387813
H34   H     H_    0.933848 0.233993 0.110590 0.108324
H35   H     H_    0.058306 0.696853 0.450979 0.302669
H36   H     H_    0.107019 0.226929 0.934470 0.088071
H37   H     H_    0.204415 0.794830 0.378225 0.187323
H38   H     H_    0.844622 0.322925 0.171901 0.164969
H39   H     H_    0.367655 0.678641 0.056226 0.108655
H40   H     H_    0.503850 0.358257 0.876848 0.205454
N1    N     N_R   0.993980 0.704500 0.053430 -0.072574
N2    N     N_R   0.053690 0.556380 0.849240 -0.069382
N3    N     N_R   0.790390 0.443640 0.997160 -0.113059
N4    N     N_R   0.998260 0.443670 0.792970 -0.090814
N5    N     N_R   0.845830 0.556350 0.053430 -0.137979
N6    N     N_R   0.792820 0.295510 0.849240 -0.081649
N7    N     N_R   0.051260 0.704510 0.997160 -0.115718
N8    N     N_R   0.001740 0.556330 0.207030 -0.084668
N9    N     N_R   0.154170 0.443650 0.946570 -0.044544
N10   N     N_R   0.207180 0.704490 0.150760 -0.052034
N11   N     N_R   0.948740 0.295490 0.002840 -0.047834
N12   N     N_R   0.006020 0.295500 0.946570 -0.057908
N13   N     N_R   0.149890 0.704480 0.207030 -0.045078
N14   N     N_R   0.946310 0.443620 0.150760 -0.085628
N15   N     N_R   0.209610 0.556360 0.002840 -0.035186
N16   N     N_R   0.850110 0.295520 0.792970 -0.098219
Ni1   Ni    Ni4+2 0.997880 0.629240 0.129060 0.322180
Ni2   Ni    Ni4+2 0.002120 0.370760 0.870940 0.249017
Ni3   Ni    Ni4+2 0.129260 0.629260 0.000000 0.314638
Ni4   Ni    Ni4+2 0.870740 0.370740 0.000000 0.279776
O1    O     O_2   0.687952 0.397872 0.193773 -0.342390
O2    O     O_3   0.631083 0.298256 0.957237 -0.693250
O3    O     O_3   0.915449 0.301067 0.610360 -0.780165
O4    O     O_2   0.845387 0.697245 0.308960 -0.223036
O5    O     O_2   0.985452 0.768819 0.265270 -0.287518
O6    O     O_3   0.833405 0.810317 0.211816 -0.598975
O7    O     O_3   0.671647 0.155390 0.858887 -0.701592
O8    O     O_2   0.307308 0.961637 0.113563 -0.278240
O9    O     O_2   0.261041 0.774899 0.996960 -0.349749
O10   O     O_3   0.208540 0.878674 0.903418 -0.589914
O11   O     O_3   0.052459 0.695120 0.382831 -0.711972
O12   O     O_2   0.677418 0.547837 0.310889 -0.176189
O13   O     O_3   0.532528 0.345333 0.234136 -0.474317
O14   O     O_2   0.444146 0.465256 0.275388 -0.187819
O15   O     O_2   0.552794 0.638919 0.289986 -0.213687
O16   O     O_3   0.345949 0.552725 0.199713 -0.570659
O17   O     O_2   0.595007 0.808878 0.508971 -0.216879
O18   O     O_2   0.670999 0.951693 0.466294 -0.297140
O19   O     O_3   0.796027 0.963326 0.640105 -0.537617
S1    S     S_3+6 0.612844 0.434840 0.212352 0.016249
S2    S     S_3+6 0.449086 0.530059 0.217928 0.026562
S3    S     S_3+6 0.670749 0.929140 0.556443 -0.007949
S4    S     S_3+6 0.866881 0.718041 0.225033 -0.057103
S5    S     S_3+6 0.223269 0.855827 0.008176 -0.090804

loop_
_geom_bond_atom_site_label_1
_geom_bond_atom_site_label_2
_ccdc_geom_bond_type
C36   N5    A    
C31   H22   S    
N15   Ni3   S    
H35   O11   S    
C27   C29   D    
C11   H3    S    
N11   N12   A    
C3    C6    A    
N1    N7    A    
N8    N14   A    
O9    S5    D    
C43   H34   S    
C33   C39   S    
C13   C18   S    
C44   N12   A    
O13   S1    S    
C8    C42   A    
C21   H15   S    
N12   Ni2   S    
C10   C15   S    
C18   S2    S    
C22   H16   S    
C30   C31   D    
C5    H39   S    
N2    N4    A    
C40   O11   S    
H26   O13   S    
C23   C26   S    
C12   C37   A    
H30   O3    S    
O5    S4    D    
C41   N9    A    
C5    N15   A    
C2    N13   A    
C28   O2    S    
C7    C17   S    
C10   H2    S    
C43   N11   A    
O14   S2    D    
C4    C12   A    
N9    N15   A    
C15   C34   S    
C34   C36   A    
C33   H25   S    
O6    S4    S    
C32   H24   S    
C29   H20   S    
C28   C34   A    
C16   N2    A    
C28   N3    A    
N2    Ni3   S    
N6    N16   A    
C18   H7    S    
C8    C21   S    
C1    N1    A    
C14   H8    S    
C9    C43   A    
C37   O7    S    
C44   H36   S    
C35   O3    S    
C5    C7    A    
C13   S1    S    
C9    C31   S    
O16   S2    S    
O19   S3    S    
C25   H17   S    
N10   N13   A    
C25   C26   D    
C38   N7    A    
C13   H6    S    
O1    S1    D    
O18   S3    D    
C41   H12   S    
C11   H5    S    
O10   S5    S    
C35   N4    A    
C38   S5    S    
C6    C29   S    
C3    H38   S    
N16   Ni2   S    
C17   C18   S    
C16   H14   S    
C40   N8    A    
C9    C44   A    
N6    Ni4   S    
C27   H19   S    
N8    Ni1   S    
C37   N6    A    
C19   H10   S    
C20   C22   S    
N10   Ni3   S    
C16   C23   A    
C23   C35   A    
C4    N16   A    
H28   O19   S    
C42   H23   S    
C6    C40   A    
C36   S4    S    
H33   O10   S    
O15   S2    D    
N1    Ni1   S    
N11   Ni4   S    
C4    H4    S    
C19   H11   S    
C24   S3    S    
C11   C17   S    
H31   O6    S    
O12   S1    D    
N5    Ni1   S    
C42   N10   A    
C14   C19   S    
C2    C8    A    
N7    Ni3   S    
N9    Ni2   S    
N4    Ni2   S    
C25   C27   S    
C12   C24   S    
C32   C33   D    
C13   C15   S    
C26   H18   S    
O17   S3    D    
C30   C32   S    
C3    N14   A    
C1    H1    S    
H29   O2    S    
C38   C39   A    
H32   O7    S    
N14   Ni4   S    
C10   H40   S    
C17   C19   S    
C22   C24   D    
C7    C41   A    
O4    S4    D    
O8    S5    D    
C30   H21   S    
H27   O16   S    
C10   C11   S    
C1    C39   A    
N3    Ni4   S    
C14   H9    S    
C20   C21   D    
N3    N5    A    
C14   C15   S    
C2    H37   S    
C20   H13   S    
N13   Ni1   S    
