data_mof_unit_62383.cif
_audit_creation_date              2012-10-26T17:31:21-0400
_audit_creation_method            fapswitch 2.2
_symmetry_space_group_name_H-M    P1
_symmetry_Int_Tables_number       1
_space_group_crystal_system       triclinic
_cell_length_a                    41.47549
_cell_length_b                    35.673596
_cell_length_c                    21.596229
_cell_angle_alpha                 89.999814
_cell_angle_beta                  59.137755
_cell_angle_gamma                 90.000046
_cell_volume                      27428.851619

loop_
_atom_site_label
_atom_site_type_symbol
_atom_type_description
_atom_site_fract_x
_atom_site_fract_y
_atom_site_fract_z
_atom_type_partial_charge
C1    C     C_R   0.927633 0.499971 0.572308 0.607447
C2    C     C_R   0.327316 0.475629 0.133183 -0.174217
C3    C     C_R   0.000000 0.807804 0.000000 -0.053364
C4    C     C_1   0.500000 0.267378 0.000000 0.056004
C5    C     C_1   0.000000 0.767378 0.000000 0.056004
C6    C     C_1   0.000000 0.733619 0.000000 0.007042
C7    C     C_1   0.500000 0.233619 0.000000 0.007042
C8    C     C_R   0.031976 0.673808 0.949955 -0.117492
C9    C     C_R   0.968024 0.673808 0.050045 -0.117492
C10   C     C_R   0.531976 0.173808 0.949955 -0.117491
C11   C     C_R   0.468024 0.173808 0.050046 -0.117493
C12   C     C_R   0.032045 0.634341 0.947790 0.228488
C13   C     C_R   0.172684 0.975629 0.866818 -0.174215
C14   C     C_R   0.967956 0.634341 0.052210 0.228489
C15   C     C_R   0.532044 0.134341 0.947790 0.228488
C16   C     C_R   0.467956 0.134341 0.052210 0.228490
C17   C     C_R   0.000000 0.614241 0.000000 0.051420
C18   C     C_R   0.500000 0.114241 0.000000 0.051420
C19   C     C_3   0.968292 0.528095 0.245136 0.077091
C20   C     C_3   0.031708 0.528095 0.754864 0.077092
C21   C     C_3   0.468292 0.028095 0.245135 0.077091
C22   C     C_3   0.531708 0.028095 0.754864 0.077091
C23   C     C_R   0.000000 0.693322 0.000000 -0.053151
C24   C     C_R   0.827316 0.975629 0.133183 -0.174216
C25   C     C_R   0.500000 0.193322 0.000000 -0.053151
C26   C     C_R   0.503551 0.672844 0.052585 0.237571
C27   C     C_R   0.496448 0.672845 0.947414 0.237573
C28   C     C_R   0.003528 0.172845 0.052613 0.237569
C29   C     C_R   0.996472 0.172845 0.947386 0.237572
C30   C     C_R   0.502766 0.633578 0.053191 -0.123924
C31   C     C_R   0.497234 0.633579 0.946808 -0.123927
C32   C     C_R   0.002742 0.133579 0.053217 -0.123929
C33   C     C_R   0.997258 0.133579 0.946782 -0.123934
C34   C     C_R   0.500000 0.613639 1.000000 -0.079832
C35   C     C_R   0.633212 0.476322 0.907104 0.199983
C36   C     C_R   1.000000 0.113639 1.000000 -0.079833
C37   C     C_R   0.500000 0.692468 1.000000 0.040145
C38   C     C_R   0.000000 0.192468 1.000000 0.040157
C39   C     C_1   0.500000 0.732750 1.000000 0.072719
C40   C     C_1   1.000000 0.232750 1.000000 0.072734
C41   C     C_1   1.000000 0.266438 1.000000 0.076574
C42   C     C_1   0.500000 0.766438 1.000000 0.076573
C43   C     C_R   0.032911 0.326271 0.982697 0.229738
C44   C     C_R   0.967089 0.326271 0.017303 0.229739
C45   C     C_R   0.532910 0.826271 0.982699 0.229742
C46   C     C_R   0.366788 0.476322 0.092896 0.199982
C47   C     C_R   0.467089 0.826271 0.017301 0.229744
C48   C     C_R   0.032535 0.365656 0.985897 0.211775
C49   C     C_R   0.967464 0.365656 0.014104 0.211773
C50   C     C_R   0.532535 0.865656 0.985899 0.211774
C51   C     C_R   0.467464 0.865656 0.014102 0.211773
C52   C     C_R   1.000000 0.385811 0.000000 -0.072112
C53   C     C_R   0.500000 0.885811 0.000000 -0.072112
C54   C     C_3   0.039049 0.513970 0.250127 0.181509
C55   C     C_3   0.960951 0.513970 0.749872 0.181509
C56   C     C_3   0.539049 0.013970 0.250127 0.181508
C57   C     C_R   0.133212 0.976322 0.907104 0.199983
C58   C     C_3   0.460951 0.013970 0.749872 0.181509
C59   C     C_R   1.000000 0.306739 0.000000 -0.043912
C60   C     C_R   0.500000 0.806739 0.000000 -0.043907
C61   C     C_3   0.992952 0.460828 0.291008 -0.308973
C62   C     C_3   0.007047 0.460828 0.708992 -0.308972
C63   C     C_3   0.492952 0.960829 0.291009 -0.308972
C64   C     C_3   0.507048 0.960828 0.708992 -0.308973
C65   C     C_3   0.999573 0.500746 0.311556 -0.003808
C66   C     C_3   0.000427 0.500746 0.688444 -0.003808
C67   C     C_3   0.499573 0.000746 0.311556 -0.003808
C68   C     C_R   0.866788 0.976322 0.092896 0.199983
C69   C     C_3   0.500427 0.000746 0.688444 -0.003809
C70   C     C_3   0.000709 0.502247 0.188592 0.075360
C71   C     C_3   0.999291 0.502247 0.811407 0.075360
C72   C     C_3   0.500709 0.002247 0.188592 0.075360
C73   C     C_3   0.499291 0.002247 0.811407 0.075360
C74   C     C_3   0.040288 0.514561 0.176404 0.450601
C75   C     C_3   0.959712 0.514561 0.823595 0.450601
C76   C     C_3   0.540288 0.014561 0.176404 0.450601
C77   C     C_3   0.459712 0.014561 0.823595 0.450601
C78   C     C_3   0.701041 0.581375 0.749869 -0.072875
C79   C     C_R   0.613550 0.501237 0.887387 0.004931
C80   C     C_3   0.298960 0.581376 0.250129 -0.072875
C81   C     C_3   0.201041 0.081375 0.749868 -0.072872
C82   C     C_3   0.798960 0.081376 0.250129 -0.072872
C83   C     C_3   0.877637 0.445064 0.750538 -0.116779
C84   C     C_3   0.122363 0.445065 0.249461 -0.116780
C85   C     C_3   0.377637 0.945064 0.750538 -0.116779
C86   C     C_3   0.622363 0.945064 0.249461 -0.116780
C87   C     C_3   0.906259 0.503807 0.384426 -0.103906
C88   C     C_3   0.093741 0.503806 0.615573 -0.103906
C89   C     C_3   0.406259 0.003808 0.384426 -0.103905
C90   C     C_R   0.386450 0.501237 0.112613 0.004932
C91   C     C_3   0.593741 0.003807 0.615573 -0.103905
C92   C     C_3   0.798577 0.541750 0.575796 -0.109898
C93   C     C_3   0.201423 0.541750 0.424204 -0.109897
C94   C     C_3   0.298577 0.041751 0.575796 -0.109898
C95   C     C_3   0.701423 0.041751 0.424204 -0.109898
C96   C     C_3   0.588017 0.302216 0.911837 -0.080549
C97   C     C_3   0.411984 0.302215 0.088164 -0.080547
C98   C     C_3   0.088017 0.802216 0.911842 -0.080548
C99   C     C_3   0.911984 0.802215 0.088158 -0.080549
C100  C     C_3   0.075186 0.626355 0.826889 -0.073458
C101  C     C_R   0.113550 0.001237 0.887387 0.004932
C102  C     C_3   0.924814 0.626354 0.173111 -0.073458
C103  C     C_3   0.575186 0.126355 0.826889 -0.073458
C104  C     C_3   0.424814 0.126355 0.173111 -0.073458
C105  C     C_3   0.543583 0.694356 0.086427 -0.108675
C106  C     C_3   0.456418 0.694353 0.913568 -0.108675
C107  C     C_3   0.043526 0.194352 0.086539 -0.108687
C108  C     C_3   0.956475 0.194347 0.913453 -0.108685
C109  C     C_3   0.087647 0.302675 0.892278 -0.095670
C110  C     C_3   0.912353 0.302674 0.107723 -0.095668
C111  C     C_3   0.587647 0.802675 0.892282 -0.095683
C112  C     C_R   0.072367 0.499971 0.427692 0.607448
C113  C     C_R   0.886450 0.001237 0.112613 0.004932
C114  C     C_3   0.412352 0.802674 0.107718 -0.095681
C115  C     C_3   0.064565 0.387667 0.037320 -0.062918
C116  C     C_3   0.935435 0.387668 0.962681 -0.062917
C117  C     C_3   0.564563 0.887667 0.037324 -0.062918
C118  C     C_3   0.435436 0.887668 0.962677 -0.062916
C119  C     C_3   0.085157 0.552634 0.247786 -0.076236
C120  C     C_3   0.914843 0.552634 0.752212 -0.076234
C121  C     C_3   0.585158 0.052633 0.247786 -0.076236
C122  C     C_3   0.414843 0.052633 0.752213 -0.076236
C123  C     C_R   0.633856 0.525770 0.827657 0.203944
C124  C     C_R   0.366144 0.525770 0.172342 0.203942
C125  C     C_R   0.133856 0.025770 0.827657 0.203945
C126  C     C_R   0.866144 0.025770 0.172342 0.203944
C127  C     C_R   0.673300 0.524515 0.788049 0.329233
C128  C     C_R   0.326700 0.524515 0.211951 0.329234
C129  C     C_R   0.173300 0.024515 0.788048 0.329233
C130  C     C_R   0.826700 0.024515 0.211951 0.329233
C131  C     C_R   0.692536 0.499199 0.807442 -0.042413
C132  C     C_R   0.427633 0.999971 0.572308 0.607446
C133  C     C_R   0.307464 0.499200 0.192558 -0.042413
C134  C     C_R   0.192536 0.999199 0.807442 -0.042413
C135  C     C_R   0.807464 0.999200 0.192558 -0.042412
C136  C     C_1   0.732907 0.497993 0.767244 0.020015
C137  C     C_1   0.267093 0.497993 0.232756 0.020015
C138  C     C_1   0.232907 0.997992 0.767244 0.020015
C139  C     C_1   0.767093 0.997993 0.232756 0.020015
C140  C     C_1   0.766702 0.497903 0.733255 0.025422
C141  C     C_1   0.233298 0.497903 0.266744 0.025423
C142  C     C_1   0.266702 0.997903 0.733255 0.025422
C143  C     C_R   0.572367 0.999971 0.427692 0.607447
C144  C     C_1   0.733298 0.997903 0.266744 0.025423
C145  C     C_R   0.827167 0.471278 0.704236 -0.170125
C146  C     C_R   0.172832 0.471279 0.295764 -0.170125
C147  C     C_R   0.327167 0.971278 0.704236 -0.170125
C148  C     C_R   0.672832 0.971279 0.295764 -0.170126
C149  C     C_R   0.999411 0.500008 0.380478 0.597946
C150  C     C_R   0.000589 0.500008 0.619522 0.597946
C151  C     C_R   0.499411 0.000008 0.380478 0.597945
C152  C     C_R   0.500589 0.000008 0.619522 0.597945
C153  C     C_R   0.866594 0.471930 0.666506 0.207418
C154  C     C_3   0.992208 0.462002 0.220510 -0.325283
C155  C     C_R   0.133406 0.471931 0.333493 0.207419
C156  C     C_R   0.366594 0.971930 0.666506 0.207418
C157  C     C_R   0.633406 0.971931 0.333493 0.207419
C158  C     C_R   0.886058 0.499871 0.613876 0.013808
C159  C     C_R   0.113942 0.499871 0.386124 0.013810
C160  C     C_R   0.386058 0.999871 0.613876 0.013808
C161  C     C_R   0.613942 0.999871 0.386124 0.013809
C162  C     C_R   0.865847 0.527917 0.601676 0.193733
C163  C     C_R   0.134153 0.527917 0.398323 0.193732
C164  C     C_R   0.365847 0.027917 0.601677 0.193733
C165  C     C_3   0.007791 0.462002 0.779491 -0.325283
C166  C     C_R   0.634153 0.027917 0.398323 0.193732
C167  C     C_R   0.826054 0.526762 0.640160 0.261232
C168  C     C_R   0.173946 0.526762 0.359839 0.261231
C169  C     C_R   0.326054 0.026762 0.640160 0.261232
C170  C     C_R   0.673946 0.026762 0.359839 0.261231
C171  C     C_R   0.807080 0.498664 0.692031 -0.037522
C172  C     C_R   0.192919 0.498665 0.307969 -0.037521
C173  C     C_R   0.307080 0.998664 0.692031 -0.037522
C174  C     C_R   0.692919 0.998665 0.307969 -0.037521
C175  C     C_R   0.000000 0.572443 0.000000 0.611130
C176  C     C_3   0.492208 0.962003 0.220510 -0.325283
C177  C     C_R   0.500000 0.072443 0.000000 0.611131
C178  C     C_R   0.000224 0.501396 0.120011 0.597413
C179  C     C_R   0.999775 0.501396 0.879988 0.597413
C180  C     C_R   0.500224 0.001396 0.120011 0.597414
C181  C     C_R   0.499775 0.001396 0.879988 0.597414
C182  C     C_R   1.000000 0.427506 0.000000 0.562250
C183  C     C_R   0.500000 0.927506 0.000000 0.562250
C184  C     C_R   0.500000 0.428068 0.000000 0.529950
C185  C     C_R   0.000000 0.928068 0.000000 0.529950
C186  C     C_R   0.572075 0.500515 0.928174 0.560528
C187  C     C_3   0.507792 0.962002 0.779490 -0.325283
C188  C     C_R   0.427924 0.500515 0.071826 0.560528
C189  C     C_R   0.072076 0.000515 0.928174 0.560530
C190  C     C_R   0.927924 0.000515 0.071826 0.560530
C191  C     C_3   0.969167 0.528834 0.316953 0.164089
C192  C     C_3   0.030833 0.528834 0.683046 0.164089
C193  C     C_3   0.469168 0.028834 0.316953 0.164089
C194  C     C_3   0.530833 0.028834 0.683046 0.164089
C195  C     C_R   0.500000 0.572231 1.000000 0.519357
C196  C     C_R   0.000000 0.072231 1.000000 0.519360
C197  C     C_R   0.531087 0.327371 0.945903 0.281826
C198  C     C_R   0.672684 0.475629 0.866818 -0.174216
C199  C     C_R   0.468913 0.327370 0.054098 0.281826
C200  C     C_R   0.031088 0.827371 0.945904 0.281826
C201  C     C_R   0.968912 0.827370 0.054096 0.281826
C202  C     C_R   0.531177 0.366732 0.944779 0.214034
C203  C     C_R   0.468823 0.366732 0.055221 0.214033
C204  C     C_R   0.031178 0.866733 0.944781 0.214033
C205  C     C_R   0.968822 0.866732 0.055220 0.214034
C206  C     C_R   0.500000 0.386784 0.000000 -0.076206
C207  C     C_R   0.000000 0.886784 0.000000 -0.076207
C208  C     C_R   0.500000 0.307804 0.000000 -0.053364
Cu1   Cu    Cu3+1 0.000000 0.537250 0.500000 1.096872
Cu2   Cu    Cu3+1 0.500030 0.500070 0.062440 1.018101
Cu3   Cu    Cu3+1 0.999970 0.000070 0.937560 1.018092
Cu4   Cu    Cu3+1 0.000030 0.000070 0.062440 1.018093
Cu5   Cu    Cu3+1 0.500000 0.037250 0.500000 1.096874
Cu6   Cu    Cu3+1 1.000000 0.462700 0.500000 1.003778
Cu7   Cu    Cu3+1 0.500000 0.962700 0.500000 1.003783
Cu8   Cu    Cu3+1 0.962700 0.499940 0.037300 1.022294
Cu9   Cu    Cu3+1 0.037300 0.499940 0.962700 1.022294
Cu10  Cu    Cu3+1 0.462700 0.999940 0.037300 1.022294
Cu11  Cu    Cu3+1 0.537300 0.999940 0.962700 1.022294
Cu12  Cu    Cu3+1 0.499970 0.500070 0.937560 1.018100
H1    H     H_    0.979411 0.557118 0.320082 0.212819
H2    H     H_    0.940612 0.492412 0.752622 0.083182
H3    H     H_    0.218875 0.515873 0.407319 0.143125
H4    H     H_    0.174853 0.536980 0.476388 0.110682
H5    H     H_    0.217419 0.563850 0.433143 0.159019
H6    H     H_    0.281124 0.015874 0.592682 0.143126
H7    H     H_    0.325146 0.036981 0.523612 0.110680
H8    H     H_    0.282581 0.063851 0.566858 0.159018
H9    H     H_    0.718875 0.015873 0.407319 0.143125
H10   H     H_    0.674853 0.036980 0.476388 0.110681
H11   H     H_    0.717419 0.063850 0.433143 0.159019
H12   H     H_    0.576346 0.285262 0.962099 0.099263
H13   H     H_    0.559388 0.992412 0.247379 0.083183
H14   H     H_    0.599160 0.329311 0.918629 0.159035
H15   H     H_    0.611970 0.286371 0.868400 0.143016
H16   H     H_    0.423655 0.285261 0.037901 0.099262
H17   H     H_    0.400840 0.329309 0.081370 0.159034
H18   H     H_    0.388030 0.286370 0.131600 0.143015
H19   H     H_    0.076345 0.785262 0.962105 0.099263
H20   H     H_    0.099160 0.829311 0.918636 0.159035
H21   H     H_    0.111971 0.786371 0.868406 0.143015
H22   H     H_    0.923656 0.785262 0.037896 0.099263
H23   H     H_    0.900840 0.829310 0.081364 0.159034
H24   H     H_    0.440612 0.992412 0.752621 0.083182
H25   H     H_    0.888030 0.786370 0.131594 0.143016
H26   H     H_    0.562570 0.411101 0.899576 0.343061
H27   H     H_    0.437430 0.411101 0.100424 0.343060
H28   H     H_    0.062570 0.911102 0.899578 0.343061
H29   H     H_    0.937430 0.911101 0.100422 0.343060
H30   H     H_    0.092667 0.652082 0.812288 0.105161
H31   H     H_    0.050935 0.630756 0.818946 0.149769
H32   H     H_    0.092879 0.603927 0.789077 0.174317
H33   H     H_    0.907331 0.652081 0.187711 0.105161
H34   H     H_    0.949064 0.630757 0.181055 0.149768
H35   H     H_    0.687975 0.456417 0.881376 0.116134
H36   H     H_    0.907120 0.603927 0.210923 0.174317
H37   H     H_    0.592667 0.152082 0.812288 0.105160
H38   H     H_    0.550935 0.130756 0.818946 0.149769
H39   H     H_    0.592879 0.103927 0.789076 0.174317
H40   H     H_    0.407332 0.152081 0.187711 0.105160
H41   H     H_    0.449064 0.130757 0.181055 0.149769
H42   H     H_    0.407121 0.103927 0.210924 0.174316
H43   H     H_    0.560612 0.709417 0.034247 0.131512
H44   H     H_    0.555607 0.666079 0.083624 0.111591
H45   H     H_    0.545387 0.710594 0.128351 0.153855
H46   H     H_    0.312025 0.456418 0.118625 0.116134
H47   H     H_    0.439385 0.709410 0.965750 0.131507
H48   H     H_    0.444398 0.666074 0.916363 0.111591
H49   H     H_    0.454614 0.710592 0.871645 0.153856
H50   H     H_    0.060575 0.209409 0.034361 0.131505
H51   H     H_    0.055541 0.166073 0.083765 0.111604
H52   H     H_    0.045311 0.210591 0.128483 0.153846
H53   H     H_    0.939422 0.209400 0.965634 0.131499
H54   H     H_    0.944465 0.166067 0.916218 0.111604
H55   H     H_    0.954690 0.210589 0.871511 0.153846
H56   H     H_    0.096919 0.330350 0.864896 0.154728
H57   H     H_    0.187975 0.956417 0.881376 0.116134
H58   H     H_    0.072898 0.286506 0.870015 0.114988
H59   H     H_    0.113194 0.286708 0.880094 0.139574
H60   H     H_    0.903081 0.330349 0.135105 0.154726
H61   H     H_    0.927102 0.286504 0.129985 0.114988
H62   H     H_    0.886806 0.286707 0.119907 0.139575
H63   H     H_    0.596920 0.830349 0.864900 0.154733
H64   H     H_    0.572899 0.786505 0.870018 0.114976
H65   H     H_    0.613194 0.786707 0.880100 0.139564
H66   H     H_    0.403080 0.830348 0.135101 0.154731
H67   H     H_    0.427101 0.786504 0.129982 0.114976
H68   H     H_    0.812025 0.956418 0.118625 0.116134
H69   H     H_    0.386806 0.786706 0.119900 0.139565
H70   H     H_    0.066524 0.359756 0.058152 0.144056
H71   H     H_    0.039150 0.402826 0.078760 0.098220
H72   H     H_    0.089431 0.404264 0.027175 0.155239
H73   H     H_    0.933475 0.359757 0.941850 0.144056
H74   H     H_    0.960850 0.402827 0.921241 0.098220
H75   H     H_    0.910568 0.404264 0.972827 0.155239
H76   H     H_    0.566523 0.859756 0.058155 0.144060
H77   H     H_    0.539148 0.902826 0.078763 0.098219
H78   H     H_    0.589430 0.904264 0.027180 0.155240
H79   H     H_    0.812101 0.449291 0.743162 0.130824
H80   H     H_    0.433477 0.859757 0.941846 0.144060
H81   H     H_    0.460851 0.902827 0.921238 0.098219
H82   H     H_    0.410570 0.904265 0.972822 0.155240
H83   H     H_    0.989477 0.579136 0.218587 0.366352
H84   H     H_    0.010524 0.579136 0.781411 0.366351
H85   H     H_    0.489478 0.079136 0.218586 0.366352
H86   H     H_    0.510523 0.079136 0.781412 0.366351
H87   H     H_    0.104581 0.545272 0.190197 0.116039
H88   H     H_    0.090419 0.534480 0.283505 0.101045
H89   H     H_    0.091124 0.581970 0.255762 0.160498
H90   H     H_    0.187898 0.449292 0.256837 0.130823
H91   H     H_    0.895419 0.545272 0.809802 0.116038
H92   H     H_    0.909582 0.534480 0.716494 0.101045
H93   H     H_    0.908877 0.581970 0.744236 0.160498
H94   H     H_    0.604581 0.045271 0.190197 0.116039
H95   H     H_    0.590419 0.034479 0.283505 0.101046
H96   H     H_    0.591124 0.081969 0.255761 0.160499
H97   H     H_    0.395419 0.045271 0.809802 0.116039
H98   H     H_    0.409581 0.034480 0.716494 0.101046
H99   H     H_    0.408876 0.081970 0.744237 0.160499
H100  H     H_    0.060825 0.549208 0.093628 0.355392
H101  H     H_    0.312101 0.949291 0.743162 0.130824
H102  H     H_    0.939175 0.549209 0.906371 0.355392
H103  H     H_    0.560826 0.049208 0.093627 0.355392
H104  H     H_    0.439174 0.049208 0.906371 0.355392
H105  H     H_    0.020589 0.557117 0.679917 0.212819
H106  H     H_    0.687898 0.949292 0.256837 0.130823
H107  H     H_    0.056876 0.689365 0.912402 0.131202
H108  H     H_    0.943124 0.689365 0.087599 0.131201
H109  H     H_    0.556876 0.189365 0.912401 0.131201
H110  H     H_    0.443124 0.189365 0.087599 0.131200
H111  H     H_    0.504652 0.618847 0.095074 0.159712
H112  H     H_    0.495348 0.618848 0.904925 0.159709
H113  H     H_    0.004610 0.118848 0.095122 0.159714
H114  H     H_    0.995390 0.118848 0.904877 0.159710
H115  H     H_    0.941765 0.515850 0.254065 0.168949
H116  H     H_    0.479412 0.057118 0.320082 0.212819
H117  H     H_    0.058235 0.515850 0.745935 0.168949
H118  H     H_    0.441765 0.015851 0.254065 0.168949
H119  H     H_    0.558235 0.015851 0.745935 0.168949
H120  H     H_    0.016021 0.441773 0.283191 0.140481
H121  H     H_    0.983978 0.441773 0.716810 0.140480
H122  H     H_    0.516021 0.941773 0.283191 0.140482
H123  H     H_    0.483979 0.941773 0.716810 0.140482
H124  H     H_    0.966730 0.448228 0.335164 0.153755
H125  H     H_    0.033269 0.448228 0.664837 0.153755
H126  H     H_    0.466730 0.948229 0.335165 0.153756
H127  H     H_    0.520589 0.057118 0.679917 0.212819
H128  H     H_    0.533270 0.948228 0.664836 0.153756
H129  H     H_    0.964271 0.452402 0.231196 0.109032
H130  H     H_    0.035728 0.452401 0.768805 0.109032
H131  H     H_    0.464270 0.952402 0.231197 0.109033
H132  H     H_    0.535729 0.952402 0.768804 0.109033
H133  H     H_    0.092861 0.499073 0.117418 0.318175
H134  H     H_    0.907139 0.499074 0.882582 0.318175
H135  H     H_    0.592861 0.999072 0.117418 0.318174
H136  H     H_    0.407139 0.999072 0.882582 0.318175
H137  H     H_    0.631168 0.436524 0.970802 0.324304
H138  H     H_    0.013206 0.441862 0.181363 0.156997
H139  H     H_    0.368832 0.436524 0.029199 0.324303
H140  H     H_    0.131168 0.936524 0.970802 0.324304
H141  H     H_    0.868832 0.936524 0.029199 0.324304
H142  H     H_    0.591475 0.557890 0.848421 0.323701
H143  H     H_    0.408525 0.557890 0.151578 0.323702
H144  H     H_    0.091475 0.057890 0.848421 0.323701
H145  H     H_    0.908525 0.057890 0.151578 0.323701
H146  H     H_    0.718821 0.577082 0.774147 0.118951
H147  H     H_    0.674851 0.596615 0.788248 0.138085
H148  H     H_    0.717078 0.599386 0.701600 0.154645
H149  H     H_    0.986794 0.441862 0.818638 0.156997
H150  H     H_    0.281180 0.577083 0.225850 0.118949
H151  H     H_    0.325151 0.596615 0.211750 0.138086
H152  H     H_    0.282924 0.599387 0.298397 0.154645
H153  H     H_    0.218821 0.077082 0.774147 0.118951
H154  H     H_    0.174851 0.096615 0.788247 0.138090
H155  H     H_    0.217078 0.099386 0.701600 0.154645
H156  H     H_    0.781180 0.077083 0.225851 0.118950
H157  H     H_    0.825151 0.096615 0.211751 0.138091
H158  H     H_    0.782923 0.099387 0.298397 0.154645
H159  H     H_    0.851044 0.429693 0.785524 0.121966
H160  H     H_    0.513205 0.941862 0.181363 0.156997
H161  H     H_    0.875853 0.474073 0.771186 0.082366
H162  H     H_    0.900239 0.430401 0.754043 0.142464
H163  H     H_    0.148956 0.429693 0.214477 0.121966
H164  H     H_    0.124148 0.474074 0.228812 0.082367
H165  H     H_    0.099761 0.430402 0.245956 0.142464
H166  H     H_    0.351044 0.929693 0.785523 0.121966
H167  H     H_    0.375852 0.974073 0.771186 0.082366
H168  H     H_    0.400239 0.930401 0.754043 0.142465
H169  H     H_    0.648956 0.929693 0.214477 0.121967
H170  H     H_    0.624149 0.974073 0.228812 0.082366
H171  H     H_    0.486794 0.941862 0.818638 0.156997
H172  H     H_    0.599761 0.930402 0.245956 0.142464
H173  H     H_    0.868150 0.574113 0.550659 0.362768
H174  H     H_    0.131851 0.574113 0.449340 0.362768
H175  H     H_    0.368149 0.074114 0.550659 0.362768
H176  H     H_    0.631851 0.074114 0.449340 0.362768
H177  H     H_    0.917087 0.478120 0.351399 0.081518
H178  H     H_    0.889877 0.520784 0.366979 0.126522
H179  H     H_    0.886545 0.494724 0.440686 0.148728
H180  H     H_    0.082912 0.478119 0.648602 0.081518
H181  H     H_    0.110123 0.520783 0.633020 0.126522
H182  H     H_    0.059388 0.492412 0.247379 0.083183
H183  H     H_    0.113455 0.494723 0.559314 0.148727
H184  H     H_    0.417087 0.978120 0.351399 0.081517
H185  H     H_    0.389877 0.020785 0.366979 0.126521
H186  H     H_    0.386545 0.994725 0.440686 0.148728
H187  H     H_    0.582913 0.978120 0.648602 0.081517
H188  H     H_    0.610123 0.020784 0.633020 0.126522
H189  H     H_    0.613455 0.994724 0.559314 0.148728
H190  H     H_    0.781124 0.515873 0.592682 0.143126
H191  H     H_    0.825146 0.536980 0.523612 0.110681
H192  H     H_    0.782581 0.563850 0.566857 0.159019
O1    O     O_R   0.945620 0.531450 0.554380 -0.466216
O2    O     O_R   0.445650 0.500090 0.001590 -0.460342
O3    O     O_3   0.435025 0.806818 0.032310 -0.553200
O4    O     O_3   0.064827 0.384258 0.972027 -0.529647
O5    O     O_3   0.935172 0.384258 0.027974 -0.529647
O6    O     O_3   0.564827 0.884258 0.972030 -0.529648
O7    O     O_3   0.435172 0.884258 0.027971 -0.529648
O8    O     O_3   0.969548 0.564302 0.217753 -0.717696
O9    O     O_3   0.030453 0.564302 0.782245 -0.717697
O10   O     O_3   0.469549 0.064303 0.217753 -0.717696
O11   O     O_3   0.530452 0.064302 0.782246 -0.717697
O12   O     O_3   0.047262 0.550147 0.266479 -0.544732
O13   O     O_R   0.054350 0.000090 0.998410 -0.460340
O14   O     O_3   0.952739 0.550147 0.733520 -0.544732
O15   O     O_3   0.547262 0.050147 0.266478 -0.544732
O16   O     O_3   0.452738 0.050147 0.733521 -0.544732
O17   O     O_3   0.049600 0.551004 0.146586 -0.674959
O18   O     O_3   0.950401 0.551004 0.853413 -0.674958
O19   O     O_3   0.549600 0.051003 0.146585 -0.674958
O20   O     O_3   0.450400 0.051003 0.853414 -0.674958
O21   O     O_R   0.945650 0.000090 0.001590 -0.460340
O22   O     O_R   0.500010 0.554450 0.947200 -0.521351
O23   O     O_R   0.499990 0.554450 0.052800 -0.521351
O24   O     O_R   0.000010 0.054450 0.947200 -0.521355
O25   O     O_R   0.999990 0.054450 0.052800 -0.521355
O26   O     O_R   0.945570 0.468490 0.554430 -0.476527
O27   O     O_R   0.054430 0.468490 0.445570 -0.476528
O28   O     O_R   0.445570 0.968490 0.554430 -0.476527
O29   O     O_R   0.054380 0.531450 0.445620 -0.466216
O30   O     O_R   0.554430 0.968490 0.445570 -0.476527
O31   O     O_R   0.999990 0.531450 0.408860 -0.463397
O32   O     O_R   0.000010 0.531450 0.591140 -0.463397
O33   O     O_R   0.499990 0.031450 0.408860 -0.463397
O34   O     O_R   0.500010 0.031450 0.591140 -0.463397
O35   O     O_R   0.999940 0.468490 0.408900 -0.536335
O36   O     O_R   0.000060 0.468490 0.591100 -0.536335
O37   O     O_R   0.499940 0.968490 0.408900 -0.536335
O38   O     O_R   0.500060 0.968490 0.591100 -0.536334
O39   O     O_R   0.968510 0.554330 0.031500 -0.463690
O40   O     O_R   0.445620 0.031450 0.554380 -0.466215
O41   O     O_R   0.031490 0.554330 0.968500 -0.463691
O42   O     O_R   0.468510 0.054330 0.031500 -0.463691
O43   O     O_R   0.531490 0.054330 0.968500 -0.463691
O44   O     O_R   0.968510 0.499950 0.122650 -0.522493
O45   O     O_R   0.031490 0.499950 0.877350 -0.522494
O46   O     O_R   0.468510 0.999950 0.122650 -0.522494
O47   O     O_R   0.531490 0.999950 0.877350 -0.522494
O48   O     O_R   0.031450 0.499990 0.059700 -0.488262
O49   O     O_R   0.968550 0.499990 0.940300 -0.488261
O50   O     O_R   0.531450 0.999990 0.059700 -0.488261
O51   O     O_R   0.554380 0.031450 0.445620 -0.466216
O52   O     O_R   0.468550 0.999990 0.940300 -0.488261
O53   O     O_R   0.968500 0.445560 0.031500 -0.474607
O54   O     O_R   0.031500 0.445560 0.968500 -0.474606
O55   O     O_R   0.468500 0.945560 0.031500 -0.474607
O56   O     O_R   0.531500 0.945560 0.968500 -0.474606
O57   O     O_R   0.499920 0.445680 0.947340 -0.485818
O58   O     O_R   0.500080 0.445680 0.052660 -0.485817
O59   O     O_R   0.999920 0.945680 0.947340 -0.485818
O60   O     O_R   0.000080 0.945680 0.052660 -0.485817
O61   O     O_3   0.068060 0.488893 0.129208 -0.740012
O62   O     O_R   0.554340 0.500070 0.892900 -0.505505
O63   O     O_3   0.931940 0.488893 0.870793 -0.740011
O64   O     O_3   0.568060 0.988892 0.129208 -0.740012
O65   O     O_3   0.431940 0.988892 0.870792 -0.740013
O66   O     O_3   0.613289 0.452203 0.964557 -0.673368
O67   O     O_3   0.386711 0.452203 0.035444 -0.673367
O68   O     O_3   0.113289 0.952203 0.964558 -0.673368
O69   O     O_3   0.886711 0.952203 0.035443 -0.673368
O70   O     O_3   0.616547 0.551755 0.806792 -0.657262
O71   O     O_3   0.383453 0.551755 0.193207 -0.657263
O72   O     O_3   0.116547 0.051755 0.806791 -0.657262
O73   O     O_R   0.445660 0.500070 0.107100 -0.505504
O74   O     O_3   0.883453 0.051755 0.193207 -0.657262
O75   O     O_3   0.693012 0.547131 0.727965 -0.517318
O76   O     O_3   0.306988 0.547131 0.272034 -0.517318
O77   O     O_3   0.193012 0.047131 0.727964 -0.517320
O78   O     O_3   0.806988 0.047131 0.272034 -0.517320
O79   O     O_3   0.886658 0.444463 0.677986 -0.539175
O80   O     O_3   0.113342 0.444464 0.322014 -0.539175
O81   O     O_3   0.386658 0.944463 0.677986 -0.539174
O82   O     O_3   0.613342 0.944464 0.322014 -0.539174
O83   O     O_3   0.885682 0.555359 0.550819 -0.652333
O84   O     O_R   0.054340 0.000070 0.892900 -0.505507
O85   O     O_3   0.114318 0.555359 0.449181 -0.652333
O86   O     O_3   0.385682 0.055359 0.550819 -0.652333
O87   O     O_3   0.614318 0.055359 0.449181 -0.652332
O88   O     O_3   0.934386 0.526146 0.384159 -0.539020
O89   O     O_3   0.065614 0.526145 0.615840 -0.539020
O90   O     O_3   0.434386 0.026146 0.384159 -0.539020
O91   O     O_3   0.565614 0.026146 0.615841 -0.539020
O92   O     O_3   0.805676 0.554152 0.629707 -0.572839
O93   O     O_3   0.194324 0.554152 0.370292 -0.572838
O94   O     O_3   0.305676 0.054152 0.629708 -0.572838
O95   O     O_R   0.945660 0.000070 0.107100 -0.505506
O96   O     O_3   0.694324 0.054152 0.370292 -0.572837
O97   O     O_3   0.561097 0.307903 0.891378 -0.513665
O98   O     O_3   0.438904 0.307903 0.108623 -0.513665
O99   O     O_3   0.061098 0.807903 0.891380 -0.513665
O100  O     O_3   0.938903 0.807903 0.108620 -0.513665
O101  O     O_3   0.562624 0.384100 0.889349 -0.643603
O102  O     O_3   0.437377 0.384099 0.110651 -0.643602
O103  O     O_3   0.062625 0.884100 0.889351 -0.643602
O104  O     O_3   0.937375 0.884099 0.110649 -0.643601
O105  O     O_3   0.063910 0.614926 0.897790 -0.540499
O106  O     O_R   0.554350 0.500090 0.998410 -0.460341
O107  O     O_3   0.936090 0.614926 0.102210 -0.540498
O108  O     O_3   0.563910 0.114926 0.897790 -0.540499
O109  O     O_3   0.436091 0.114926 0.102210 -0.540498
O110  O     O_3   0.505559 0.692038 0.106104 -0.558068
O111  O     O_3   0.494441 0.692038 0.893896 -0.558067
O112  O     O_3   0.005510 0.192038 0.106157 -0.558076
O113  O     O_3   0.994490 0.192039 0.893841 -0.558076
O114  O     O_3   0.064975 0.306818 0.967686 -0.553202
O115  O     O_3   0.935024 0.306818 0.032314 -0.553198
O116  O     O_3   0.564974 0.806818 0.967691 -0.553203

loop_
_geom_bond_atom_site_label_1
_geom_bond_atom_site_label_2
_ccdc_geom_bond_type
C176  H160  S    
C58   O16   S    
C133  C137  S    
C109  O114  S    
C81   H153  S    
C85   H166  S    
H28   O103  S    
C111  H64   S    
C185  C207  S    
C86   H169  S    
C184  O58   A    
C136  C140  T    
Cu9   O48   S    
C109  H58   S    
C164  C169  A    
C170  O96   S    
C54   C65   S    
C135  C139  S    
C106  H47   S    
C99   O100  S    
Cu1   O29   S    
C52   C182  S    
C149  O31   A    
C101  C189  S    
C53   C183  S    
C5    C6    T    
C196  O25   A    
C146  H90   S    
C117  H77   S    
C124  O71   S    
C118  H82   S    
Cu7   O28   S    
Cu5   O34   S    
C54   C74   S    
C18   C177  S    
H103  O19   S    
C70   C74   S    
C1    O26   A    
H142  O70   S    
C20   C71   S    
C201  O100  S    
C12   O105  S    
C22   H119  S    
C32   H113  S    
H26   O101  S    
C132  O28   A    
Cu12  O62   S    
C162  O83   S    
C120  O14   S    
C87   O88   S    
C104  H42   S    
C76   O64   S    
Cu10  O52   S    
C4    C208  S    
C85   O81   S    
Cu5   Cu7   S    
C143  O51   A    
C116  H73   S    
C50   C53   A    
C21   C72   S    
C27   C31   A    
C64   H128  S    
C80   H152  S    
C28   C32   A    
C21   H118  S    
C108  H53   S    
C177  O43   A    
C110  H61   S    
C30   C34   A    
Cu3   O84   S    
C167  C171  A    
C98   H19   S    
C189  O84   A    
C119  O12   S    
C44   C49   A    
C148  C174  A    
Cu7   O38   S    
C26   O110  S    
C19   H115  S    
Cu5   O40   S    
Cu9   O54   S    
C73   C181  S    
C105  H43   S    
C154  H129  S    
C93   H3    S    
C195  O23   A    
C100  O105  S    
C58   H24   S    
C148  H106  S    
C94   H7    S    
C187  H171  S    
C126  O74   S    
C85   H168  S    
C91   H188  S    
C120  H91   S    
C183  O55   A    
C62   H125  S    
C84   H165  S    
C170  C174  A    
Cu6   O26   S    
C175  O41   A    
C43   O114  S    
C107  H52   S    
Cu1   O31   S    
C114  H66   S    
C179  O45   A    
C80   H150  S    
C88   H181  S    
C145  H79   S    
C147  H101  S    
C97   H17   S    
C108  H54   S    
C118  H80   S    
C54   H182  S    
H176  O87   S    
C102  H33   S    
C84   H163  S    
C89   H185  S    
C197  O97   S    
Cu6   O35   S    
C45   C50   A    
C83   H161  S    
C180  O50   A    
Cu4   O25   S    
C93   O93   S    
C112  O27   A    
C65   C149  S    
C127  C131  A    
C93   H5    S    
C48   C52   A    
C144  C174  S    
C115  H72   S    
C73   C77   S    
C197  C208  A    
C81   H154  S    
C57   O68   S    
C182  O53   A    
C46   O67   S    
C17   C175  S    
C19   C191  S    
C169  O94   S    
C15   C18   A    
C116  H75   S    
C61   H124  S    
C29   C33   A    
C80   H151  S    
C108  H55   S    
C8    C23   A    
C127  O75   S    
C92   H192  S    
C26   C37   A    
C154  H138  S    
C113  C190  S    
C119  H87   S    
C22   O11   S    
C32   C36   A    
C77   O65   S    
Cu7   O30   S    
C194  O91   S    
C82   O78   S    
C63   H122  S    
C143  O30   A    
C13   C57   A    
C11   C25   A    
C44   C59   A    
C105  H45   S    
C2    H46   S    
Cu4   O13   S    
C153  C158  A    
C178  O44   A    
C58   C77   S    
C196  O24   A    
C65   C191  S    
C188  O2    A    
C66   C192  S    
C29   C38   A    
C101  C125  A    
C199  O98   S    
C191  H1    S    
C200  C204  A    
C55   C75   S    
C151  O37   A    
C1    O1    A    
C107  H50   S    
C30   H111  S    
C14   C17   A    
Cu12  O22   S    
C4    C7    T    
C88   H183  S    
C142  C173  S    
C91   O91   S    
C19   O8    S    
C205  C207  A    
C87   H178  S    
C165  H149  S    
C181  O52   A    
C62   C66   S    
C200  O99   S    
C155  C159  A    
C156  C160  A    
C131  C136  S    
C54   O12   S    
C132  O40   A    
C24   C68   A    
C9    C23   A    
C113  C126  A    
H144  O72   S    
C83   H159  S    
C121  H94   S    
C61   H120  S    
C51   C53   A    
C205  O104  S    
C12   C17   A    
Cu3   O59   S    
C36   C196  S    
C178  O48   A    
C186  O62   A    
C123  C127  A    
C8    C12   A    
C115  H70   S    
C3    C200  A    
C31   C34   A    
C197  C202  A    
C123  O70   S    
C64   C69   S    
C186  O106  A    
C55   H2    S    
H83   O8    S    
C10   C25   A    
C96   O97   S    
C122  H98   S    
C140  C171  S    
C204  O103  S    
Cu3   O24   S    
C33   H114  S    
C72   C180  S    
C92   H190  S    
C89   O90   S    
C153  O79   S    
C96   H14   S    
C15   O108  S    
C88   O89   S    
C69   C152  S    
C111  H63   S    
C86   H170  S    
Cu11  O47   S    
Cu4   O60   S    
C103  O108  S    
C26   C30   A    
C110  H62   S    
C57   C101  A    
C82   H157  S    
C106  H48   S    
C203  O102  S    
C99   H22   S    
C163  C168  A    
H85   O10   S    
C128  O76   S    
C192  H105  S    
C166  O87   S    
C111  O116  S    
C35   C79   A    
C199  C208  A    
C103  H38   S    
C96   H15   S    
C143  C161  S    
C102  H36   S    
C148  C157  A    
C61   C65   S    
C62   H121  S    
C109  H56   S    
C187  H132  S    
Cu5   O33   S    
C185  O59   A    
H135  O64   S    
C106  H49   S    
Cu12  O2    S    
C71   C165  S    
C202  O101  S    
H86   O11   S    
C201  C205  A    
H102  O18   S    
C21   C193  S    
C78   O75   S    
Cu2   O58   S    
C192  O89   S    
C27   C37   A    
C129  O77   S    
C34   C195  S    
Cu2   O23   S    
C199  C203  A    
C24   H68   S    
C79   C186  S    
C130  C135  A    
C75   O63   S    
C100  H31   S    
Cu11  O43   S    
C61   C154  S    
H104  O20   S    
C63   C176  S    
C121  H96   S    
C103  H39   S    
C116  H74   S    
C44   O115  S    
C160  C164  A    
C1    C158  S    
C121  O15   S    
C95   H11   S    
C66   C150  S    
C122  O16   S    
C177  O42   A    
C98   H20   S    
C126  C130  A    
C188  O73   A    
C184  C206  S    
Cu7   O37   S    
C104  H40   S    
H175  O86   S    
C8    H107  S    
H139  O67   S    
C76   O19   S    
C146  C155  A    
C11   H110  S    
H143  O71   S    
C95   O96   S    
C95   H10   S    
C159  C163  A    
H141  O69   S    
C156  O81   S    
C99   H25   S    
C94   H8    S    
C68   C113  A    
C124  C128  A    
Cu12  O57   S    
C85   H167  S    
C91   H187  S    
C120  H92   S    
C184  O57   A    
C94   H6    S    
C74   O61   S    
C86   O82   S    
C39   C42   T    
C110  H60   S    
Cu6   O27   S    
C203  C206  A    
C114  O3    S    
C2    C133  A    
C189  O13   A    
C150  O36   A    
C157  O82   S    
C151  O33   A    
C131  C198  A    
C78   H146  S    
C138  C142  T    
C107  O112  S    
Cu10  O46   S    
C47   C51   A    
C125  C129  A    
C97   H16   S    
C107  H51   S    
C117  H78   S    
C88   H180  S    
C2    C46   A    
C118  H81   S    
C97   O98   S    
C102  H34   S    
H173  O83   S    
C89   H184  S    
C9    C14   A    
Cu10  O42   S    
C50   O6    S    
Cu9   O41   S    
H145  O74   S    
Cu6   O36   S    
Cu3   Cu4   S    
C204  C207  A    
C82   H156  S    
C49   C52   A    
C92   O92   S    
C168  O93   S    
C106  O111  S    
C63   H126  S    
C191  O88   S    
H84   O9    S    
C108  O113  S    
C91   H189  S    
C115  H71   S    
C110  O115  S    
C3    C201  A    
C104  H41   S    
C157  C161  A    
C182  O54   A    
C55   C66   S    
C86   H172  S    
C137  C141  T    
C152  O34   A    
C55   O14   S    
C90   C124  A    
C95   H9    S    
C3    C5    S    
C20   C192  S    
C78   H148  S    
C147  C173  A    
C58   C69   S    
C78   H147  S    
C46   C90   A    
C125  O72   S    
C16   O109  S    
C7    C25   S    
Cu8   O49   S    
C87   H179  S    
C120  H93   S    
C190  O21   A    
C37   C39   S    
C75   O18   S    
C38   C40   S    
C181  O47   A    
H136  O65   S    
C105  H44   S    
C94   O94   S    
C175  O39   A    
C69   C194  S    
C93   H4    S    
C72   C176  S    
C99   H23   S    
C84   H164  S    
C149  O35   A    
C109  H59   S    
C129  C134  A    
C168  C172  A    
C119  H89   S    
Cu3   O21   S    
Cu11  O56   S    
C83   H162  S    
C183  O56   A    
C20   H117  S    
H140  O68   S    
C21   O10   S    
H137  O66   S    
C145  C171  A    
C45   C60   A    
Cu2   O106  S    
C56   C76   S    
C112  C159  S    
C146  C172  A    
C13   C134  A    
Cu1   O32   S    
C72   C76   S    
C13   H57   S    
C87   H177  S    
Cu4   O95   S    
C97   H18   S    
Cu8   O39   S    
C132  C160  S    
C89   H186  S    
C83   O79   S    
C165  H130  S    
C77   O20   S    
C100  H30   S    
C10   C15   A    
C56   O15   S    
C81   O77   S    
C114  H67   S    
Cu1   O1    S    
H29   O104  S    
Cu2   Cu12  S    
C11   C16   A    
C71   C179  S    
C98   H21   S    
C47   C60   A    
C198  H35   S    
C9    H108  S    
C176  H131  S    
C117  O6    S    
C43   C48   A    
C81   H155  S    
C161  C166  A    
C28   O112  S    
C185  O60   A    
C152  O38   A    
C115  O4    S    
C29   O113  S    
C122  H99   S    
H134  O63   S    
C103  H37   S    
C31   H112  S    
C155  O80   S    
C190  O95   A    
Cu2   O73   S    
C163  O85   S    
C92   H191  S    
Cu8   O53   S    
C63   C67   S    
C14   O107  S    
C117  H76   S    
C67   C151  S    
C33   C36   A    
Cu11  O50   S    
Cu8   Cu9   S    
Cu5   O51   S    
C42   C60   S    
C158  C162  A    
C102  O107  S    
C70   C178  S    
C79   C123  A    
C82   H158  S    
C141  C172  S    
C195  O22   A    
C45   O116  S    
C179  O49   A    
C147  C156  A    
Cu1   Cu6   S    
C139  C144  T    
C28   C38   A    
C164  O86   S    
Cu8   O44   S    
C111  H65   S    
C193  H116  S    
C47   O3    S    
C20   O9    S    
C48   O4    S    
H174  O85   S    
C74   O17   S    
C24   C135  A    
C40   C41   T    
C84   O80   S    
C180  O46   A    
C150  O32   A    
C10   H109  S    
H133  O61   S    
C56   H13   S    
C35   O66   S    
C167  O92   S    
C119  H88   S    
C114  H69   S    
C169  C173  A    
C70   C154  S    
C194  H127  S    
C27   O111  S    
C100  H32   S    
C134  C138  S    
Cu9   O45   S    
C193  O90   S    
C51   O7    S    
C43   C59   A    
C121  H95   S    
C56   C67   S    
C64   H123  S    
C49   O5    S    
H27   O102  S    
H100  O17   S    
C145  C153  A    
C128  C133  A    
C71   C75   S    
Cu10  Cu11  S    
C90   C188  S    
C80   O76   S    
C6    C23   S    
C98   O99   S    
C166  C170  A    
C96   H12   S    
Cu10  O55   S    
C118  O7    S    
C64   C187  S    
C73   C187  S    
C162  C167  A    
C116  O5    S    
C62   C165  S    
C104  O109  S    
C122  H97   S    
C16   C18   A    
C202  C206  A    
C41   C59   S    
C112  O29   A    
C68   O69   S    
C22   C194  S    
C19   C70   S    
C22   C73   S    
C105  O110  S    
C67   C193  S    
C130  O78   S    
C35   C198  A    
