data_mof_unit_16381.cif
_audit_creation_date              2012-12-10T17:00:02-0500
_audit_creation_method            fapswitch 2.2
_symmetry_space_group_name_H-M    P1
_symmetry_Int_Tables_number       1
_space_group_crystal_system       triclinic
_cell_length_a                    23.263023
_cell_length_b                    10.997119
_cell_length_c                    9.838126
_cell_angle_alpha                 85.273494
_cell_angle_beta                  89.316795
_cell_angle_gamma                 92.307411
_cell_volume                      2505.96452076

loop_
_atom_site_label
_atom_site_type_symbol
_atom_type_description
_atom_site_fract_x
_atom_site_fract_y
_atom_site_fract_z
_atom_type_partial_charge
C1    C     C_R   0.503497 0.266041 0.505197 0.805061
C2    C     C_R   0.956288 0.284688 0.626573 0.363047
C3    C     C_R   0.015043 0.279581 0.593717 0.397698
C4    C     C_R   0.052328 0.383690 0.603215 -0.187006
C5    C     C_R   0.028187 0.495829 0.626194 -0.123253
C6    C     C_R   0.064144 0.599429 0.643338 -0.129067
C7    C     C_R   0.038842 0.711179 0.665542 0.465907
C8    C     C_R   0.980344 0.725937 0.634801 -0.122811
C9    C     C_R   0.112633 0.380603 0.585942 0.539400
C10   C     C_R   0.124215 0.589803 0.631359 0.528674
C11   C     C_R   0.231953 0.562831 0.455280 0.049521
C12   C     C_R   0.390887 0.498808 0.501317 0.790853
C13   C     C_R   0.292716 0.577883 0.442290 -0.120465
C14   C     C_R   0.327249 0.488851 0.508373 -0.333521
C15   C     C_R   0.300794 0.392709 0.593944 0.448855
C16   C     C_R   0.243643 0.401875 0.638832 -0.066193
C17   C     C_R   0.207895 0.483108 0.564134 0.046097
C18   C     C_R   0.766930 0.467596 0.432208 0.448505
C19   C     C_R   0.707019 0.458117 0.422051 -0.236084
C20   C     C_R   0.671762 0.528767 0.497376 -0.264000
C21   C     C_R   0.697092 0.618981 0.574316 -0.151484
C22   C     C_R   0.756117 0.614718 0.603471 0.486210
C23   C     C_R   0.495411 0.734009 0.495386 0.675476
C24   C     C_R   0.791550 0.538311 0.533446 0.065610
C25   C     C_2   0.512970 0.942459 0.393365 0.335338
C26   C     C_2   0.482952 0.866063 0.486290 0.239588
C27   C     C_2   0.528656 0.074058 0.412216 -0.174557
C28   C     C_2   0.510201 0.133488 0.519470 0.281778
C29   C     C_2   0.471328 0.421214 0.935010 -0.007885
C30   C     C_2   0.462242 0.437348 0.086307 0.371467
C31   C     C_R   0.608911 0.506913 0.498601 0.848749
C32   C     C_R   0.886879 0.630647 0.567767 0.578207
C33   C     C_R   0.871869 0.414820 0.604739 0.582787
C34   C     C_R   0.931406 0.400355 0.622371 -0.227262
C35   C     C_R   0.967846 0.506039 0.623017 -0.079502
C36   C     C_R   0.944491 0.622616 0.610751 -0.141822
Cu1   Cu    Cu3+1 0.500010 0.500020 0.638630 1.002045
Cu2   Cu    Cu3+1 0.499990 0.499980 0.361370 1.025373
H1    H     H_    0.687994 0.394329 0.355646 0.224747
N1    N     N_R   0.851337 0.528034 0.570438 -0.446543
N2    N     N_R   0.146941 0.483663 0.596321 -0.461852
N3    N     N_2   0.499380 0.498660 0.846910 -0.007586
N4    N     N_2   0.499370 0.498630 0.153040 -0.250420
O1    O     O_R   0.500010 0.321960 0.617040 -0.556952
O2    O     O_2   0.834970 0.316693 0.613187 -0.495159
O3    O     O_2   0.137019 0.275813 0.559089 -0.532566
O4    O     O_2   0.159853 0.687382 0.646882 -0.516031
O5    O     O_R   0.499990 0.321920 0.382900 -0.544881
O6    O     O_R   0.417890 0.499980 0.617100 -0.523422
O7    O     O_R   0.417870 0.499940 0.382950 -0.581720
O8    O     O_R   0.500010 0.678080 0.617100 -0.590754
O9    O     O_R   0.499990 0.678040 0.382960 -0.544449
O10   O     O_R   0.582130 0.500060 0.617050 -0.601449
O11   O     O_R   0.582110 0.500020 0.382900 -0.524145
O12   O     O_2   0.867185 0.738560 0.517113 -0.514816
O13   O     O_3   0.923081 0.176938 0.631955 -0.535667
C37   C     C_3   0.901120 0.146753 0.766151 0.179434
H2    H     H_    0.863777 0.081662 0.757711 0.198476
H3    H     H_    0.884518 0.226473 0.815121 0.125680
C38   C     C_3   0.945904 0.086494 0.859177 -0.439717
H4    H     H_    0.972428 0.027023 0.801468 0.274971
H5    H     H_    0.975199 0.158298 0.896282 0.212526
C39   C     C_3   0.916939 0.010357 0.979907 -0.927741
H6    H     H_    0.886994 0.066265 0.034676 0.270157
H7    H     H_    0.949895 0.976022 0.052233 0.276140
H8    H     H_    0.892456 0.930705 0.943711 0.256375
C40   C     C_2   0.663038 0.722104 0.615246 0.384937
H9    H     H_    0.616547 0.717153 0.613501 0.077055
O14   O     O_2   0.686744 0.817419 0.644199 -0.510564
O15   O     O_3   0.779631 0.687275 0.698890 -0.535817
C41   C     C_3   0.773581 0.627248 0.831696 0.037568
H10   H     H_    0.817376 0.618081 0.873864 0.165176
H11   H     H_    0.753098 0.533246 0.835867 0.105115
C42   C     C_3   0.738770 0.705410 0.921879 -0.301361
H12   H     H_    0.756651 0.801075 0.911662 0.251844
H13   H     H_    0.693534 0.705414 0.888219 0.217266
C43   C     C_3   0.739359 0.657450 0.071555 -0.922358
H14   H     H_    0.723755 0.560352 0.084534 0.251011
H15   H     H_    0.710797 0.711970 0.131782 0.283664
H16   H     H_    0.783628 0.666667 0.110668 0.259122
O16   O     O_3   0.529349 0.896860 0.271990 -0.590949
C44   C     C_3   0.493946 0.944267 0.164558 0.057055
H17   H     H_    0.511874 0.915768 0.068009 0.194263
H18   H     H_    0.494788 0.045744 0.153751 0.103124
C45   C     C_3   0.431165 0.895641 0.178902 -0.372840
H19   H     H_    0.429946 0.795033 0.194926 0.213474
H20   H     H_    0.410319 0.931778 0.268208 0.229356
C46   C     C_3   0.396921 0.933621 0.052355 -0.875931
H21   H     H_    0.395835 0.034684 0.037210 0.263445
H22   H     H_    0.352064 0.895566 0.065118 0.284818
H23   H     H_    0.416648 0.898251 0.960966 0.246754
O17   O     O_3   0.437071 0.912217 0.557713 -0.608591
C47   C     C_3   0.404633 0.823056 0.641571 0.097339
H24   H     H_    0.430008 0.793144 0.732477 0.172134
H25   H     H_    0.391520 0.743978 0.584055 0.118318
C48   C     C_3   0.349670 0.877334 0.691898 -0.349529
H26   H     H_    0.360763 0.957252 0.750064 0.247919
H27   H     H_    0.323522 0.908272 0.603327 0.252496
C49   C     C_3   0.313588 0.782830 0.782227 -0.833126
H28   H     H_    0.299669 0.705271 0.723055 0.269755
H29   H     H_    0.274685 0.825602 0.819979 0.280683
H30   H     H_    0.338699 0.747471 0.871253 0.238866
C50   C     C_2   0.573998 0.134535 0.316621 0.344403
H31   H     H_    0.584635 0.096665 0.221710 0.110745
O18   O     O_2   0.603179 0.222698 0.347187 -0.569603
O19   O     O_3   0.497914 0.072548 0.645923 -0.566659
C51   C     C_3   0.546896 0.075879 0.729840 0.058346
H32   H     H_    0.535754 0.124728 0.820298 0.142753
H33   H     H_    0.585974 0.124057 0.680239 0.142077
C52   C     C_3   0.561530 0.945477 0.778349 -0.310868
H34   H     H_    0.523072 0.897026 0.828366 0.220941
H35   H     H_    0.573585 0.896462 0.688835 0.227187
C53   C     C_3   0.611229 0.943653 0.878332 -0.845372
H36   H     H_    0.651308 0.982514 0.826464 0.281318
H37   H     H_    0.618165 0.848076 0.918087 0.279067
H38   H     H_    0.601467 0.997564 0.965714 0.232131
C54   C     C_2   0.449729 0.302864 0.891993 0.354324
H39   H     H_    0.458347 0.219789 0.954382 0.025892
O20   O     O_2   0.418616 0.297110 0.794595 -0.453000
O21   O     O_3   0.543120 0.568883 0.891100 -0.547239
C55   C     C_3   0.595844 0.506646 0.906253 0.187745
H40   H     H_    0.615060 0.531855 0.003350 0.154647
H41   H     H_    0.626591 0.545794 0.826258 0.143944
C56   C     C_3   0.594378 0.365771 0.910092 -0.424849
H42   H     H_    0.570948 0.325393 0.003132 0.198666
H43   H     H_    0.573097 0.334248 0.818500 0.240998
C57   C     C_3   0.655185 0.318493 0.913204 -0.901609
H44   H     H_    0.679462 0.353207 0.819052 0.260217
H45   H     H_    0.653000 0.217181 0.918851 0.261713
H46   H     H_    0.678359 0.347958 0.003766 0.261579
O22   O     O_3   0.417671 0.372478 0.160232 -0.592111
C58   C     C_3   0.364987 0.373520 0.087682 0.020623
H47   H     H_    0.354555 0.279233 0.060043 0.187585
H48   H     H_    0.365657 0.436507 0.992673 0.148907
C59   C     C_3   0.316375 0.413827 0.176366 -0.345074
H49   H     H_    0.316252 0.362036 0.277288 0.226337
H50   H     H_    0.323519 0.512349 0.189191 0.225983
C60   C     C_3   0.257814 0.393771 0.111792 -0.826867
H51   H     H_    0.255724 0.449247 0.012515 0.259337
H52   H     H_    0.223463 0.421618 0.180564 0.257302
H53   H     H_    0.249916 0.295690 0.096003 0.270763
O23   O     O_3   0.034181 0.172319 0.547899 -0.504464
C61   C     C_3   0.041728 0.186745 0.403701 0.197611
H54   H     H_    0.066787 0.109189 0.373331 0.190080
H55   H     H_    0.067558 0.271311 0.369087 0.119671
C62   C     C_3   0.984455 0.185673 0.327576 -0.349623
H56   H     H_    0.960854 0.096357 0.350502 0.280613
H57   H     H_    0.957099 0.259057 0.359128 0.219720
C63   C     C_3   0.994994 0.208492 0.174344 -0.983712
H58   H     H_    0.019989 0.295938 0.149915 0.255788
H59   H     H_    0.953079 0.215355 0.122612 0.281725
H60   H     H_    0.018953 0.132725 0.135743 0.273101
C64   C     C_2   0.503156 0.625404 0.110526 0.706508
H61   H     H_    0.469872 0.668403 0.048789 -0.049793
O24   O     O_2   0.546152 0.685956 0.136268 -0.522770
O25   O     O_3   0.071101 0.809268 0.709253 -0.536601
C65   C     C_3   0.087138 0.783863 0.847367 0.152953
H62   H     H_    0.131355 0.823447 0.858779 0.202008
H63   H     H_    0.088913 0.684450 0.880249 0.113521
C66   C     C_3   0.046825 0.844027 0.943019 -0.431503
H64   H     H_    0.050570 0.944593 0.919925 0.245956
H65   H     H_    0.001738 0.811771 0.926807 0.213653
C67   C     C_3   0.062006 0.813756 0.092261 -0.860737
H66   H     H_    0.057147 0.713743 0.119331 0.254165
H67   H     H_    0.032728 0.860517 0.159014 0.260461
H68   H     H_    0.106984 0.845167 0.111041 0.278379
C68   C     C_2   0.957460 0.849225 0.633615 0.477890
H69   H     H_    0.916233 0.862847 0.681594 0.098786
O26   O     O_2   0.984208 0.936521 0.575751 -0.470398
C69   C     C_2   0.193168 0.622981 0.352392 0.469975
H70   H     H_    0.147423 0.626454 0.372273 0.061982
O27   O     O_2   0.211135 0.662872 0.239678 -0.544447
C70   C     C_2   0.320278 0.688604 0.367867 0.421563
H71   H     H_    0.363287 0.686372 0.326267 0.031723
O28   O     O_2   0.296154 0.785342 0.357985 -0.525857
O29   O     O_3   0.330954 0.292131 0.641197 -0.512779
C71   C     C_3   0.343394 0.218715 0.533431 0.099039
H72   H     H_    0.372227 0.146892 0.574410 0.207120
H73   H     H_    0.368221 0.270556 0.449155 0.133495
C72   C     C_3   0.289029 0.155290 0.479835 -0.413571
H74   H     H_    0.268244 0.094505 0.563659 0.266546
H75   H     H_    0.257595 0.223635 0.443570 0.233884
C73   C     C_3   0.303691 0.080722 0.360959 -0.817086
H76   H     H_    0.320940 0.141177 0.272785 0.249061
H77   H     H_    0.264328 0.031055 0.328749 0.299143
H78   H     H_    0.336451 0.013860 0.391522 0.276069
C74   C     C_2   0.221054 0.327186 0.762907 0.477202
H79   H     H_    0.180124 0.347063 0.808241 0.060015
O30   O     O_2   0.247862 0.243894 0.817629 -0.515922
O31   O     O_3   0.798949 0.394285 0.353984 -0.564045
C75   C     C_3   0.844042 0.461998 0.280369 0.100759
H80   H     H_    0.885194 0.446693 0.333777 0.155587
H81   H     H_    0.837610 0.562177 0.268847 0.128805
C76   C     C_3   0.849632 0.415403 0.138728 -0.339182
H82   H     H_    0.856665 0.315710 0.149406 0.236707
H83   H     H_    0.809143 0.430135 0.082140 0.216353
C77   C     C_3   0.899767 0.480444 0.057072 -0.961932
H84   H     H_    0.893745 0.580406 0.044762 0.256716
H85   H     H_    0.902132 0.445678 0.954368 0.255053
H86   H     H_    0.940971 0.463259 0.109737 0.267296

loop_
_geom_bond_atom_site_label_1
_geom_bond_atom_site_label_2
_ccdc_geom_bond_type
C61   C62   S    
C76   H83   S    
C39   H7    S    
O31   C75   S    
C29   N3    D    
C59   C60   S    
C54   H39   S    
C33   O2    S    
C19   C20   A    
C54   O20   D    
C75   H81   S    
C12   O6    A    
C23   O9    A    
C7    C8    A    
C68   O26   D    
C43   H14   S    
O21   C55   S    
C13   C70   S    
C47   H24   S    
C42   H13   S    
C15   O29   S    
C38   C39   S    
C18   C24   A    
C32   C36   A    
O25   C65   S    
C67   H67   S    
Cu1   Cu2   S    
C34   C35   A    
C63   H59   S    
C5    C6    A    
Cu1   O8    S    
C37   H3    S    
C76   C77   S    
Cu2   O9    S    
O19   C51   S    
C26   O17   S    
C61   H54   S    
C48   C49   S    
C61   H55   S    
O13   C37   S    
C38   H5    S    
C18   C19   A    
C8    C36   A    
C23   C26   S    
Cu1   N3    S    
C77   H85   S    
C52   H34   S    
C55   C56   S    
C50   H31   S    
C52   H35   S    
C53   H36   S    
C65   H62   S    
C11   C17   A    
C7    O25   S    
C35   C36   A    
C28   O19   S    
C58   H47   S    
C71   H73   S    
C42   C43   S    
C48   H27   S    
C1    C28   S    
C51   H32   S    
O15   C41   S    
C64   O24   D    
C32   O12   S    
Cu2   O5    S    
C72   C73   S    
C53   H38   S    
Cu1   O10   S    
C2    C34   A    
C43   H15   S    
C76   H82   S    
C39   H8    S    
C9    O3    S    
C65   H63   S    
C70   H71   S    
C21   C22   A    
C21   C40   S    
C10   N2    A    
C25   O16   S    
C51   H33   S    
C3    O23   S    
C72   H75   S    
O16   C44   S    
C62   H57   S    
C45   H20   S    
C33   N1    A    
C55   H41   S    
C42   H12   S    
C75   H80   S    
C66   C67   S    
C59   H49   S    
C67   H68   S    
C57   H46   S    
C63   H60   S    
C68   H69   S    
C41   H11   S    
C16   C17   A    
C37   C38   S    
C25   C26   D    
C45   H19   S    
C29   C54   S    
C16   C74   S    
C40   H9    S    
C38   H4    S    
C40   O14   D    
C66   H65   S    
C77   H86   S    
C73   H76   S    
C57   H45   S    
C29   C30   S    
C8    C68   S    
C62   C63   S    
Cu1   O6    S    
C1    O1    A    
C23   O8    A    
C49   H28   S    
Cu2   O11   S    
C46   H23   S    
C71   C72   S    
C48   H26   S    
C20   C21   A    
C33   C34   A    
C50   O18   D    
C31   O10   A    
C52   C53   S    
C55   H40   S    
C6    C7    A    
C70   O28   D    
C19   H1    S    
C56   C57   S    
Cu2   O7    S    
O29   C71   S    
C49   H29   S    
C46   H22   S    
O22   C58   S    
C44   H17   S    
C47   C48   S    
C44   H18   S    
C51   C52   S    
C22   C24   A    
C30   N4    D    
C73   H78   S    
C3    C4    A    
C10   O4    S    
C72   H74   S    
C56   H43   S    
C62   H56   S    
C45   C46   S    
C59   H50   S    
C18   O31   S    
O23   C61   S    
C12   C14   S    
C4    C5    A    
C60   H53   S    
C6    C10   A    
C41   C42   S    
C12   O7    A    
C1    O5    A    
C57   H44   S    
C60   H52   S    
C65   C66   S    
C25   C27   S    
C44   C45   S    
C9    N2    A    
C66   H64   S    
Cu1   O1    S    
C73   H77   S    
C2    C3    A    
C64   H61   S    
C75   C76   S    
C74   H79   S    
C2    O13   S    
C63   H58   S    
C11   C13   A    
N3    O21   S    
C37   H2    S    
C47   H25   S    
C43   H16   S    
C58   C59   S    
C15   C16   A    
C5    C35   A    
C27   C50   S    
O17   C47   S    
C24   N1    S    
C32   N1    A    
C31   O11   A    
C77   H84   S    
C17   N2    S    
C74   O30   D    
C67   H66   S    
C60   H51   S    
C39   H6    S    
Cu2   N4    S    
C49   H30   S    
C41   H10   S    
C46   H21   S    
C11   C69   S    
C58   H48   S    
C71   H72   S    
C69   H70   S    
C27   C28   D    
C14   C15   A    
C69   O27   D    
C4    C9    A    
C13   C14   A    
N4    C64   S    
C22   O15   S    
C30   O22   S    
C56   H42   S    
C53   H37   S    
C20   C31   S    
