data_mof_unit_36970.cif
_audit_creation_date              2012-12-11T15:53:56-0500
_audit_creation_method            fapswitch 2.2
_symmetry_space_group_name_H-M    P1
_symmetry_Int_Tables_number       1
_space_group_crystal_system       triclinic
_cell_length_a                    10.630006
_cell_length_b                    10.725546
_cell_length_c                    17.054912
_cell_angle_alpha                 80.616425
_cell_angle_beta                  99.469848
_cell_angle_gamma                 118.307452
_cell_volume                      1680.50391875

loop_
_atom_site_label
_atom_site_type_symbol
_atom_type_description
_atom_site_fract_x
_atom_site_fract_y
_atom_site_fract_z
_atom_type_partial_charge
C1    C     C_R   0.361207 0.228789 0.627488 0.550523
C2    C     C_R   0.391549 0.820977 0.676450 -0.149718
C3    C     C_R   0.378798 0.841914 0.752478 -0.157166
C4    C     C_3   0.070042 0.485385 0.774643 -0.203326
C5    C     C_3   0.083090 0.464285 0.691295 0.098232
C6    C     C_R   0.320565 0.683408 0.651070 -0.015217
C7    C     C_1   0.821392 0.656251 0.706249 -0.039338
C8    C     C_1   0.848814 0.684510 0.773932 -0.028793
C9    C     C_1   0.345502 0.187368 0.709820 -0.007464
C10   C     C_1   0.320898 0.159771 0.778170 -0.002169
C11   C     C_1   0.319905 0.680714 0.279948 0.016255
C12   C     C_R   0.368625 0.654819 0.584820 0.545963
C13   C     C_1   0.298617 0.703900 0.209436 -0.002371
C14   C     C_R   0.805886 0.657286 0.150381 0.029434
C15   C     C_R   0.787092 0.532518 0.197945 0.098951
C16   C     C_R   0.754884 0.511816 0.275417 -0.029087
C17   C     C_R   0.746837 0.736220 0.257622 -0.155035
C18   C     C_R   0.778796 0.756700 0.178822 -0.153619
C19   C     C_3   0.675281 0.385945 0.181061 0.429382
C20   C     C_3   0.641114 0.363907 0.266027 -0.195698
C21   C     C_R   0.739012 0.614313 0.307067 -0.000566
C22   C     C_R   0.277510 0.082119 0.175923 0.005763
C23   C     C_R   0.776538 0.618566 0.626998 0.549546
C24   C     C_R   0.216909 0.161898 0.194748 0.077612
C25   C     C_R   0.230983 0.191770 0.270849 0.029869
C26   C     C_R   0.382691 0.077258 0.313755 -0.188331
C27   C     C_R   0.366464 0.044672 0.235095 -0.158434
C28   C     C_3   0.066353 0.141192 0.178499 0.167639
C29   C     C_3   0.079144 0.168744 0.264885 0.156853
C30   C     C_R   0.311337 0.148933 0.331944 -0.035652
C31   C     C_R   0.890716 0.701835 0.856057 0.549234
C32   C     C_R   0.283633 0.748417 0.882881 0.546628
C33   C     C_R   0.284565 0.114624 0.857704 0.577020
C34   C     C_R   0.347000 0.218001 0.403751 0.534900
C35   C     C_R   0.882069 0.689601 0.081343 0.550241
C36   C     C_R   0.285406 0.737087 0.125666 0.521085
C37   C     C_R   0.249040 0.043149 0.095543 0.542544
C38   C     C_R   0.363036 0.656254 0.361500 0.544629
C39   C     C_R   0.706436 0.586964 0.389130 0.562852
C40   C     C_R   0.293852 0.725960 0.803590 -0.000101
C41   C     C_R   0.225601 0.589413 0.778391 0.011016
C42   C     C_R   0.239022 0.568101 0.703180 0.066113
Cr1   Cr    Cr6+3 0.608440 0.389080 0.519680 1.042260
Cr2   Cr    Cr6+3 0.288640 0.400090 0.490760 1.123043
Cr3   Cr    Cr6+3 0.602940 0.710800 0.489510 1.044887
Cr4   Cr    Cr6+3 0.052530 0.947560 0.964210 1.080525
Cr5   Cr    Cr6+3 0.059970 0.626800 0.992920 1.145468
Cr6   Cr    Cr6+3 0.373320 0.938440 0.995370 1.096044
H1    H     H_    0.460864 0.911396 0.638636 0.155133
H2    H     H_    0.534812 0.355660 0.270577 0.145546
H3    H     H_    0.453413 0.051427 0.358922 0.147823
H4    H     H_    0.989906 0.031264 0.166043 0.068864
H5    H     H_    0.435170 0.948327 0.771386 0.140119
H6    H     H_    0.728447 0.814874 0.279531 0.160883
H7    H     H_    0.783435 0.849317 0.140618 0.160243
O1    O     O_R   0.754020 0.497590 0.609930 -0.506784
O2    O     O_R   0.295080 0.533620 0.397890 -0.446914
O3    O     O_R   0.485280 0.746620 0.388440 -0.540653
O4    O     O_R   0.720550 0.696220 0.420010 -0.503895
O5    O     O_3   0.500010 0.499990 0.499980 -0.290938
O6    O     O_R   0.163320 0.092900 0.874450 -0.458484
O7    O     O_R   0.934650 0.822080 0.882840 -0.483548
O8    O     O_R   0.915520 0.604140 0.893670 -0.512550
O9    O     O_R   0.191760 0.638110 0.923230 -0.468304
O10   O     O_R   0.406180 0.826930 0.920660 -0.480950
O11   O     O_R   0.358620 0.062870 0.901950 -0.514345
O12   O     O_R   0.481420 0.271390 0.600630 -0.507857
O13   O     O_R   0.163910 0.085460 0.050210 -0.448787
O14   O     O_R   0.935200 0.815170 0.045770 -0.538800
O15   O     O_R   0.916120 0.596690 0.069430 -0.445834
O16   O     O_R   0.192310 0.631200 0.086170 -0.399278
O17   O     O_R   0.406770 0.819480 0.096420 -0.491177
O18   O     O_R   0.359170 0.055960 0.064880 -0.439941
O19   O     O_3   0.161940 0.837600 0.984160 -0.367884
O20   O     O_R   0.263810 0.254550 0.589590 -0.448833
O21   O     O_R   0.300820 0.531200 0.560890 -0.468207
O22   O     O_R   0.491480 0.744020 0.564270 -0.514603
O23   O     O_R   0.726290 0.693800 0.583010 -0.476434
O24   O     O_R   0.747830 0.500190 0.434090 -0.495698
O25   O     O_R   0.475680 0.273800 0.437630 -0.526149
O26   O     O_R   0.257620 0.257160 0.413750 -0.472624
Cl1   Cl    Cl    0.533762 0.384607 0.107333 -0.508521
H8    H     H_    0.668568 0.285067 0.305382 0.168085
H9    H     H_    0.422732 0.991150 0.220695 0.156967
Cl2   Cl    Cl    0.053684 0.273569 0.103196 -0.397292
Cl3   Cl    Cl    0.067933 0.324839 0.278682 -0.470257
H10   H     H_    0.010846 0.072678 0.302949 0.091666
H11   H     H_    0.000607 0.535910 0.775260 0.117099
H12   H     H_    0.048912 0.391115 0.819008 0.207369
Cl4   Cl    Cl    0.054960 0.288837 0.683879 -0.561130
H13   H     H_    0.022042 0.502987 0.643172 0.143458
Cl5   Cl    Cl    0.747545 0.275829 0.161246 -0.449009

loop_
_geom_bond_atom_site_label_1
_geom_bond_atom_site_label_2
_ccdc_geom_bond_type
C5    C42   S    
Cr3   O5    S    
C16   C21   A    
C11   C38   S    
C3    H5    S    
C41   C42   A    
C14   C18   A    
C19   C20   S    
C7    C8    T    
C15   C19   S    
C28   C29   S    
C26   C27   A    
Cr4   O7    S    
C27   H9    S    
Cr5   O8    S    
C4    C41   S    
Cr1   O24   S    
C15   C16   A    
C37   O13   A    
C11   C13   T    
Cr2   O21   S    
Cr4   O14   S    
C20   H2    S    
C19   Cl5   S    
C34   O25   A    
C38   O3    A    
C35   O15   A    
Cr3   O23   S    
C34   O26   A    
Cr6   O10   S    
C19   Cl1   S    
C9    C10   T    
C5    Cl4   S    
C36   O16   A    
C31   O7    A    
C2    C6    A    
Cr6   O17   S    
C33   O11   A    
C25   C29   S    
Cr3   O3    S    
C30   C34   S    
Cr4   O6    S    
C1    O20   A    
Cr6   O19   S    
C23   O1    A    
C1    C9    S    
C24   C25   A    
C32   O9    A    
C13   C36   S    
Cr2   O26   S    
Cr5   O9    S    
Cr1   O25   S    
C22   C37   S    
C14   C35   S    
C17   C21   A    
C39   O24   A    
Cr2   O20   S    
Cr5   O15   S    
Cr4   O13   S    
C2    H1    S    
C31   O8    A    
C38   O2    A    
C21   C39   S    
Cr2   O2    S    
C16   C20   S    
C39   O4    A    
C12   O22   A    
C17   C18   A    
Cr5   O16   S    
C29   Cl3   S    
C5    H13   S    
Cr1   O5    S    
C18   H7    S    
C33   O6    A    
C40   C41   A    
C3    C40   A    
C26   C30   A    
C22   C27   A    
C12   O21   A    
C22   C24   A    
Cr4   O19   S    
C4    H12   S    
C25   C30   A    
C37   O18   A    
Cr3   O4    S    
C8    C31   S    
Cr6   O18   S    
C24   C28   S    
Cr5   O19   S    
C4    C5    S    
C4    H11   S    
C2    C3    A    
C26   H3    S    
C6    C12   S    
C28   H4    S    
Cr2   O5    S    
C7    C23   S    
C1    O12   A    
C10   C33   S    
C32   C40   S    
C23   O23   A    
C29   H10   S    
Cr1   O1    S    
C35   O14   A    
Cr1   O12   S    
C6    C42   A    
C20   H8    S    
C28   Cl2   S    
C14   C15   A    
Cr3   O22   S    
Cr6   O11   S    
C17   H6    S    
C36   O17   A    
C32   O10   A    
