data_mof_unit_52385.cif
_audit_creation_date              2012-12-10T21:26:00-0500
_audit_creation_method            fapswitch 2.2
_symmetry_space_group_name_H-M    P1
_symmetry_Int_Tables_number       1
_space_group_crystal_system       triclinic
_cell_length_a                    8.588022
_cell_length_b                    16.147656
_cell_length_c                    16.839913
_cell_angle_alpha                 88.063382
_cell_angle_beta                  90.793279
_cell_angle_gamma                 101.10454
_cell_volume                      2290.20310129

loop_
_atom_site_label
_atom_site_type_symbol
_atom_type_description
_atom_site_fract_x
_atom_site_fract_y
_atom_site_fract_z
_atom_type_partial_charge
C1    C     C_R   0.503040 0.489423 0.652956 0.900400
C2    C     C_R   0.382799 0.147539 0.433203 -0.346303
C3    C     C_R   0.606946 0.765016 0.566063 -0.019539
C4    C     C_R   0.382021 0.233901 0.438536 -0.019938
C5    C     C_R   0.800888 0.521931 0.500992 0.972242
C6    C     C_R   0.199111 0.478066 0.499007 0.978075
C7    C     C_2   0.966870 0.533841 0.501410 -0.385037
C8    C     C_2   0.033115 0.466147 0.498588 -0.390353
C9    C     C_R   0.528531 0.485488 0.738267 -0.088740
C10   C     C_R   0.529786 0.520087 0.262215 -0.083543
C11   C     C_R   0.567975 0.560882 0.778854 -0.231001
C12   C     C_R   0.504326 0.511232 0.347160 0.898235
C13   C     C_R   0.581440 0.455628 0.222908 -0.230898
C14   C     C_R   0.598854 0.558955 0.859289 -0.238333
C15   C     C_R   0.611609 0.464350 0.142574 -0.240455
C16   C     C_R   0.589670 0.481058 0.901019 0.240638
C17   C     C_R   0.589362 0.537898 0.100085 0.244798
C18   C     C_R   0.559396 0.405410 0.860062 0.482401
C19   C     C_R   0.547062 0.605133 0.139839 0.485724
C20   C     C_R   0.525004 0.407882 0.778613 -0.335588
C21   C     C_R   0.513104 0.594685 0.221126 -0.341855
C22   C     C_3   0.656416 0.281602 0.874065 0.070916
C23   C     C_R   0.429170 0.754445 0.456811 -0.024452
C24   C     C_3   0.566163 0.196769 0.845009 -0.327072
C25   C     C_3   0.679640 0.142096 0.816693 -0.966562
C26   C     C_3   0.594981 0.752179 0.130333 0.073027
C27   C     C_3   0.468406 0.801197 0.154888 -0.331529
C28   C     C_3   0.542613 0.882993 0.194877 -0.966046
C29   C     C_3   0.710886 0.126858 0.584794 -0.913336
C30   C     C_3   0.313026 0.875331 0.401301 -0.914259
C31   C     C_R   0.581828 0.246683 0.537840 -0.026031
C32   C     C_R   0.422913 0.841114 0.458798 0.116487
C33   C     C_R   0.588257 0.160126 0.534745 0.117264
C34   C     C_R   0.514970 0.891422 0.517201 0.307779
C35   C     C_R   0.484341 0.108729 0.481553 0.309319
C36   C     C_R   0.605601 0.851366 0.570789 -0.345900
H1    H     H_    0.034108 0.598123 0.503986 0.181905
H2    H     H_    0.359216 0.714797 0.413592 0.137378
H3    H     H_    0.674770 0.887220 0.616785 0.160473
H4    H     H_    0.304719 0.110759 0.390850 0.160949
H5    H     H_    0.676527 0.735015 0.608139 0.137235
H6    H     H_    0.303956 0.263057 0.400517 0.143224
H7    H     H_    0.734185 0.269505 0.924714 0.167612
H8    H     H_    0.736936 0.314116 0.826227 0.120930
H9    H     H_    0.492924 0.162583 0.894180 0.233944
H10   H     H_    0.485523 0.207525 0.795210 0.217321
H11   H     H_    0.753352 0.174852 0.767116 0.265459
H12   H     H_    0.965876 0.401863 0.496014 0.180035
H13   H     H_    0.610610 0.081518 0.795270 0.267313
H14   H     H_    0.758419 0.128210 0.866223 0.267050
H15   H     H_    0.670835 0.790560 0.084333 0.162385
H16   H     H_    0.675667 0.744398 0.181465 0.124267
H17   H     H_    0.400904 0.816457 0.101333 0.231440
H18   H     H_    0.383548 0.761929 0.196615 0.216097
H19   H     H_    0.604633 0.868931 0.250612 0.270229
H20   H     H_    0.448191 0.918038 0.209755 0.265873
H21   H     H_    0.628396 0.923516 0.154386 0.265956
H22   H     H_    0.784177 0.094746 0.546832 0.257372
H23   H     H_    0.598886 0.398340 0.254190 0.178779
H24   H     H_    0.792291 0.178475 0.614845 0.224149
H25   H     H_    0.651979 0.082159 0.631650 0.257308
H26   H     H_    0.229079 0.905677 0.434235 0.256575
H27   H     H_    0.382635 0.921629 0.358861 0.256658
H28   H     H_    0.241585 0.824593 0.365806 0.226430
H29   H     H_    0.575020 0.621779 0.748624 0.174770
H30   H     H_    0.648935 0.412677 0.113553 0.183296
H31   H     H_    0.626372 0.618583 0.888882 0.184269
H32   H     H_    0.494829 0.349486 0.747249 0.170628
H33   H     H_    0.471795 0.643906 0.252033 0.164794
H34   H     H_    0.660310 0.287105 0.577411 0.138008
N1    N     N_2   0.598991 0.476027 0.984648 -0.160306
N2    N     N_2   0.597386 0.544288 0.016566 -0.159254
N3    N     N_R   0.519180 0.718290 0.509780 -0.106751
N4    N     N_R   0.480820 0.281710 0.490220 -0.107908
N5    N     N_2   0.512991 0.978983 0.529287 -0.171881
N6    N     N_2   0.485963 0.021345 0.468943 -0.172514
O1    O     O_R   0.493140 0.422050 0.612640 -0.628333
O2    O     O_3   0.521101 0.675560 0.095626 -0.641756
O3    O     O_R   0.506860 0.577950 0.387360 -0.630355
O4    O     O_R   0.505450 0.562230 0.618920 -0.626409
O5    O     O_R   0.494550 0.437770 0.381080 -0.625172
O6    O     O_R   0.723530 0.446300 0.497600 -0.621227
O7    O     O_R   0.276470 0.553700 0.502400 -0.616395
O8    O     O_R   0.735850 0.586490 0.503880 -0.624165
O9    O     O_R   0.264150 0.413510 0.496120 -0.624338
O10   O     O_3   0.547263 0.329237 0.902275 -0.641348
Zn1   Zn    Zn3+2 0.491780 0.406400 0.495810 0.938075
Zn2   Zn    Zn3+2 0.508220 0.593600 0.504190 0.939389

loop_
_geom_bond_atom_site_label_1
_geom_bond_atom_site_label_2
_ccdc_geom_bond_type
C2    C35   A    
C30   H28   S    
C1    O1    A    
C28   H20   S    
C27   H18   S    
C7    C8    D    
C28   H21   S    
C26   C27   S    
C18   O10   S    
C6    O9    A    
C24   H9    S    
C19   C21   A    
C11   C14   A    
O6    Zn1   S    
C12   O3    A    
C29   C33   S    
C18   C20   A    
C25   H14   S    
C17   C19   A    
C31   H34   S    
C22   H8    S    
C14   H31   S    
C31   C33   A    
N4    Zn1   S    
C25   H11   S    
C4    N4    A    
C34   N5    S    
O7    Zn2   S    
C30   H27   S    
C16   N1    S    
C23   N3    A    
O3    Zn2   S    
C28   H19   S    
O9    Zn1   S    
C10   C21   A    
C29   H25   S    
C35   N6    S    
C1    C9    S    
C24   C25   S    
C5    C7    S    
C5    O8    A    
C31   N4    A    
C6    C8    S    
C15   H30   S    
C21   H33   S    
C32   C34   A    
C19   O2    S    
C2    C4    A    
N5    N6    D    
C8    H12   S    
N3    Zn2   S    
C26   H16   S    
C9    C20   A    
C22   H7    S    
C29   H24   S    
C7    H1    S    
C26   O2    S    
C9    C11   A    
O5    Zn1   S    
C10   C12   S    
C30   H26   S    
C14   C16   A    
C15   C17   A    
C3    H5    S    
C6    O7    A    
C20   H32   S    
C36   H3    S    
O8    Zn2   S    
C10   C13   A    
C27   H17   S    
C13   H23   S    
C23   H2    S    
C24   H10   S    
C23   C32   A    
C13   C15   A    
N1    N2    D    
O4    Zn2   S    
C26   H15   S    
C30   C32   S    
C5    O6    A    
C4    H6    S    
C3    C36   A    
C33   C35   A    
C34   C36   A    
C12   O5    A    
C22   C24   S    
C22   O10   S    
C3    N3    A    
C25   H13   S    
C2    H4    S    
C29   H22   S    
O1    Zn1   S    
C17   N2    S    
C16   C18   A    
C27   C28   S    
C1    O4    A    
C11   H29   S    
