data_mof_unit_45597.cif
_audit_creation_date              2013-03-05T15:49:56-0500
_audit_creation_method            fapswitch 2.2
_symmetry_space_group_name_H-M    P1
_symmetry_Int_Tables_number       1
_space_group_crystal_system       triclinic
_cell_length_a                    27.783324
_cell_length_b                    13.05548
_cell_length_c                    11.649558
_cell_angle_alpha                 101.436602
_cell_angle_beta                  93.497647
_cell_angle_gamma                 91.166011
_cell_volume                      4131.69260918

loop_
_atom_site_label
_atom_site_type_symbol
_atom_site_description
_atom_site_fract_x
_atom_site_fract_y
_atom_site_fract_z
_atom_type_partial_charge
O1    O     O_R   0.502540 0.354460 0.582000 -0.570915
O2    O     O_R   0.497460 0.645540 0.418000 -0.576042
O3    O     O_R   0.496500 0.341410 0.386200 -0.568877
O4    O     O_R   0.503500 0.658590 0.613800 -0.583017
C1    C     C_R   0.500563 0.298680 0.476734 0.826557
C2    C     C_R   0.500950 0.701184 0.523091 0.800247
O5    O     O_R   0.433290 0.506540 0.597890 -0.599217
O6    O     O_R   0.566710 0.493460 0.402110 -0.551279
O7    O     O_R   0.427240 0.493490 0.402090 -0.553284
O8    O     O_R   0.572760 0.506510 0.597910 -0.595189
C3    C     C_R   0.407387 0.500681 0.500833 0.850648
C4    C     C_R   0.592638 0.497630 0.499025 0.831479
Cu1   Cu    Cu3+1 0.503580 0.507730 0.615930 0.951689
Cu2   Cu    Cu3+1 0.496420 0.492270 0.384070 0.989080
C5    C     C_R   0.180199 0.445841 0.559363 0.537463
C6    C     C_R   0.822522 0.597483 0.518396 0.535815
O9    O     O_2   0.205153 0.361112 0.573871 -0.551305
O10   O     O_2   0.797260 0.684635 0.517602 -0.556900
N1    N     N_R   0.204080 0.532861 0.540809 -0.456420
N2    N     N_R   0.798710 0.504034 0.512616 -0.457865
C7    C     C_R   0.180269 0.621462 0.530035 0.528026
C8    C     C_R   0.822895 0.413922 0.512620 0.527289
C9    C     C_R   0.287571 0.586928 0.613004 -0.110719
C10   C     C_R   0.723129 0.540197 0.608580 -0.125145
C11   C     C_R   0.337074 0.577294 0.602572 -0.288617
C12   C     C_R   0.672973 0.537311 0.604225 -0.301805
C13   C     C_R   0.321779 0.452174 0.418758 0.212570
C14   C     C_R   0.670067 0.454154 0.397409 0.221344
C15   C     C_R   0.272310 0.462546 0.429870 -0.130229
C16   C     C_R   0.720493 0.457087 0.403115 -0.134430
C17   C     C_R   0.255041 0.528823 0.527139 0.309603
C18   C     C_R   0.747013 0.500694 0.507979 0.323252
C19   C     C_R   0.104056 0.532826 0.548947 -0.057239
C20   C     C_R   0.899203 0.511719 0.524102 -0.057538
C21   C     C_R   0.129941 0.443534 0.561948 -0.012897
C22   C     C_R   0.873017 0.603302 0.525178 -0.011290
C23   C     C_R   0.105296 0.353292 0.576744 -0.157391
C24   C     C_R   0.897576 0.699151 0.533829 -0.161779
C25   C     C_R   0.129526 0.625112 0.537758 -0.066775
C26   C     C_R   0.873973 0.414606 0.515025 -0.067196
C27   C     C_R   0.354791 0.509706 0.505942 -0.093551
C28   C     C_R   0.645714 0.496140 0.498803 -0.095920
H1    H     H_    0.246977 0.417015 0.364028 0.169206
H2    H     H_    0.739287 0.425120 0.325898 0.162342
H3    H     H_    0.124536 0.284947 0.590690 0.177127
H4    H     H_    0.878177 0.770694 0.536486 0.174202
C29   C     C_R   0.976786 0.426707 0.536414 0.026686
C30   C     C_R   0.026618 0.619239 0.536981 0.026133
C31   C     C_R   0.975292 0.615154 0.536419 0.054031
C32   C     C_R   0.027951 0.433745 0.551339 0.053522
C33   C     C_R   0.950574 0.517819 0.532302 0.067489
C34   C     C_R   0.052730 0.528843 0.546117 0.067675
C35   C     C_R   0.951076 0.330184 0.521317 -0.252896
C36   C     C_R   0.052787 0.711012 0.528511 -0.250374
C37   C     C_R   0.900775 0.322791 0.509856 0.002524
C38   C     C_R   0.103123 0.715596 0.530552 0.002008
O11   O     O_2   0.797327 0.325152 0.513203 -0.533251
O12   O     O_2   0.205635 0.703756 0.507996 -0.539566
C39   C     C_R   0.055359 0.348491 0.572183 -0.212052
C40   C     C_R   0.947562 0.705238 0.539594 -0.210897
H5    H     H_    0.655446 0.567649 0.683806 0.167506
H6    H     H_    0.361653 0.622741 0.670369 0.164792
H7    H     H_    0.743514 0.572900 0.690318 0.142857
H8    H     H_    0.274480 0.638128 0.688727 0.147039
H9    H     H_    0.969432 0.257294 0.512239 0.139440
H10   H     H_    0.035046 0.781665 0.518933 0.137600
H11   H     H_    0.039275 0.277076 0.587702 0.138438
H12   H     H_    0.963175 0.782784 0.548963 0.136275
C41   C     C_R   0.502203 0.815408 0.538665 -0.139110
C42   C     C_R   0.500802 0.184144 0.461403 -0.143548
C43   C     C_R   0.465569 0.015385 0.366252 -0.244894
C44   C     C_R   0.536193 0.984742 0.636614 -0.242086
C45   C     C_R   0.475787 0.119314 0.363311 -0.023800
C46   C     C_R   0.531079 0.877991 0.631507 -0.034513
C47   C     C_R   0.522500 0.139155 0.551943 -0.072859
C48   C     C_R   0.476744 0.862466 0.454813 -0.074462
C49   C     C_R   0.514345 0.031797 0.549698 0.093300
C50   C     C_R   0.484568 0.970018 0.457663 0.099017
H13   H     H_    0.444813 0.968896 0.291818 0.152860
H14   H     H_    0.559412 0.029722 0.707599 0.162980
N3    N     N_R   0.508960 0.519350 0.790140 -0.179509
N4    N     N_R   0.491040 0.480650 0.209860 -0.183632
C51   C     C_R   0.446291 0.423357 0.023122 -0.344802
C52   C     C_R   0.553739 0.577087 0.976820 -0.338356
C53   C     C_R   0.452813 0.426972 0.144529 0.137774
C54   C     C_R   0.547787 0.571227 0.854837 0.105503
C55   C     C_R   0.524296 0.531031 0.156434 0.066277
C56   C     C_R   0.475301 0.470538 0.843959 0.026079
C57   C     C_R   0.519691 0.527927 0.033827 0.044213
C58   C     C_R   0.479981 0.473684 0.966497 0.030978
H15   H     H_    0.445182 0.427667 0.791369 0.128154
H16   H     H_    0.554248 0.574368 0.209224 0.138543
H17   H     H_    0.574730 0.607147 0.811431 0.146717
H18   H     H_    0.427163 0.386394 0.186454 0.188000
H19   H     H_    0.415292 0.380792 0.973926 0.154390
H20   H     H_    0.584998 0.618752 0.025794 0.146521
Br1   Br    Br    0.341044 0.351540 0.288442 -0.608144
Br2   Br    Br    0.637650 0.386433 0.250540 -0.578610
C59   C     C_R   0.559600 0.836548 0.722308 0.142508
C60   C     C_R   0.605746 0.798879 0.699795 -0.134170
C61   C     C_R   0.636749 0.779584 0.791779 -0.159503
C62   C     C_R   0.621681 0.796616 0.906175 -0.143143
C63   C     C_R   0.575454 0.832470 0.928746 -0.146696
C64   C     C_R   0.544552 0.852928 0.837274 -0.129147
H21   H     H_    0.618331 0.788533 0.612160 0.129365
H22   H     H_    0.672725 0.752896 0.774747 0.144252
H23   H     H_    0.645741 0.781691 0.977206 0.134840
H24   H     H_    0.563808 0.845694 0.017337 0.132564
H25   H     H_    0.509527 0.884543 0.856445 0.127585
C65   C     C_R   0.464929 0.150890 0.249454 0.121644
C66   C     C_R   0.503197 0.170744 0.182518 -0.086481
C67   C     C_R   0.494190 0.180820 0.066019 -0.137468
C68   C     C_R   0.447005 0.171204 0.015401 -0.158163
C69   C     C_R   0.408666 0.152902 0.081767 -0.122373
C70   C     C_R   0.417564 0.141865 0.198084 -0.116546
H26   H     H_    0.540112 0.174585 0.219300 0.148704
H27   H     H_    0.523875 0.194283 0.014483 0.138222
H28   H     H_    0.440142 0.178342 0.924914 0.130024
H29   H     H_    0.372128 0.145478 0.042474 0.156342
H30   H     H_    0.387781 0.123501 0.247159 0.163535
C71   C     C_R   0.878468 0.216073 0.487301 0.174601
C72   C     C_R   0.857217 0.171354 0.375612 -0.083205
C73   C     C_R   0.837569 0.069313 0.353521 -0.125630
C74   C     C_R   0.839420 0.011109 0.442267 -0.102259
C75   C     C_R   0.860965 0.054825 0.553237 -0.134893
C76   C     C_R   0.880589 0.156894 0.575766 -0.134300
H31   H     H_    0.855918 0.215551 0.306040 0.120324
H32   H     H_    0.821057 0.035220 0.267485 0.133458
H33   H     H_    0.824314 0.932041 0.424960 0.149285
H34   H     H_    0.862573 0.009488 0.621697 0.135033
H35   H     H_    0.897409 0.189868 0.661888 0.126400
C77   C     C_R   0.126131 0.818844 0.530076 0.177054
C78   C     C_R   0.121458 0.862497 0.429227 -0.133224
C79   C     C_R   0.141771 0.961625 0.430330 -0.134804
C80   C     C_R   0.166539 0.017910 0.532143 -0.103701
C81   C     C_R   0.171001 0.975191 0.633092 -0.129297
C82   C     C_R   0.150709 0.876132 0.632414 -0.090059
H36   H     H_    0.102118 0.819769 0.350093 0.127079
H37   H     H_    0.138187 0.994954 0.352374 0.137075
H38   H     H_    0.182139 0.094725 0.532916 0.157674
H39   H     H_    0.190028 0.019002 0.711993 0.136580
H40   H     H_    0.154051 0.844036 0.711328 0.118367
C83   C     C_R   0.441505 0.798850 0.365842 0.122902
C84   C     C_R   0.453524 0.765768 0.249014 -0.124950
C85   C     C_R   0.421386 0.701114 0.167800 -0.135912
C86   C     C_R   0.377410 0.668090 0.202788 -0.086862
C87   C     C_R   0.365325 0.700294 0.318880 -0.100276
C88   C     C_R   0.397260 0.765328 0.400335 -0.148818
H41   H     H_    0.487918 0.789224 0.221556 0.116639
H42   H     H_    0.430769 0.675829 0.077998 0.135585
H43   H     H_    0.352776 0.617254 0.140039 0.139136
H44   H     H_    0.331350 0.674281 0.345963 0.153503
H45   H     H_    0.387839 0.788574 0.490453 0.124028
C89   C     C_R   0.557001 0.203067 0.642573 0.122286
C90   C     C_R   0.601655 0.236684 0.610296 -0.136668
C91   C     C_R   0.633264 0.300763 0.693433 -0.118692
C92   C     C_R   0.620407 0.332240 0.808950 -0.092718
C93   C     C_R   0.576040 0.299168 0.841725 -0.112902
C94   C     C_R   0.544302 0.234883 0.758966 -0.135228
H46   H     H_    0.611722 0.213910 0.520643 0.134643
H47   H     H_    0.667619 0.326471 0.668117 0.157081
H48   H     H_    0.644751 0.382531 0.873005 0.140980
H49   H     H_    0.566121 0.324308 0.931053 0.151339
H50   H     H_    0.509692 0.210999 0.784788 0.114381

loop_
_geom_bond_atom_site_label_1
_geom_bond_atom_site_label_2
_geom_bond_distance
_ccdc_geom_bond_type
C2    C41   1.465532 S    
C82   H40   1.083177 S    
C37   C71   1.481256 S    
C92   C93   1.397438 A    
C13   C15   1.395162 A    
C66   C67   1.397323 A    
C47   C89   1.491430 S    
N1    C17   1.435304 S    
C8    O11   1.348326 S    
C43   H13   1.081146 S    
C69   C70   1.398582 A    
C73   C74   1.398414 A    
C49   C50   1.416407 A    
C19   C34   1.424027 A    
C5    N1    1.364484 A    
C20   C33   1.424195 A    
C19   C25   1.417112 A    
C31   C40   1.414651 A    
O1    C1    1.293512 A    
C32   C39   1.413071 A    
C91   C92   1.397414 A    
N1    C7    1.367477 A    
C12   H5    1.082041 S    
C48   C50   1.410028 A    
C68   C69   1.397430 A    
C67   H27   1.080707 S    
C1    C42   1.470560 S    
C45   C65   1.480980 S    
C83   C84   1.406624 A    
Cu1   N3    2.001016 S    
O4    Cu1   1.974664 S    
C41   C48   1.415407 A    
C52   H20   1.083007 S    
C14   C28   1.417499 A    
C72   H31   1.083457 S    
C65   C66   1.405618 A    
C4    C28   1.475322 S    
C39   H11   1.077691 S    
C63   H24   1.082571 S    
C75   H34   1.082736 S    
C87   C88   1.398437 A    
C77   C78   1.404212 A    
C31   C33   1.423036 A    
C32   C34   1.421053 A    
C66   H26   1.083404 S    
C35   H9    1.078547 S    
C85   H42   1.082219 S    
C6    N2    1.363740 A    
C29   C35   1.410437 A    
C59   C64   1.404507 A    
C51   H19   1.083056 S    
C78   H36   1.083131 S    
Cu1   Cu2   2.663208 S    
C15   H1    1.083205 S    
C16   H2    1.083197 S    
O2    C2    1.290704 A    
C5    C21   1.398338 A    
C67   C68   1.397039 A    
C85   C86   1.397791 A    
C29   C32   1.420423 A    
C35   C37   1.395273 A    
C41   C46   1.413501 A    
C80   H38   1.082542 S    
C36   C38   1.397108 A    
C61   C62   1.398225 A    
C80   C81   1.398057 A    
C44   C46   1.387127 A    
C11   C27   1.406933 A    
C79   H37   1.082331 S    
C43   C45   1.388067 A    
C84   C85   1.398011 A    
C29   C33   1.414631 A    
C77   C82   1.404742 A    
C86   H43   1.082285 S    
C71   C76   1.404530 A    
C9    C17   1.397769 A    
C30   C36   1.412109 A    
O7    Cu2   1.946215 S    
C10   C18   1.396042 A    
C44   C49   1.399259 A    
C54   H17   1.077897 S    
C78   C79   1.398692 A    
O7    C3    1.293432 A    
C53   H18   1.075529 S    
C13   C27   1.411628 A    
O5    C3    1.290884 A    
C25   C38   1.416939 A    
C7    C25   1.419315 A    
C56   H15   1.082237 S    
O5    Cu1   1.950792 S    
O6    C4    1.292809 A    
C26   C37   1.417092 A    
C8    C26   1.417511 A    
C42   C45   1.414505 A    
C60   H21   1.083305 S    
C62   H23   1.082267 S    
C6    O10   1.350257 S    
C38   C77   1.481212 S    
C47   C49   1.410095 A    
C89   C90   1.404783 A    
C71   C72   1.404770 A    
C23   C39   1.384843 A    
O3    Cu2   1.974664 S    
O8    C4    1.293346 A    
C93   H49   1.081578 S    
C24   C40   1.386199 A    
O4    C2    1.287018 A    
C9    H8    1.082812 S    
C51   C53   1.406171 A    
N2    C8    1.366644 A    
C91   H47   1.082226 S    
C10   H7    1.083007 S    
C55   C57   1.418673 A    
C93   C94   1.398821 A    
C20   C26   1.418311 A    
O1    Cu1   1.960541 S    
C88   H45   1.083136 S    
Cu2   N4    2.001019 S    
C23   H3    1.083796 S    
C90   C91   1.397908 A    
C89   C94   1.405899 A    
C12   C28   1.406741 A    
C86   C87   1.397921 A    
N2    C18   1.433481 S    
C14   Br2   1.923515 S    
C61   H22   1.082033 S    
C5    O9    1.350510 S    
C51   C58   1.401857 A    
C13   Br1   1.911569 S    
O6    Cu2   1.950787 S    
C84   H41   1.083250 S    
C21   C23   1.395962 A    
C90   H46   1.083201 S    
C94   H50   1.082878 S    
N3    C54   1.363482 A    
C56   C58   1.417843 A    
C81   C82   1.398622 A    
O3    C1    1.287502 A    
O8    Cu1   1.946215 S    
C46   C59   1.477068 S    
C36   H10   1.076505 S    
N4    C53   1.363056 A    
C79   C80   1.398032 A    
C59   C60   1.403539 A    
C22   C24   1.395880 A    
C87   H44   1.082463 S    
C72   C73   1.398667 A    
C7    O12   1.348170 S    
C15   C17   1.399029 A    
C6    C22   1.399989 A    
C16   C18   1.398803 A    
C10   C12   1.390777 A    
C73   H32   1.082495 S    
C75   C76   1.398622 A    
C69   H29   1.082201 S    
C76   H35   1.083329 S    
C30   C31   1.425483 A    
C92   H48   1.082326 S    
C14   C16   1.397909 A    
C60   C61   1.398897 A    
C19   C21   1.410658 A    
C81   H39   1.082313 S    
C74   H33   1.082543 S    
C3    C27   1.472301 S    
C20   C22   1.410530 A    
C11   H6    1.083518 S    
C9    C11   1.394114 A    
C62   C63   1.398099 A    
O2    Cu2   1.960540 S    
C83   C88   1.404366 A    
C24   H4    1.083931 S    
N3    C56   1.370927 A    
C68   H28   1.082308 S    
C48   C83   1.491414 S    
C30   C34   1.416223 A    
C40   H12   1.075912 S    
C44   H14   1.082473 S    
C70   H30   1.083060 S    
C52   C57   1.403142 A    
C63   C64   1.398049 A    
C64   H25   1.083277 S    
C52   C54   1.407224 A    
C42   C47   1.415418 A    
C57   C58   1.405795 A    
C55   H16   1.082227 S    
C65   C70   1.404771 A    
C43   C50   1.399170 A    
N4    C55   1.371672 A    
C74   C75   1.397980 A    
