data_mof_unit_23610.cif
_audit_creation_date              2012-12-11T14:21:01-0500
_audit_creation_method            fapswitch 2.2
_symmetry_space_group_name_H-M    P1
_symmetry_Int_Tables_number       1
_space_group_crystal_system       triclinic
_cell_length_a                    11.618612
_cell_length_b                    11.640823
_cell_length_c                    19.547292
_cell_angle_alpha                 90.627039
_cell_angle_beta                  90.166333
_cell_angle_gamma                 59.7335
_cell_volume                      2283.25611004

loop_
_atom_site_label
_atom_site_type_symbol
_atom_type_description
_atom_site_fract_x
_atom_site_fract_y
_atom_site_fract_z
_atom_type_partial_charge
C1    C     C_R   0.640378 0.117057 0.599208 0.553932
C2    C     C_1   0.653043 0.149396 0.668579 0.007155
C3    C     C_R   0.682934 0.602188 0.203232 0.011142
C4    C     C_R   0.612297 0.746615 0.598608 0.539989
C5    C     C_R   0.612653 0.565893 0.249436 0.016671
C6    C     C_R   0.628633 0.578705 0.319538 0.020537
C7    C     C_R   0.710426 0.728213 0.292366 -0.170985
C8    C     C_R   0.727550 0.687296 0.225036 -0.141707
C9    C     C_R   0.511793 0.538021 0.230116 -0.115336
C10   C     C_R   0.434231 0.525432 0.280158 -0.139418
C11   C     C_R   0.474171 0.507751 0.348195 -0.107305
C12   C     C_1   0.641329 0.704365 0.667958 0.006683
C13   C     C_R   0.578682 0.525079 0.367293 -0.099070
C14   C     C_R   0.666141 0.669872 0.339963 0.006950
C15   C     C_R   0.119330 0.222772 0.199248 -0.004250
C16   C     C_R   0.241745 0.145184 0.598165 0.548354
C17   C     C_R   0.080636 0.329553 0.248908 0.025349
C18   C     C_R   0.085633 0.295352 0.318534 0.006237
C19   C     C_R   0.226458 0.062610 0.288214 -0.168780
C20   C     C_R   0.190351 0.090730 0.220495 -0.161933
C21   C     C_R   0.045227 0.465738 0.236221 0.294573
C22   C     C_R   0.004649 0.557394 0.290529 -0.058662
C23   C     C_1   0.126027 0.198975 0.859256 0.005721
C24   C     C_R   0.986903 0.524353 0.355766 -0.125769
C25   C     C_R   0.022885 0.394642 0.369429 -0.097217
C26   C     C_R   0.172726 0.164014 0.337631 0.010986
C27   C     C_R   0.679141 0.160829 0.188957 0.003823
C28   C     C_R   0.642536 0.111339 0.401054 0.540899
C29   C     C_R   0.785762 0.057875 0.227718 -0.005962
C30   C     C_R   0.784010 0.076753 0.298823 -0.061061
C31   C     C_R   0.543183 0.221199 0.288836 -0.028244
C32   C     C_R   0.557563 0.237209 0.219840 -0.160971
C33   C     C_R   0.892084 0.937374 0.199799 -0.021892
C34   C     C_1   0.171538 0.170727 0.727632 -0.028553
C35   C     C_R   0.002818 0.856049 0.240127 -0.136101
C36   C     C_R   0.010704 0.890404 0.307842 0.241132
C37   C     C_R   0.905187 0.007839 0.335511 0.038731
C38   C     C_R   0.657856 0.147599 0.330900 -0.015111
C39   C     C_R   0.080926 0.231505 0.928569 0.542378
C40   C     C_R   0.618941 0.737634 0.403998 0.532511
C41   C     C_R   0.683950 0.603594 0.929458 0.557246
C42   C     C_R   0.708508 0.206859 0.930148 0.549646
C43   C     C_R   0.071233 0.245252 0.128699 0.537052
C44   C     C_R   0.705902 0.555925 0.133179 0.552768
C45   C     C_1   0.149753 0.182577 0.798886 -0.029116
C46   C     C_R   0.707492 0.205583 0.124522 0.542640
C47   C     C_R   0.242395 0.140073 0.402479 0.548518
C48   C     C_1   0.670088 0.645780 0.860109 0.006171
C49   C     C_1   0.654747 0.683807 0.728397 -0.028916
C50   C     C_1   0.663196 0.666300 0.799684 -0.029487
C51   C     C_1   0.408973 0.294175 0.313563 0.204836
C52   C     C_1   0.878908 0.881245 0.135853 0.224028
C53   C     C_3   0.211043 0.810033 0.359920 -0.091105
C54   C     C_1   0.923085 0.058831 0.400224 0.232962
C55   C     C_3   0.185515 0.476758 0.158635 -0.081424
C56   C     C_1   0.195684 0.161296 0.667317 0.009540
C57   C     C_1   0.678714 0.191380 0.860786 0.007214
C58   C     C_1   0.658667 0.167045 0.728988 -0.029078
C59   C     C_1   0.665805 0.180885 0.800324 -0.028688
Cr1   Cr    Cr6+3 0.404720 0.198220 0.499960 1.047365
Cr2   Cr    Cr6+3 0.698290 0.897110 0.500380 1.047435
Cr3   Cr    Cr6+3 0.396970 0.904720 0.499610 1.019418
Cr4   Cr    Cr6+3 0.926180 0.151990 0.028120 1.043348
Cr5   Cr    Cr6+3 0.921330 0.451820 0.027470 1.076721
Cr6   Cr    Cr6+3 0.626260 0.446870 0.028710 1.007588
H1    H     H_    0.732761 0.804885 0.307303 0.141874
H2    H     H_    0.419489 0.488855 0.386837 0.147377
H3    H     H_    0.603544 0.518961 0.421110 0.125565
H4    H     H_    0.302618 0.962801 0.301231 0.125181
H5    H     H_    0.225607 0.009399 0.183782 0.136578
H6    H     H_    0.276367 0.739828 0.399408 0.163540
H7    H     H_    0.180731 0.910586 0.379682 0.150814
H8    H     H_    0.268244 0.788464 0.311453 0.121675
H9    H     H_    0.256575 0.370999 0.171132 0.111472
H10   H     H_    0.212394 0.544201 0.184765 0.083449
H11   H     H_    0.194192 0.487956 0.102917 0.150264
H12   H     H_    0.979613 0.658143 0.281161 0.145667
H13   H     H_    0.949169 0.598687 0.396227 0.150045
H14   H     H_    0.014691 0.369353 0.421687 0.131638
H15   H     H_    0.474475 0.309588 0.189929 0.096115
H16   H     H_    0.080675 0.761704 0.220127 0.125457
H17   H     H_    0.479569 0.539373 0.178477 0.158371
H18   H     H_    0.770485 0.726457 0.189754 0.172164
H19   H     H_    0.345296 0.525087 0.265899 0.132668
N1    N     N_1   0.300225 0.361099 0.331273 -0.288625
N2    N     N_1   0.868527 0.835999 0.084800 -0.272959
N3    N     N_1   0.937471 0.099822 0.451773 -0.308488
O1    O     O_R   0.267740 0.231960 0.575440 -0.509861
O2    O     O_R   0.596130 0.579390 0.952730 -0.501906
O3    O     O_R   0.639060 0.321160 0.958670 -0.498005
O4    O     O_R   0.527280 0.186640 0.570530 -0.498231
O5    O     O_R   0.821240 0.124200 0.104370 -0.505425
O6    O     O_R   0.036890 0.167040 0.097840 -0.506985
O7    O     O_R   0.056180 0.349610 0.102880 -0.467806
O8    O     O_R   0.797660 0.564870 0.097950 -0.457946
O9    O     O_R   0.595880 0.584250 0.104270 -0.537270
O10   O     O_R   0.638830 0.325670 0.099150 -0.530131
O11   O     O_3   0.824590 0.350230 0.028100 -0.287571
O12   O     O_R   0.685970 0.784660 0.430010 -0.515731
O13   O     O_R   0.728090 0.003450 0.576380 -0.492109
O14   O     O_R   0.682970 0.789190 0.570490 -0.497029
O15   O     O_R   0.499290 0.771880 0.575530 -0.506910
O16   O     O_R   0.285330 0.030870 0.569730 -0.486591
O17   O     O_R   0.270980 0.227080 0.423890 -0.480890
O18   O     O_R   0.530280 0.182120 0.430050 -0.496835
O19   O     O_R   0.731330 0.998570 0.424830 -0.500579
O20   O     O_3   0.100883 0.793076 0.350933 -0.582861
O21   O     O_3   0.052209 0.515226 0.173565 -0.540714
O22   O     O_R   0.502530 0.767000 0.423990 -0.536772
O23   O     O_R   0.288330 0.026350 0.429250 -0.521902
O24   O     O_3   0.499990 0.000020 0.499980 -0.264697
O25   O     O_R   0.821500 0.119340 0.952830 -0.493880
O26   O     O_R   0.037130 0.162530 0.957360 -0.493201
O27   O     O_R   0.056440 0.344740 0.951340 -0.507146
O28   O     O_R   0.797900 0.560360 0.957470 -0.482967

loop_
_geom_bond_atom_site_label_1
_geom_bond_atom_site_label_2
_ccdc_geom_bond_type
C41   O2    A    
C34   C56   T    
C23   C45   T    
C27   C29   A    
C8    H18   S    
C35   C36   A    
C18   C26   A    
C51   N1    T    
C40   O12   A    
C12   C49   T    
C35   H16   S    
C7    C8    A    
C33   C52   S    
Cr6   O2    S    
C30   C38   A    
C36   C37   A    
Cr6   O11   S    
Cr4   O11   S    
C54   N3    T    
C57   C59   T    
C32   H15   S    
C29   C33   A    
C43   O7    A    
C42   C57   S    
C1    C2    S    
C10   H19   S    
Cr4   O25   S    
C19   C26   A    
C42   O25   A    
C43   O6    A    
C55   H9    S    
C7    C14   A    
Cr3   O24   S    
C19   C20   A    
C28   O19   A    
C39   O26   A    
C4    O15   A    
Cr4   O5    S    
C4    C12   S    
C9    C10   A    
C9    H17   S    
C55   H10   S    
C48   C50   T    
C1    O4    A    
Cr5   O28   S    
C21   C22   A    
C36   O20   S    
C20   H5    S    
Cr2   O12   S    
C18   C25   A    
C41   O28   A    
C1    O13   A    
C15   C43   S    
C11   H2    S    
Cr6   O9    S    
Cr1   O1    S    
Cr6   O3    S    
C3    C44   S    
Cr5   O27   S    
C24   C25   A    
Cr5   O8    S    
C3    C8    A    
C58   C59   S    
C17   C21   A    
C30   C37   A    
C15   C20   A    
C42   O3    A    
Cr2   O14   S    
C16   C56   S    
C5    C9    A    
C29   C30   A    
C44   O9    A    
C6    C14   A    
C53   O20   S    
C16   O16   A    
C31   C32   A    
Cr3   O23   S    
C28   C38   S    
C28   O18   A    
C39   O27   A    
C4    O14   A    
C17   C18   A    
C34   C45   S    
Cr2   O19   S    
C26   C47   S    
C37   C54   S    
C27   C46   S    
C24   H13   S    
C46   O10   A    
C22   C24   A    
C19   H4    S    
Cr2   O13   S    
C55   H11   S    
C53   H6    S    
Cr3   O16   S    
Cr1   O4    S    
C15   C17   A    
C47   O17   A    
C27   C32   A    
C25   H14   S    
C53   H8    S    
C22   H12   S    
C31   C51   S    
C3    C5    A    
C2    C58   T    
C40   O22   A    
C47   O23   A    
Cr4   O6    S    
C31   C38   A    
C55   O21   S    
C52   N2    T    
Cr5   O7    S    
Cr1   O24   S    
C6    C13   A    
C11   C13   A    
C5    C6    A    
Cr3   O22   S    
C23   C39   S    
Cr5   O11   S    
C33   C35   A    
C41   C48   S    
C21   O21   S    
C10   C11   A    
C14   C40   S    
Cr4   O26   S    
C46   O5    A    
Cr6   O10   S    
C49   C50   S    
C16   O1    A    
Cr3   O15   S    
Cr1   O17   S    
C53   H7    S    
C44   O8    A    
Cr1   O18   S    
C7    H1    S    
C13   H3    S    
Cr2   O24   S    
