data_mof_unit_7923.cif
_audit_creation_date              2012-10-26T18:28:52-0400
_audit_creation_method            fapswitch 2.2
_symmetry_space_group_name_H-M    P1
_symmetry_Int_Tables_number       1
_space_group_crystal_system       triclinic
_cell_length_a                    11.660813
_cell_length_b                    12.999173
_cell_length_c                    15.856357
_cell_angle_alpha                 91.879728
_cell_angle_beta                  74.088127
_cell_angle_gamma                 100.057276
_cell_volume                      2275.62256131

loop_
_atom_site_label
_atom_site_type_symbol
_atom_type_description
_atom_site_fract_x
_atom_site_fract_y
_atom_site_fract_z
_atom_type_partial_charge
C1    C     C_R   0.520913 0.700914 0.501324 0.552071
C2    C     C_R   0.345187 0.014598 0.497657 -0.136771
C3    C     C_R   0.643318 0.877185 0.503765 -0.135605
C4    C     C_R   0.356428 0.122789 0.496972 -0.136196
C5    C     C_R   0.433774 0.860452 0.500210 -0.126873
C6    C     C_R   0.566011 0.139538 0.500420 -0.130505
C7    C     C_R   0.444230 0.968524 0.499692 0.049092
C8    C     C_R   0.555506 0.031464 0.501111 0.046132
C9    C     C_R   0.936985 0.590722 0.587342 -0.057055
C10   C     C_R   0.060512 0.404255 0.416524 -0.057197
C11   C     C_R   0.819877 0.583234 0.576802 0.039635
C12   C     C_R   0.479048 0.299082 0.498785 0.552355
C13   C     C_R   0.179212 0.414937 0.424611 0.040146
C14   C     C_R   0.859767 0.460497 0.463543 0.033349
C15   C     C_R   0.139859 0.538816 0.537011 0.033404
C16   C     C_R   0.427041 0.496119 0.668180 0.550324
C17   C     C_R   0.573174 0.505341 0.331797 0.549964
C18   C     C_R   0.979063 0.464155 0.470608 -0.012074
C19   C     C_R   0.018761 0.531453 0.532779 -0.011673
C20   C     C_R   0.385047 0.500371 0.764247 -0.002136
C21   C     C_R   0.616965 0.513108 0.235654 -0.003462
C22   C     C_R   0.229171 0.513760 0.898775 -0.135926
C23   C     C_R   0.360897 0.531499 0.086511 -0.140939
C24   C     C_R   0.778590 0.533773 0.100776 -0.132664
C25   C     C_R   0.264280 0.505100 0.807826 -0.137259
C26   C     C_R   0.740421 0.524655 0.191948 -0.134565
C27   C     C_R   0.469910 0.504253 0.812417 -0.134470
C28   C     C_R   0.532560 0.511325 0.187366 -0.133068
C29   C     C_R   0.438117 0.517373 0.903625 0.031748
C30   C     C_R   0.568908 0.524574 0.095778 0.031924
C31   C     C_R   0.314835 0.519676 0.946888 0.053661
C32   C     C_R   0.693956 0.533192 0.052466 0.050817
C33   C     C_R   0.524810 0.526166 0.952961 0.031392
C34   C     C_R   0.650808 0.536683 0.912345 -0.135026
C35   C     C_R   0.484218 0.526680 0.046137 0.034010
C36   C     C_R   0.969738 0.659705 0.656282 -0.000320
C37   C     C_R   0.995849 0.617498 0.727966 -0.114315
C38   C     C_R   0.026908 0.683004 0.792877 -0.114172
C39   C     C_R   0.031020 0.790694 0.787080 -0.091408
C40   C     C_R   0.003876 0.833063 0.716429 -0.107719
C41   C     C_R   0.972880 0.767849 0.651316 -0.105103
C42   C     C_R   0.025205 0.330352 0.351338 0.000863
C43   C     C_R   0.934414 0.242328 0.378513 -0.108538
C44   C     C_R   0.900759 0.173399 0.316480 -0.111834
C45   C     C_R   0.278240 0.528319 0.037628 -0.139041
C46   C     C_R   0.958185 0.191351 0.227186 -0.097114
C47   C     C_R   0.049573 0.278110 0.199789 -0.109185
C48   C     C_R   0.083324 0.347267 0.261623 -0.102954
C49   C     C_R   0.733391 0.540858 0.961430 -0.130495
C50   C     C_R   0.466752 0.185594 0.498511 0.001512
C51   C     C_R   0.533103 0.814392 0.501929 0.001254
C52   C     C_R   0.654455 0.985371 0.503346 -0.143789
Cu1   Cu    Cu3+1 0.386820 0.492450 0.493500 0.930030
Cu2   Cu    Cu3+1 0.613180 0.507550 0.506500 0.929723
H1    H     H_    0.184639 0.532025 0.071329 0.100905
H2    H     H_    0.874409 0.541293 0.067937 0.097352
H3    H     H_    0.325678 0.541381 0.155952 0.098265
H4    H     H_    0.689598 0.545020 0.842462 0.108830
H5    H     H_    0.651562 0.187554 0.501466 0.117675
H6    H     H_    0.348181 0.812446 0.499167 0.124608
H7    H     H_    0.278763 0.157145 0.495547 0.130883
H8    H     H_    0.720968 0.842827 0.505236 0.127961
H9    H     H_    0.740152 0.032837 0.504655 0.097227
H10   H     H_    0.259361 0.967106 0.496665 0.105042
H11   H     H_    0.174245 0.591116 0.582238 0.136936
H12   H     H_    0.828919 0.548771 0.927685 0.104665
H13   H     H_    0.826957 0.411693 0.415698 0.136996
H14   H     H_    0.992329 0.534091 0.733371 0.099138
H15   H     H_    0.047571 0.650295 0.847758 0.097486
H16   H     H_    0.055021 0.841280 0.837407 0.109526
H17   H     H_    0.006924 0.916460 0.712087 0.105935
H18   H     H_    0.952286 0.801574 0.596770 0.097599
H19   H     H_    0.889607 0.227526 0.447544 0.095966
H20   H     H_    0.830198 0.106089 0.337589 0.112627
H21   H     H_    0.932010 0.137953 0.179246 0.109861
H22   H     H_    0.094134 0.291907 0.130650 0.111237
H23   H     H_    0.241965 0.369387 0.383731 0.130618
H24   H     H_    0.153762 0.414439 0.239702 0.096179
H25   H     H_    0.756809 0.628138 0.618185 0.130000
H26   H     H_    0.438192 0.496960 0.222708 0.119753
H27   H     H_    0.560380 0.494986 0.777203 0.122461
H28   H     H_    0.807219 0.526084 0.228038 0.129710
H29   H     H_    0.197299 0.502389 0.771748 0.123000
H30   H     H_    0.135057 0.516441 0.931550 0.093075
N1    N     N_R   0.216750 0.481110 0.483710 -0.244820
N2    N     N_R   0.783250 0.518890 0.516290 -0.244682
O1    O     O_R   0.419950 0.645670 0.495380 -0.507370
O2    O     O_R   0.580050 0.354330 0.504620 -0.507502
O3    O     O_R   0.611110 0.658410 0.506370 -0.507203
O4    O     O_R   0.388890 0.341590 0.493630 -0.506708
O5    O     O_R   0.350820 0.490050 0.621260 -0.503341
O6    O     O_R   0.649180 0.509950 0.378740 -0.503219
O7    O     O_R   0.541970 0.502800 0.632250 -0.510238
O8    O     O_R   0.458030 0.497200 0.367750 -0.510388

loop_
_geom_bond_atom_site_label_1
_geom_bond_atom_site_label_2
_ccdc_geom_bond_type
C1    O1    A    
C30   C32   A    
C21   C26   A    
C43   H19   S    
C23   C45   A    
C40   H17   S    
C10   C42   S    
C14   C18   A    
C2    C7    A    
C7    C8    A    
Cu1   Cu2   S    
C15   C19   A    
C16   O7    A    
C30   C35   A    
C12   O4    A    
C36   C37   A    
C24   C26   A    
C47   H22   S    
C38   C39   A    
C27   C29   A    
C20   C25   A    
C11   N2    A    
C15   H11   S    
C37   H14   S    
C29   C33   A    
C18   C19   A    
C48   H24   S    
Cu2   O7    S    
C9    C19   A    
C44   C46   A    
C22   C25   A    
Cu1   O5    S    
C9    C36   S    
C14   H13   S    
C8    C52   A    
C15   N1    A    
C38   H15   S    
C26   H28   S    
C36   C41   A    
C17   O6    A    
C46   H21   S    
C2    H10   S    
C13   H23   S    
C22   C31   A    
C12   O2    A    
C27   H27   S    
C14   N2    A    
Cu2   O3    S    
C49   H12   S    
C39   C40   A    
Cu2   N2    S    
C3    C51   A    
C6    C8    A    
C4    H7    S    
C10   C13   A    
C17   C21   S    
C4    C50   A    
C22   H30   S    
C2    C4    A    
C43   C44   A    
C24   C32   A    
Cu2   O6    S    
C37   C38   A    
C1    C51   S    
C47   C48   A    
C16   C20   S    
C33   C34   A    
Cu1   O1    S    
C42   C48   A    
C6    C50   A    
C44   H20   S    
C9    C11   A    
C25   H29   S    
C11   H25   S    
C41   H18   S    
C40   C41   A    
C21   C28   A    
C23   C35   A    
C42   C43   A    
C5    C7    A    
C3    H8    S    
C23   H3    S    
C46   C47   A    
C34   C49   A    
C1    O3    A    
C5    H6    S    
Cu1   O8    S    
C6    H5    S    
C52   H9    S    
C12   C50   S    
C3    C52   A    
C20   C27   A    
C24   H2    S    
C28   C30   A    
C29   C31   A    
Cu2   O2    S    
C10   C18   A    
C33   C35   A    
C39   H16   S    
C28   H26   S    
C32   C49   A    
C45   H1    S    
C16   O5    A    
C31   C45   A    
C13   N1    A    
Cu1   O4    S    
C34   H4    S    
C5    C51   A    
Cu1   N1    S    
C17   O8    A    
