data_mof_unit_48130.cif
_audit_creation_date              2012-12-11T14:01:23-0500
_audit_creation_method            fapswitch 2.2
_symmetry_space_group_name_H-M    P1
_symmetry_Int_Tables_number       1
_space_group_crystal_system       triclinic
_cell_length_a                    19.012088
_cell_length_b                    11.029935
_cell_length_c                    18.797459
_cell_angle_alpha                 89.714102
_cell_angle_beta                  89.392063
_cell_angle_gamma                 90.030992
_cell_volume                      3941.59487324

loop_
_atom_site_label
_atom_site_type_symbol
_atom_type_description
_atom_site_fract_x
_atom_site_fract_y
_atom_site_fract_z
_atom_type_partial_charge
C1    C     C_R   0.272229 0.041858 0.853552 0.555266
C2    C     C_R   0.727747 0.042174 0.146436 0.555852
C3    C     C_R   0.772231 0.541852 0.853555 0.555302
C4    C     C_R   0.227746 0.542167 0.146434 0.555814
C5    C     C_R   0.497137 0.058793 0.070101 -0.081516
C6    C     C_R   0.521889 0.048710 0.923897 -0.088385
C7    C     C_R   0.996150 0.558432 0.070342 -0.081897
C8    C     C_R   0.020993 0.549330 0.924124 -0.088011
C9    C     C_R   0.006938 0.665217 0.031735 -0.126217
C10   C     C_R   0.021619 0.660347 0.959200 -0.127657
C11   C     C_R   0.508545 0.165244 0.031344 -0.126249
C12   C     C_R   0.523179 0.159848 0.958815 -0.127902
C13   C     C_2   0.248162 0.579875 0.920555 -0.113767
C14   C     C_2   0.751893 0.580647 0.079560 -0.113948
C15   C     C_2   0.748189 0.079903 0.920569 -0.113901
C16   C     C_2   0.251882 0.080668 0.079551 -0.113859
C17   C     C_2   0.250547 0.585892 0.076815 -0.106511
C18   C     C_2   0.749346 0.585278 0.923006 -0.106232
C19   C     C_2   0.750552 0.085937 0.076828 -0.106442
C20   C     C_2   0.249338 0.085304 0.922997 -0.106290
C21   C     C_2   0.293905 0.518586 0.036344 -0.165911
C22   C     C_2   0.706487 0.517467 0.964169 -0.164138
C23   C     C_2   0.793952 0.018703 0.036366 -0.165793
C24   C     C_2   0.206465 0.017517 0.964159 -0.164232
C25   C     C_2   0.302555 0.543093 0.960238 -0.162368
C26   C     C_2   0.697660 0.542812 0.040101 -0.162232
C27   C     C_2   0.802604 0.043247 0.960265 -0.162321
C28   C     C_2   0.197642 0.042866 0.040090 -0.162200
C29   C     C_2   0.512831 0.839911 0.584381 -0.114789
C30   C     C_2   0.514127 0.828312 0.428684 -0.105257
C31   C     C_2   0.012826 0.339927 0.584378 -0.114795
C32   C     C_2   0.014125 0.328306 0.428682 -0.105248
C33   C     C_2   0.547542 0.750213 0.472126 -0.161106
C34   C     C_2   0.533081 0.742853 0.547827 -0.171527
C35   C     C_2   0.047591 0.250283 0.472130 -0.161098
C36   C     C_2   0.033109 0.242888 0.547827 -0.171543
C37   C     C_2   0.250700 0.560944 0.583883 0.022192
C38   C     C_2   0.749103 0.560450 0.416490 0.019559
C39   C     C_2   0.750701 0.060943 0.583882 0.022201
C40   C     C_2   0.249108 0.060451 0.416488 0.019533
C41   C     C_2   0.238482 0.571919 0.425216 -0.100827
C42   C     C_2   0.761754 0.572372 0.574688 -0.098658
C43   C     C_2   0.738481 0.071920 0.425215 -0.100806
C44   C     C_2   0.261753 0.072369 0.574687 -0.098662
C45   C     C_R   0.470618 0.821628 0.853474 0.537133
C46   C     C_R   0.528578 0.822719 0.147068 0.541405
C47   C     C_R   0.970673 0.321666 0.853440 0.537236
C48   C     C_R   0.028598 0.322674 0.147050 0.541271
C49   C     C_2   0.187634 0.542233 0.472250 -0.155527
C50   C     C_2   0.812350 0.541247 0.527943 -0.154159
C51   C     C_2   0.687637 0.042218 0.472251 -0.155516
C52   C     C_2   0.312357 0.041273 0.527944 -0.154167
C53   C     C_2   0.192346 0.578500 0.545947 -0.153190
C54   C     C_2   0.807726 0.577163 0.454033 -0.155730
C55   C     C_2   0.692348 0.078493 0.545946 -0.153198
C56   C     C_2   0.307729 0.077181 0.454033 -0.155696
C57   C     C_R   0.260669 0.636232 0.851412 0.551695
C58   C     C_R   0.739294 0.636639 0.148549 0.553316
C59   C     C_R   0.760674 0.136242 0.851417 0.551679
C60   C     C_R   0.239291 0.136645 0.148546 0.553340
C61   C     C_R   0.273398 0.044211 0.647661 0.543588
C62   C     C_R   0.726567 0.043766 0.352377 0.543832
C63   C     C_R   0.773397 0.544213 0.647662 0.543602
C64   C     C_R   0.226567 0.543765 0.352378 0.543828
C65   C     C_R   0.472331 0.824686 0.649315 0.549813
C66   C     C_R   0.532163 0.822987 0.353927 0.546104
C67   C     C_R   0.972328 0.324687 0.649313 0.549807
C68   C     C_R   0.032159 0.322987 0.353925 0.546078
C69   C     C_R   0.260947 0.634517 0.646987 0.554416
C70   C     C_R   0.738958 0.634414 0.353169 0.551211
C71   C     C_R   0.760949 0.134520 0.646986 0.554448
C72   C     C_R   0.238959 0.134413 0.353169 0.551178
C73   C     C_R   0.499010 0.833153 0.075567 -0.001659
C74   C     C_R   0.496281 0.828274 0.926533 0.003438
C75   C     C_R   0.999182 0.332889 0.075475 -0.001470
C76   C     C_R   0.996548 0.328449 0.926425 0.003204
C77   C     C_R   0.500647 0.944240 0.036679 0.026007
C78   C     C_R   0.506386 0.940426 0.961507 0.024824
C79   C     C_R   0.000274 0.444099 0.036742 0.025937
C80   C     C_R   0.006057 0.440647 0.961564 0.024944
C81   C     C_R   0.490108 0.721252 0.966668 -0.149108
C82   C     C_R   0.490186 0.723916 0.039474 -0.153694
C83   C     C_R   0.991089 0.221192 0.966402 -0.149439
C84   C     C_R   0.991079 0.223624 0.039208 -0.153494
Cr1   Cr    Cr6+3 0.230530 0.836340 0.748870 1.014706
Cr2   Cr    Cr6+3 0.769470 0.836340 0.251130 1.016920
Cr3   Cr    Cr6+3 0.730530 0.336340 0.748870 1.014703
Cr4   Cr    Cr6+3 0.269470 0.336340 0.251130 1.016925
Cr5   Cr    Cr6+3 0.387420 0.989430 0.750820 1.013473
Cr6   Cr    Cr6+3 0.612580 0.989430 0.249180 1.011694
Cr7   Cr    Cr6+3 0.887420 0.489430 0.750820 1.013321
Cr8   Cr    Cr6+3 0.112580 0.489430 0.249180 1.011877
Cr9   Cr    Cr6+3 0.385640 0.677860 0.749230 1.009006
Cr10  Cr    Cr6+3 0.614360 0.677860 0.250770 1.008414
Cr11  Cr    Cr6+3 0.885640 0.177860 0.749230 1.008999
Cr12  Cr    Cr6+3 0.114360 0.177860 0.250770 1.008390
H1    H     H_    0.482399 0.633709 0.942052 0.137789
H2    H     H_    0.486979 0.637877 0.067438 0.137991
H3    H     H_    0.983940 0.133608 0.941659 0.137774
H4    H     H_    0.988357 0.137416 0.067028 0.138040
H5    H     H_    0.138673 0.501237 0.455078 0.151974
H6    H     H_    0.861047 0.499417 0.545430 0.144573
H7    H     H_    0.638681 0.001208 0.455079 0.151962
H8    H     H_    0.361061 0.999468 0.545432 0.144581
H9    H     H_    0.148715 0.631483 0.566882 0.136962
H10   H     H_    0.851497 0.629819 0.432720 0.138055
H11   H     H_    0.648716 0.131477 0.566879 0.136957
H12   H     H_    0.351496 0.129844 0.432718 0.138056
H13   H     H_    0.285760 0.620681 0.439390 0.083118
H14   H     H_    0.714708 0.621625 0.560049 0.079273
H15   H     H_    0.785756 0.120693 0.439388 0.083097
H16   H     H_    0.214699 0.121598 0.560047 0.079284
H17   H     H_    0.483746 0.067790 0.125836 0.132324
H18   H     H_    0.534564 0.048322 0.867688 0.128752
H19   H     H_    0.982762 0.566943 0.126107 0.132115
H20   H     H_    0.033744 0.549383 0.867932 0.128863
H21   H     H_    0.004717 0.751937 0.058380 0.106448
H22   H     H_    0.032331 0.743039 0.929764 0.109803
H23   H     H_    0.506820 0.252106 0.057864 0.106424
H24   H     H_    0.534352 0.242243 0.929258 0.110157
H25   H     H_    0.322462 0.442223 0.058549 0.152960
H26   H     H_    0.678398 0.440324 0.942649 0.151742
H27   H     H_    0.822540 0.942375 0.058571 0.152901
H28   H     H_    0.178367 0.940384 0.942638 0.151801
H29   H     H_    0.355024 0.533999 0.937483 0.150220
H30   H     H_    0.645189 0.533295 0.062900 0.154333
H31   H     H_    0.855093 0.034299 0.937529 0.150523
H32   H     H_    0.145170 0.033369 0.062889 0.154204
H33   H     H_    0.223647 0.664047 0.054511 0.112760
H34   H     H_    0.775831 0.664065 0.944658 0.112669
H35   H     H_    0.723623 0.164060 0.054521 0.112751
H36   H     H_    0.275829 0.164085 0.944649 0.112672
H37   H     H_    0.195423 0.584922 0.943277 0.114309
H38   H     H_    0.804614 0.586220 0.056802 0.112387
H39   H     H_    0.695444 0.084850 0.943280 0.114437
H40   H     H_    0.304603 0.086223 0.056794 0.112292
H41   H     H_    0.583023 0.681858 0.450842 0.149435
H42   H     H_    0.533105 0.653057 0.571890 0.150175
H43   H     H_    0.083133 0.182017 0.450851 0.149429
H44   H     H_    0.033154 0.153094 0.571888 0.150165
H45   H     H_    0.478697 0.898131 0.448137 0.083947
H46   H     H_    0.516972 0.930363 0.561466 0.097343
H47   H     H_    0.978629 0.398029 0.448127 0.083937
H48   H     H_    0.016949 0.430378 0.561460 0.097372
O1    O     O_R   0.215090 0.709860 0.828130 -0.523593
O2    O     O_R   0.784910 0.709860 0.171870 -0.522230
O3    O     O_R   0.715090 0.209860 0.828130 -0.523681
O4    O     O_R   0.284910 0.209860 0.171870 -0.522185
O5    O     O_R   0.445660 0.919250 0.676780 -0.507858
O6    O     O_R   0.554340 0.919250 0.323220 -0.503575
O7    O     O_R   0.945660 0.419250 0.676780 -0.507865
O8    O     O_R   0.054340 0.419250 0.323220 -0.503583
O9    O     O_R   0.456260 0.718170 0.670000 -0.515148
O10   O     O_R   0.543740 0.718170 0.330000 -0.516069
O11   O     O_R   0.956260 0.218170 0.670000 -0.515164
O12   O     O_R   0.043740 0.218170 0.330000 -0.516024
O13   O     O_R   0.320940 0.626760 0.674370 -0.510353
O14   O     O_R   0.679060 0.626760 0.325630 -0.517350
O15   O     O_R   0.820940 0.126760 0.674370 -0.510360
O16   O     O_R   0.179060 0.126760 0.325630 -0.517353
O17   O     O_3   0.334530 0.834540 0.749640 -0.244688
O18   O     O_3   0.665470 0.834540 0.250360 -0.246338
O19   O     O_3   0.834530 0.334540 0.749640 -0.244644
O20   O     O_3   0.165470 0.334540 0.250360 -0.246367
O21   O     O_R   0.236990 0.958390 0.823710 -0.499584
O22   O     O_R   0.763010 0.958390 0.176290 -0.499212
O23   O     O_R   0.736990 0.458390 0.823710 -0.499573
O24   O     O_R   0.263010 0.458390 0.176290 -0.499248
O25   O     O_R   0.332380 0.074750 0.830850 -0.510597
O26   O     O_R   0.667620 0.074750 0.169150 -0.512258
O27   O     O_R   0.832380 0.574750 0.830850 -0.510662
O28   O     O_R   0.167620 0.574750 0.169150 -0.512098
O29   O     O_R   0.445800 0.917770 0.825070 -0.505771
O30   O     O_R   0.554200 0.917770 0.174930 -0.508343
O31   O     O_R   0.945800 0.417770 0.825070 -0.505924
O32   O     O_R   0.054200 0.417770 0.174930 -0.508123
O33   O     O_R   0.456410 0.716580 0.829970 -0.526340
O34   O     O_R   0.543590 0.716580 0.170030 -0.522095
O35   O     O_R   0.956410 0.216580 0.829970 -0.526284
O36   O     O_R   0.043590 0.216580 0.170030 -0.522271
O37   O     O_R   0.321080 0.625290 0.822650 -0.496796
O38   O     O_R   0.678920 0.625290 0.177350 -0.495551
O39   O     O_R   0.821080 0.125290 0.822650 -0.496731
O40   O     O_R   0.178920 0.125290 0.177350 -0.495589
O41   O     O_R   0.214930 0.711450 0.668160 -0.523212
O42   O     O_R   0.785070 0.711450 0.331840 -0.521179
O43   O     O_R   0.714930 0.211450 0.668160 -0.523200
O44   O     O_R   0.285070 0.211450 0.331840 -0.521176
O45   O     O_R   0.236850 0.959870 0.675420 -0.494316
O46   O     O_R   0.763150 0.959870 0.324580 -0.493271
O47   O     O_R   0.736850 0.459870 0.675420 -0.494292
O48   O     O_R   0.263150 0.459870 0.324580 -0.493291
O49   O     O_R   0.332230 0.076350 0.670880 -0.518999
O50   O     O_R   0.667770 0.076350 0.329120 -0.519585
O51   O     O_R   0.832230 0.576350 0.670880 -0.519016
O52   O     O_R   0.167770 0.576350 0.329120 -0.519560
C85   C     C_3   0.309624 0.473351 0.561558 -0.263231
C86   C     C_3   0.283527 0.344232 0.557749 -0.429418
H49   H     H_    0.257552 0.318633 0.608881 0.154870
H50   H     H_    0.246297 0.332082 0.513288 0.169319
H51   H     H_    0.329682 0.284748 0.548518 0.153581
H52   H     H_    0.335409 0.498668 0.510799 0.139103
H53   H     H_    0.353458 0.472215 0.600027 0.166608
C87   C     C_3   0.690020 0.473067 0.439341 -0.270096
C88   C     C_3   0.715549 0.343569 0.441864 -0.425841
H54   H     H_    0.740422 0.319303 0.390114 0.154902
H55   H     H_    0.753585 0.329767 0.485531 0.167931
H56   H     H_    0.669281 0.284327 0.451598 0.153807
H57   H     H_    0.665288 0.496659 0.490749 0.130350
H58   H     H_    0.645460 0.474014 0.401739 0.163248
C89   C     C_3   0.809623 0.973343 0.561560 -0.263264
C90   C     C_3   0.783530 0.844218 0.557824 -0.429440
H59   H     H_    0.757643 0.818649 0.609004 0.154881
H60   H     H_    0.746226 0.832039 0.513433 0.169301
H61   H     H_    0.829672 0.784726 0.548532 0.153597
H62   H     H_    0.835372 0.998593 0.510775 0.139132
H63   H     H_    0.853482 0.972270 0.599997 0.166612
C91   C     C_3   0.190027 0.973063 0.439339 -0.270038
C92   C     C_3   0.215584 0.843582 0.441992 -0.425843
H64   H     H_    0.240632 0.819283 0.390336 0.154857
H65   H     H_    0.253472 0.829836 0.485793 0.167994
H66   H     H_    0.169306 0.784316 0.451588 0.153798
H67   H     H_    0.165231 0.996769 0.490700 0.130285
H68   H     H_    0.145513 0.973887 0.401676 0.163286

loop_
_geom_bond_atom_site_label_1
_geom_bond_atom_site_label_2
_ccdc_geom_bond_type
C16   C28   D    
C69   O41   A    
Cr3   O19   S    
C38   C70   S    
C60   O40   A    
C37   C69   S    
C9    H21   S    
C46   O34   A    
C35   C36   S    
Cr2   O22   S    
C53   H9    S    
Cr5   O29   S    
Cr6   O6    S    
C11   H23   S    
Cr10  O38   S    
C57   O37   A    
C81   C82   A    
C3    O23   A    
C91   H67   S    
C62   O46   A    
C77   C78   A    
Cr8   O32   S    
C31   C67   S    
C50   C54   S    
C30   H45   S    
Cr3   O3    S    
Cr6   O18   S    
Cr11  O15   S    
C7    C79   A    
Cr1   O1    S    
C47   C76   S    
C66   O6    A    
C45   O29   A    
C16   C60   S    
C49   C53   S    
C75   C84   A    
C6    C78   A    
C15   H39   S    
Cr1   O45   S    
C24   H28   S    
Cr1   O17   S    
C90   H59   S    
C3    C18   S    
C67   O11   A    
C5    H17   S    
C26   H30   S    
C7    H19   S    
C31   H48   S    
C25   H29   S    
C6    H18   S    
C32   H47   S    
C65   O9    A    
C35   H43   S    
C12   H24   S    
C27   H31   S    
C41   C49   D    
C39   C55   D    
C89   C90   S    
C33   H41   S    
C40   C56   D    
Cr6   O50   S    
C87   H57   S    
Cr8   O8    S    
C69   O13   A    
C46   O30   A    
C86   H49   S    
Cr2   O18   S    
C37   C85   S    
C4    O28   A    
C9    C10   A    
Cr10  O18   S    
C51   C55   S    
C30   C33   D    
C45   O33   A    
Cr1   O41   S    
C32   C68   S    
C37   C53   D    
Cr8   O20   S    
Cr5   O5    S    
C89   H62   S    
C28   H32   S    
Cr10  O14   S    
C38   C87   S    
C61   O45   A    
C82   H2    S    
C48   C75   S    
Cr7   O19   S    
Cr9   O37   S    
Cr12  O40   S    
C89   H63   S    
Cr2   O2    S    
C76   C83   A    
Cr5   O17   S    
C64   O48   A    
C22   H26   S    
C7    C9    A    
C88   H55   S    
C19   H35   S    
C86   H50   S    
C14   C58   S    
Cr3   O23   S    
Cr2   O46   S    
C54   H10   S    
C67   O7    A    
C84   H4    S    
C32   C35   D    
C24   C28   S    
C21   C25   S    
C92   H64   S    
C66   O10   A    
Cr9   O33   S    
Cr3   O43   S    
C14   H38   S    
Cr4   O24   S    
C88   H54   S    
C17   H33   S    
C29   C34   D    
C34   H42   S    
C14   C26   D    
C4    O24   A    
C55   H11   S    
C45   C74   S    
C70   O14   A    
C20   H36   S    
C19   C23   D    
C68   O8    A    
Cr11  O19   S    
C10   H22   S    
C92   H65   S    
Cr2   O42   S    
Cr7   O51   S    
C57   O1    A    
C83   H3    S    
C15   C27   D    
C83   C84   A    
C38   C54   D    
C90   H61   S    
Cr9   O17   S    
Cr10  O10   S    
Cr5   O49   S    
Cr6   O26   S    
C86   H51   S    
C33   C34   S    
Cr4   O4    S    
Cr7   O31   S    
C85   H52   S    
Cr12  O36   S    
C59   O39   A    
C36   H44   S    
C30   C66   S    
C47   O35   A    
C42   C50   D    
C29   C65   S    
C4    C17   S    
C44   H16   S    
Cr11  O35   S    
Cr12  O16   S    
C90   H60   S    
C50   H6    S    
C23   C27   S    
C3    O27   A    
C5    C11   A    
C72   O44   A    
C63   O51   A    
C18   H34   S    
C75   C79   A    
C62   O50   A    
C74   C81   A    
C5    C77   A    
C16   H40   S    
C6    C12   A    
C61   O49   A    
C73   C82   A    
C48   O36   A    
Cr3   O47   S    
C88   H56   S    
Cr4   O48   S    
C2    O22   A    
C52   H8    S    
C1    C20   S    
C39   C71   S    
C40   C72   S    
Cr11  O39   S    
C40   C91   S    
C2    C19   S    
C18   C22   D    
C13   H37   S    
C1    O21   A    
C76   C80   A    
C71   O43   A    
Cr8   O52   S    
C68   O12   A    
Cr10  O34   S    
C44   C52   D    
C23   H27   S    
C11   C12   A    
C58   O2    A    
C91   H68   S    
C44   C61   S    
C71   O15   A    
Cr6   O30   S    
C72   O16   A    
Cr7   O27   S    
C58   O38   A    
Cr1   O21   S    
Cr7   O7    S    
Cr9   O9    S    
C42   H14   S    
C70   O42   A    
Cr5   O25   S    
C2    O26   A    
Cr4   O20   S    
C92   H66   S    
C49   H5    S    
Cr9   O13   S    
C43   C51   D    
C91   C92   S    
Cr12  O12   S    
C81   H1    S    
C13   C25   D    
Cr8   O28   S    
C63   O47   A    
C29   H46   S    
C64   O52   A    
C1    O25   A    
C85   H53   S    
Cr11  O11   S    
C21   H25   S    
C85   C86   S    
C15   C59   S    
C8    H20   S    
C22   C26   S    
C79   C80   A    
C43   H15   S    
Cr12  O20   S    
Cr4   O44   S    
C13   C57   S    
C87   C88   S    
C73   C77   A    
C8    C10   A    
C74   C78   A    
C87   H58   S    
C8    C80   A    
C65   O5    A    
C56   H12   S    
C31   C36   D    
C41   H13   S    
C60   O4    A    
C41   C64   S    
C39   C89   S    
C51   H7    S    
C42   C63   S    
C20   C24   D    
C46   C73   S    
C47   O31   A    
C52   C56   S    
C43   C62   S    
C59   O3    A    
C48   O32   A    
C17   C21   D    
