data_mof_unit_30898.cif
_audit_creation_date              2012-12-11T15:52:12-0500
_audit_creation_method            fapswitch 2.2
_symmetry_space_group_name_H-M    P1
_symmetry_Int_Tables_number       1
_space_group_crystal_system       triclinic
_cell_length_a                    10.991615
_cell_length_b                    10.991631
_cell_length_c                    18.867144
_cell_angle_alpha                 89.999915
_cell_angle_beta                  90.000068
_cell_angle_gamma                 120.0006
_cell_volume                      1974.04849926

loop_
_atom_site_label
_atom_site_type_symbol
_atom_type_description
_atom_site_fract_x
_atom_site_fract_y
_atom_site_fract_z
_atom_type_partial_charge
C1    C     C_R   0.519783 0.458334 0.147524 0.574317
C2    C     C_R   0.541666 0.061449 0.147524 0.574318
C3    C     C_R   0.938552 0.480218 0.147524 0.574304
C4    C     C_R   0.452112 0.522187 0.855231 0.562269
C5    C     C_R   0.070082 0.547892 0.855232 0.562261
C6    C     C_R   0.477812 0.929921 0.855231 0.562269
C7    C     C_3   0.667271 0.902284 0.533309 0.396234
C8    C     C_3   0.097722 0.764988 0.533308 0.396234
C9    C     C_3   0.235012 0.332724 0.533309 0.396237
C10   C     C_3   0.082565 0.752361 0.453759 0.333555
C11   C     C_3   0.669791 0.917432 0.453760 0.333548
C12   C     C_3   0.247639 0.330192 0.453760 0.333561
C13   C     C_R   0.522747 0.454382 0.355799 0.633196
C14   C     C_R   0.545617 0.068362 0.355799 0.633190
C15   C     C_R   0.931637 0.477254 0.355799 0.633191
C16   C     C_R   0.457918 0.517331 0.646980 0.547684
C17   C     C_R   0.059414 0.542082 0.646980 0.547682
C18   C     C_R   0.482670 0.940587 0.646980 0.547679
C19   C     C_R   0.489997 0.960374 0.930801 -0.046101
C20   C     C_R   0.039637 0.529629 0.930804 -0.046135
C21   C     C_R   0.470378 0.510000 0.930801 -0.046096
C22   C     C_R   0.006402 0.502141 0.078829 -0.016988
C23   C     C_R   0.495739 0.993611 0.078826 -0.016971
C24   C     C_R   0.497869 0.504261 0.078826 -0.016960
C25   C     C_R   0.405849 0.005407 0.963040 0.052803
C26   C     C_R   0.994652 0.400461 0.963049 0.052770
C27   C     C_R   0.599554 0.594163 0.963044 0.052794
C28   C     C_R   0.976291 0.386432 0.035690 0.043346
C29   C     C_R   0.410180 0.023767 0.035682 0.043366
C30   C     C_R   0.613583 0.589834 0.035685 0.043362
C31   C     C_R   0.562562 0.926366 0.048087 0.365294
C32   C     C_R   0.073624 0.636209 0.048087 0.365280
C33   C     C_R   0.363800 0.437429 0.048086 0.365283
C34   C     C_R   0.085712 0.649512 0.974603 0.347562
C35   C     C_R   0.563781 0.914278 0.974604 0.347570
C36   C     C_R   0.350494 0.436204 0.974603 0.347564
C37   C     C_3   0.399112 0.135210 0.948705 -0.249885
C38   C     C_3   0.864899 0.263866 0.948716 -0.249771
C39   C     C_3   0.736121 0.600951 0.948710 -0.249842
C40   C     C_3   0.843843 0.248425 0.028244 -0.227399
C41   C     C_3   0.404716 0.156258 0.028234 -0.227511
C42   C     C_3   0.751563 0.595345 0.028239 -0.227459
C43   C     C_R   0.513251 0.009025 0.578340 -0.076665
C44   C     C_R   0.990978 0.504225 0.578339 -0.076665
C45   C     C_R   0.495776 0.486752 0.578340 -0.076662
C46   C     C_R   0.963984 0.484732 0.430567 0.027145
C47   C     C_R   0.520747 0.036015 0.430568 0.027154
C48   C     C_R   0.515269 0.479249 0.430568 0.027148
C49   C     C_R   0.620258 0.008854 0.538176 -0.016085
C50   C     C_R   0.991150 0.611404 0.538175 -0.016093
C51   C     C_R   0.388597 0.379742 0.538176 -0.016095
C52   C     C_R   0.979229 0.601504 0.466230 -0.050221
C53   C     C_R   0.622273 0.020769 0.466230 -0.050214
C54   C     C_R   0.398497 0.377721 0.466231 -0.050216
C55   C     C_R   0.426239 0.060347 0.470871 0.378813
C56   C     C_R   0.939653 0.365891 0.470870 0.378819
C57   C     C_R   0.634110 0.573763 0.470870 0.378816
C58   C     C_R   0.951259 0.375271 0.545112 0.354940
C59   C     C_R   0.424014 0.048742 0.545113 0.354942
C60   C     C_R   0.624730 0.575990 0.545113 0.354945
Cr1   Cr    Cr6+3 0.769160 0.541570 0.250690 1.145840
Cr2   Cr    Cr6+3 0.458430 0.227590 0.250690 1.145846
Cr3   Cr    Cr6+3 0.772410 0.230840 0.250690 1.145831
Cr4   Cr    Cr6+3 0.541570 0.769160 0.749310 1.162341
Cr5   Cr    Cr6+3 0.227590 0.458430 0.749310 1.162339
Cr6   Cr    Cr6+3 0.230840 0.772410 0.749310 1.162352
H1    H     H_    0.297013 0.111603 0.925007 0.227521
H2    H     H_    0.888583 0.185418 0.925026 0.227551
H3    H     H_    0.814591 0.703065 0.925015 0.227535
H4    H     H_    0.749833 0.253046 0.045955 0.084785
H5    H     H_    0.503366 0.250229 0.045953 0.084764
H6    H     H_    0.746913 0.496704 0.045956 0.084772
H7    H     H_    0.493807 0.217371 0.920715 0.100433
H8    H     H_    0.782698 0.276327 0.920717 0.100435
H9    H     H_    0.723621 0.506272 0.920718 0.100437
H10   H     H_    0.854667 0.160672 0.050436 0.239354
H11   H     H_    0.306160 0.145488 0.050417 0.239343
H12   H     H_    0.839334 0.693913 0.050426 0.239360
H13   H     H_    0.587451 0.797110 0.552941 0.130218
H14   H     H_    0.202898 0.790341 0.552937 0.130208
H15   H     H_    0.209656 0.412545 0.552937 0.130216
H16   H     H_    0.036392 0.812132 0.429352 0.241560
H17   H     H_    0.775732 0.963601 0.429349 0.241558
H18   H     H_    0.187869 0.224246 0.429354 0.241561
O1    O     O_R   0.911480 0.572650 0.170990 -0.457229
O2    O     O_R   0.427350 0.338830 0.170990 -0.457233
O3    O     O_R   0.661170 0.088520 0.170990 -0.457239
O4    O     O_R   0.572650 0.911480 0.829010 -0.447360
O5    O     O_R   0.338830 0.427350 0.829010 -0.447360
O6    O     O_R   0.088520 0.661170 0.829010 -0.447353
O7    O     O_R   0.640340 0.528970 0.175680 -0.498599
O8    O     O_R   0.471030 0.111370 0.175680 -0.498593
O9    O     O_R   0.888630 0.359660 0.175680 -0.498606
O10   O     O_R   0.528970 0.640340 0.824320 -0.469300
O11   O     O_R   0.111370 0.471030 0.824320 -0.469313
O12   O     O_R   0.359660 0.888630 0.824320 -0.469300
O13   O     O_R   0.909980 0.572450 0.331530 -0.478446
O14   O     O_R   0.427550 0.337530 0.331530 -0.478443
O15   O     O_R   0.662470 0.090020 0.331530 -0.478446
O16   O     O_R   0.572450 0.909980 0.668470 -0.479279
O17   O     O_R   0.337530 0.427550 0.668470 -0.479272
O18   O     O_R   0.090020 0.662470 0.668470 -0.479268
O19   O     O_R   0.638950 0.528780 0.324500 -0.443867
O20   O     O_R   0.471220 0.110170 0.324500 -0.443866
O21   O     O_R   0.889830 0.361050 0.324500 -0.443861
O22   O     O_R   0.528780 0.638950 0.675500 -0.460132
O23   O     O_R   0.110170 0.471220 0.675500 -0.460129
O24   O     O_R   0.361050 0.889830 0.675500 -0.460126
O25   O     O_3   0.666667 0.333333 0.250560 -0.352496
O26   O     O_3   0.333333 0.666667 0.749440 -0.335843
F1    F     F_    0.640116 0.887230 0.087998 -0.574581
F2    F     F_    0.112738 0.752900 0.087995 -0.574567
F3    F     F_    0.247108 0.359866 0.087996 -0.574585
F4    F     F_    0.134596 0.779254 0.946583 -0.591534
F5    F     F_    0.644624 0.865380 0.946586 -0.591564
F6    F     F_    0.220755 0.355341 0.946584 -0.591574
F7    F     F_    0.331498 0.086824 0.438836 -0.582496
F8    F     F_    0.913173 0.244673 0.438836 -0.582483
F9    F     F_    0.755328 0.668505 0.438836 -0.582492
F10   F     F_    0.935996 0.263803 0.583225 -0.510166
F11   F     F_    0.327810 0.064006 0.583226 -0.510161
F12   F     F_    0.736198 0.672196 0.583225 -0.510163
F13   F     F_    0.800323 0.953225 0.561496 -0.433561
F14   F     F_    0.046788 0.847101 0.561500 -0.433561
F15   F     F_    0.152901 0.199675 0.561503 -0.433558
F16   F     F_    0.202656 0.770042 0.420461 -0.609856
F17   F     F_    0.567372 0.797337 0.420467 -0.609861
F18   F     F_    0.229955 0.432600 0.420461 -0.609850

loop_
_geom_bond_atom_site_label_1
_geom_bond_atom_site_label_2
_ccdc_geom_bond_type
C59   F11   S    
C45   C60   A    
Cr3   O25   S    
C55   C59   A    
C3    O1    A    
Cr6   O18   S    
C9    C51   S    
Cr5   O17   S    
C10   C52   S    
C14   O15   A    
Cr6   O6    S    
C5    C20   S    
Cr5   O5    S    
C6    C19   S    
Cr2   O2    S    
C7    H13   S    
C22   C32   A    
C23   C29   A    
Cr6   O12   S    
Cr1   O19   S    
C17   O23   A    
C41   H11   S    
C45   C51   A    
C46   C52   A    
C33   C36   A    
C6    O4    A    
C12   H18   S    
C13   O14   A    
Cr3   O15   S    
C25   C37   S    
Cr2   O14   S    
Cr4   O26   S    
C44   C58   A    
Cr2   O8    S    
C50   C52   A    
C35   F5    S    
C39   H9    S    
C13   O19   A    
C5    O6    A    
C11   C53   S    
C43   C59   A    
C41   H5    S    
Cr3   O3    S    
C33   F3    S    
C21   C27   A    
Cr1   O25   S    
C1    O7    A    
C22   C28   A    
C27   C30   A    
C18   O16   A    
C7    F13   S    
C15   O13   A    
C42   H6    S    
C5    O11   A    
C7    C11   S    
C39   C42   S    
Cr2   O20   S    
Cr5   O23   S    
C25   C29   A    
Cr1   O13   S    
C48   C57   A    
C7    C49   S    
C27   C39   S    
C21   C36   A    
C43   C49   A    
C57   C60   A    
C11   H17   S    
C10   H16   S    
C9    F15   S    
C40   H10   S    
C23   C31   A    
C48   C54   A    
C11   F17   S    
C17   O18   A    
C28   C40   S    
C14   O20   A    
Cr5   O11   S    
C58   F10   S    
C39   H3    S    
C2    O3    A    
C3    O9    A    
Cr6   O26   S    
C2    O8    A    
Cr1   O1    S    
C4    O10   A    
C55   F7    S    
C38   H2    S    
C42   H12   S    
C6    O12   A    
C31   C35   A    
C24   C30   A    
Cr3   O21   S    
C36   F6    S    
C8    C50   S    
C47   C55   A    
C4    O5    A    
C38   H8    S    
C44   C50   A    
C1    O2    A    
C9    H15   S    
C37   H7    S    
C32   F2    S    
C29   C41   S    
C56   F8    S    
C8    F14   S    
Cr6   O24   S    
C16   C45   S    
C13   C48   S    
Cr4   O22   S    
C14   C47   S    
C12   F18   S    
C16   O22   A    
C34   F4    S    
Cr3   O9    S    
C40   H4    S    
C26   C28   A    
C24   C33   A    
C57   F9    S    
C51   C54   A    
C26   C38   S    
C15   O21   A    
C17   C44   S    
Cr4   O10   S    
C19   C35   A    
C18   C43   S    
C38   C40   S    
C4    C21   S    
Cr2   O25   S    
C20   C26   A    
C49   C53   A    
C47   C53   A    
C37   H1    S    
C56   C58   A    
C37   C41   S    
C19   C25   A    
C9    C12   S    
C18   O24   A    
Cr5   O26   S    
C20   C34   A    
C60   F12   S    
C16   O17   A    
Cr4   O16   S    
C1    C24   S    
C8    C10   S    
C46   C56   A    
C2    C23   S    
C8    H14   S    
C31   F1    S    
C30   C42   S    
C3    C22   S    
C15   C46   S    
C10   F16   S    
Cr4   O4    S    
C12   C54   S    
Cr1   O7    S    
C32   C34   A    
