data_mof_unit_44967.cif
_audit_creation_date              2012-12-10T17:05:20-0500
_audit_creation_method            fapswitch 2.2
_symmetry_space_group_name_H-M    P1
_symmetry_Int_Tables_number       1
_space_group_crystal_system       triclinic
_cell_length_a                    10.035836
_cell_length_b                    10.750759
_cell_length_c                    15.549279
_cell_angle_alpha                 90.016278
_cell_angle_beta                  67.106468
_cell_angle_gamma                 90.027587
_cell_volume                      1545.50580508

loop_
_atom_site_label
_atom_site_type_symbol
_atom_type_description
_atom_site_fract_x
_atom_site_fract_y
_atom_site_fract_z
_atom_type_partial_charge
C1    C     C_R   0.499027 0.737290 0.501912 0.944763
C2    C     C_R   0.713240 0.411803 0.039045 0.153389
C3    C     C_R   0.578621 0.469237 0.090514 0.117577
C4    C     C_R   0.408367 0.497890 0.676494 0.894956
C5    C     C_R   0.813534 0.391988 0.080387 -0.184812
C6    C     C_R   0.778931 0.425681 0.173272 -0.129057
C7    C     C_R   0.555037 0.515558 0.179011 -0.250394
C8    C     C_2   0.611953 0.066969 0.500809 -0.157030
C9    C     C_2   0.506852 0.131247 0.488660 -0.331999
C10   C     C_2   0.615043 0.933097 0.495337 -0.154121
C11   C     C_2   0.494258 0.868846 0.510160 -0.328072
C12   C     C_R   0.406125 0.470556 0.917275 0.018034
C13   C     C_2   0.113552 0.446833 0.435569 -0.130322
C14   C     C_2   0.965527 0.453977 0.432542 -0.147911
C15   C     C_R   0.501354 0.262719 0.497822 0.926804
C16   C     C_R   0.590989 0.499597 0.324001 0.866577
C17   C     C_R   0.348633 0.491624 0.779157 -0.175456
C18   C     C_R   0.647746 0.485826 0.222942 -0.074909
C19   C     C_R   0.163138 0.530501 0.932365 -0.164318
C20   C     C_R   0.202679 0.517923 0.836425 0.394983
C21   C     C_R   0.446213 0.465229 0.820704 -0.288036
C22   C     C_R   0.263473 0.509219 0.973455 0.028503
C23   C     C_R   0.507734 0.446230 0.958090 0.084471
C24   C     C_R   0.471131 0.477844 0.052769 0.026325
C25   C     C_R   0.326766 0.511934 0.108083 -0.340990
C26   C     C_R   0.223080 0.526864 0.069473 0.439029
C27   C     C_R   0.643956 0.389897 0.907834 -0.197024
C28   C     C_R   0.744071 0.372136 0.948194 -0.203635
H1    H     H_    0.915467 0.345640 0.042299 0.144151
H2    H     H_    0.851499 0.400958 0.206969 0.165809
H3    H     H_    0.846000 0.326929 0.908079 0.150987
H4    H     H_    0.052862 0.557328 0.974504 0.217923
H5    H     H_    0.556871 0.447252 0.775612 0.179354
H6    H     H_    0.289869 0.523056 0.182637 0.139189
H7    H     H_    0.072108 0.570545 0.189911 0.330976
H8    H     H_    0.953060 0.417023 0.371166 0.154907
H9    H     H_    0.103487 0.467177 0.758988 0.339981
H10   H     H_    0.674171 0.353094 0.838317 0.142370
H11   H     H_    0.698578 0.112631 0.514236 0.176255
H12   H     H_    0.424519 0.088592 0.469399 0.152597
H13   H     H_    0.718288 0.887347 0.480100 0.176832
H14   H     H_    0.388534 0.911557 0.530933 0.153885
H15   H     H_    0.196444 0.396707 0.379615 0.164457
H16   H     H_    0.072562 0.552017 0.549074 0.169696
H17   H     H_    0.862078 0.527204 0.559353 0.171102
H18   H     H_    0.461909 0.572129 0.217046 0.157455
N1    N     N_2   0.148330 0.498670 0.499030 -0.189322
N2    N     N_2   0.852680 0.498640 0.499000 -0.189779
O1    O     O_R   0.386950 0.680940 0.500010 -0.607677
O2    O     O_3   0.097628 0.537271 0.801610 -0.759980
O3    O     O_R   0.613110 0.680900 0.499990 -0.606089
O4    O     O_R   0.322330 0.500030 0.632270 -0.602243
O5    O     O_R   0.548480 0.499990 0.632240 -0.617726
O6    O     O_R   0.386890 0.319100 0.500010 -0.613910
O7    O     O_R   0.613050 0.319060 0.499990 -0.610533
O8    O     O_R   0.451520 0.500010 0.367760 -0.615271
O9    O     O_R   0.677670 0.499970 0.367730 -0.612258
O10   O     O_3   0.082850 0.561858 0.124044 -0.793509
Zn1   Zn    Zn3+2 0.349000 0.500030 0.500020 0.950599
Zn2   Zn    Zn3+2 0.651000 0.499970 0.499980 0.942446

loop_
_geom_bond_atom_site_label_1
_geom_bond_atom_site_label_2
_ccdc_geom_bond_type
C20   O2    S    
C23   C24   A    
C16   O8    A    
O4    Zn1   S    
C23   C27   A    
C4    O5    A    
H16   N1    S    
C26   O10   S    
C3    C7    A    
C19   C20   A    
O1    Zn1   S    
O8    Zn1   S    
C25   H6    S    
C16   O9    A    
C7    C18   A    
C17   C20   A    
C2    C3    A    
C9    C15   S    
C13   C14   S    
C10   H13   S    
H9    O2    S    
C1    O3    A    
C12   C23   A    
C3    C24   A    
C4    O4    A    
H7    O10   S    
C4    C17   S    
C8    C10   S    
C8    H11   S    
O5    Zn2   S    
N2    Zn2   S    
C5    H1    S    
O6    Zn1   S    
C28   H3    S    
C14   H8    S    
C5    C6    A    
C6    C18   A    
C2    C5    A    
C21   H5    S    
C10   C11   D    
C19   H4    S    
C27   H10   S    
N1    Zn1   S    
C7    H18   S    
C12   C22   A    
C13   H15   S    
C19   C22   A    
C24   C25   A    
C11   H14   S    
C16   C18   S    
C15   O6    A    
C22   C26   A    
H17   N2    S    
C27   C28   A    
C13   N1    D    
C14   N2    D    
O9    Zn2   S    
C2    C28   A    
O3    Zn2   S    
C6    H2    S    
C25   C26   A    
O7    Zn2   S    
C1    O1    A    
C12   C21   A    
C9    H12   S    
C17   C21   A    
C15   O7    A    
C8    C9    D    
C1    C11   S    
