data_mof_unit_64921.cif
_audit_creation_date              2012-12-10T19:35:25-0500
_audit_creation_method            fapswitch 2.2
_symmetry_space_group_name_H-M    P1
_symmetry_Int_Tables_number       1
_space_group_crystal_system       triclinic
_cell_length_a                    13.389068
_cell_length_b                    15.872019
_cell_length_c                    17.049537
_cell_angle_alpha                 84.533885
_cell_angle_beta                  89.835723
_cell_angle_gamma                 110.510715
_cell_volume                      3375.55046778

loop_
_atom_site_label
_atom_site_type_symbol
_atom_type_description
_atom_site_fract_x
_atom_site_fract_y
_atom_site_fract_z
_atom_type_partial_charge
C1    C     C_R   0.503253 0.510590 0.348848 0.933628
C2    C     C_R   0.975607 0.532972 0.492501 -0.056479
C3    C     C_R   0.871048 0.512742 0.523951 -0.118481
C4    C     C_R   0.021547 0.464869 0.502627 0.043513
C5    C     C_R   0.956544 0.373561 0.524391 -0.140355
C6    C     C_R   0.856747 0.356485 0.563361 0.256487
C7    C     C_R   0.820671 0.428804 0.569702 0.358687
C8    C     C_R   0.131953 0.486859 0.500573 -0.135010
C9    C     C_R   0.110726 0.329102 0.501279 0.336700
C10   C     C_R   0.821245 0.578072 0.510892 -0.183883
C11   C     C_R   0.515732 0.517617 0.263169 -0.269269
C12   C     C_R   0.703326 0.548311 0.504620 0.913724
C13   C     C_R   0.599972 0.497770 0.229235 0.167919
C14   C     C_R   0.609540 0.500190 0.147258 0.227729
C15   C     C_R   0.536558 0.523293 0.099098 0.134813
C16   C     C_R   0.456956 0.550133 0.132872 0.338696
C17   C     C_R   0.445254 0.545180 0.215116 0.161116
C18   C     C_R   0.553016 0.566492 0.854185 0.235159
C19   C     C_R   0.565897 0.561529 0.773394 0.176807
C20   C     C_R   0.477092 0.493046 0.900600 0.141596
C21   C     C_R   0.497109 0.487347 0.737456 -0.260238
C22   C     C_R   0.419112 0.415825 0.783335 0.277210
C23   C     C_R   0.499629 0.490275 0.651317 0.958371
C24   C     C_R   0.410210 0.418691 0.864837 0.220652
C25   C     C_R   0.560278 0.265896 0.465640 0.020928
C26   C     C_R   0.556752 0.176691 0.462393 0.152469
C27   C     C_R   0.475601 0.104237 0.506442 0.231608
C28   C     C_R   0.400490 0.126425 0.550674 0.275008
C29   C     C_R   0.408502 0.217000 0.552140 0.077920
C30   C     C_R   0.462016 0.830450 0.547581 0.165810
C31   C     C_R   0.453145 0.739186 0.544439 0.434561
C32   C     C_R   0.527571 0.898206 0.491069 0.207365
C33   C     C_R   0.578807 0.781452 0.436560 0.512335
C34   C     C_R   0.296068 0.451089 0.500868 0.890636
C35   C     C_R   0.586505 0.872219 0.436455 -0.275866
C36   C     C_R   0.999632 0.305394 0.513383 0.409413
C37   C     C_R   0.178175 0.420619 0.501354 -0.208957
C38   C     C_R   0.886314 0.669464 0.490779 0.202848
C39   C     C_R   0.989126 0.689618 0.458224 0.353288
C40   C     C_R   0.029122 0.619984 0.451357 0.290941
Cu1   Cu    Cu3+1 0.505120 0.585970 0.496130 1.122429
Cu2   Cu    Cu3+1 0.494880 0.414030 0.503870 1.074783
H1    H     H_    0.350351 0.232994 0.586095 0.222141
H2    H     H_    0.639609 0.923172 0.393650 0.247023
H3    H     H_    0.620800 0.320491 0.430817 0.200455
H4    H     H_    0.182672 0.556434 0.503008 0.235896
N1    N     N_2   0.549055 0.522211 0.016787 -0.107604
N2    N     N_2   0.463281 0.492769 0.983010 -0.094487
N3    N     N_R   0.487180 0.284900 0.509690 -0.228031
N4    N     N_2   0.461408 0.010029 0.504899 -0.094008
N5    N     N_2   0.543702 0.992789 0.490868 -0.095547
N6    N     N_R   0.512820 0.715120 0.490310 -0.262563
O1    O     O_R   0.504790 0.580580 0.382450 -0.521441
O2    O     O_R   0.496140 0.435390 0.388990 -0.571212
O3    O     O_R   0.657420 0.608020 0.495150 -0.530245
O4    O     O_R   0.648770 0.462830 0.501690 -0.577844
O5    O     O_R   0.503860 0.564610 0.611010 -0.537561
O6    O     O_R   0.495210 0.419420 0.617550 -0.527347
O7    O     O_R   0.351230 0.537170 0.498310 -0.552268
O8    O     O_R   0.342580 0.391980 0.504850 -0.550527
Cl1   Cl    Cl    0.161791 0.242687 0.486391 -0.422728
Br1   Br    Br    0.632134 0.677898 0.897859 -0.182300
Cl2   Cl    Cl    0.375877 0.595258 0.073357 -0.345879
Br2   Br    Br    0.330217 0.572997 0.261618 -0.229518
Cl3   Cl    Cl    0.327757 0.324802 0.738924 -0.446669
Br3   Br    Br    0.721889 0.470492 0.099278 -0.192938
Br4   Br    Br    0.305067 0.321097 0.928885 -0.176289
Br5   Br    Br    0.705837 0.471855 0.294193 -0.360465
Cl4   Cl    Cl    0.362244 0.657367 0.612545 -0.481852
Br6   Br    Br    0.393487 0.861101 0.634810 -0.166710
Cl5   Cl    Cl    0.293500 0.041793 0.603811 -0.336958
Br7   Br    Br    0.779696 0.243009 0.625083 -0.227235
Cl6   Cl    Cl    0.657509 0.757468 0.365535 -0.437757
Br8   Br    Br    0.659068 0.161175 0.391199 -0.277300
Cl7   Cl    Cl    0.916722 0.192940 0.502059 -0.340450
Br9   Br    Br    0.840283 0.768135 0.510721 -0.200516
Cl8   Cl    Cl    0.135948 0.641445 0.381635 -0.420093
Cl9   Cl    Cl    0.066075 0.801881 0.421496 -0.317295
Cl10  Cl    Cl    0.728789 0.420390 0.647917 -0.491786
Br10  Br    Br    0.680681 0.655636 0.712835 -0.256706

loop_
_geom_bond_atom_site_label_1
_geom_bond_atom_site_label_2
_ccdc_geom_bond_type
C23   O6    A    
C34   C37   S    
Cu1   Cu2   S    
C1    C11   S    
C15   N1    S    
C31   N6    A    
C4    C8    A    
Cu2   O6    S    
C32   N5    S    
C29   N3    A    
C33   N6    A    
C6    Br7   S    
C26   C27   A    
C9    Cl1   S    
C28   C29   A    
C19   C21   A    
C3    C7    A    
C17   Br2   S    
C38   C39   A    
C33   C35   A    
C15   C16   A    
C5    C36   A    
C18   C19   A    
C1    O1    A    
Cu1   O3    S    
C24   Br4   S    
Cu2   O4    S    
C20   C24   A    
C16   C17   A    
C9    C36   A    
C16   Cl2   S    
Cu1   N6    S    
C27   N4    S    
C21   C22   A    
C29   H1    S    
C34   O8    A    
C30   Br6   S    
C25   N3    A    
C39   Cl9   S    
Cu1   O7    S    
Cu2   O8    S    
C39   C40   A    
C18   Br1   S    
C38   Br9   S    
C25   C26   A    
C2    C4    A    
C1    O2    A    
C32   C35   A    
C22   Cl3   S    
C36   Cl7   S    
N1    N2    D    
C30   C31   A    
C9    C37   A    
N4    N5    D    
C14   Br3   S    
C20   N2    S    
C35   H2    S    
Cu1   O1    S    
C12   O4    A    
C10   C12   S    
C33   Cl6   S    
C21   C23   S    
C34   O7    A    
C22   C24   A    
C28   Cl5   S    
C8    C37   A    
C25   H3    S    
C7    Cl10  S    
C23   O5    A    
C11   C17   A    
C14   C15   A    
C4    C5    A    
C6    C7    A    
C10   C38   A    
C2    C3    A    
Cu1   O5    S    
C3    C10   A    
Cu2   O2    S    
C30   C32   A    
C11   C13   A    
C5    C6    A    
C26   Br8   S    
C18   C20   A    
C19   Br10  S    
C8    H4    S    
C12   O3    A    
Cu2   N3    S    
C2    C40   A    
C31   Cl4   S    
C27   C28   A    
C40   Cl8   S    
C13   C14   A    
C13   Br5   S    
