data_mof_unit_24757.cif
_audit_creation_date              2012-12-10T18:05:15-0500
_audit_creation_method            fapswitch 2.2
_symmetry_space_group_name_H-M    P1
_symmetry_Int_Tables_number       1
_space_group_crystal_system       triclinic
_cell_length_a                    9.670033
_cell_length_b                    10.817292
_cell_length_c                    17.012921
_cell_angle_alpha                 86.647726
_cell_angle_beta                  93.587842
_cell_angle_gamma                 89.833413
_cell_volume                      1773.04662642

loop_
_atom_site_label
_atom_site_type_symbol
_atom_type_description
_atom_site_fract_x
_atom_site_fract_y
_atom_site_fract_z
_atom_type_partial_charge
C1    C     C_R   0.500247 0.262751 0.499150 0.819532
C2    C     C_R   0.066920 0.577314 0.448424 0.237347
C3    C     C_R   0.516905 0.501835 0.650723 0.831824
C4    C     C_R   0.483066 0.499088 0.349275 0.830581
C5    C     C_R   0.524924 0.513972 0.736522 -0.118154
C6    C     C_R   0.474589 0.492102 0.263156 -0.111219
C7    C     C_R   0.404648 0.539538 0.774760 -0.289639
C8    C     C_R   0.592032 0.459493 0.224607 -0.277429
C9    C     C_R   0.410035 0.550789 0.856197 0.108422
C10   C     C_R   0.585215 0.451476 0.142728 0.098435
C11   C     C_R   0.538226 0.535760 0.900578 0.267887
C12   C     C_R   0.499772 0.737228 0.500883 0.816320
C13   C     C_R   0.460033 0.482898 0.098508 0.285706
C14   C     C_R   0.660487 0.521341 0.861319 0.409332
C15   C     C_R   0.341026 0.512862 0.136716 0.419801
C16   C     C_R   0.652702 0.506451 0.780219 -0.304716
C17   C     C_R   0.348516 0.513628 0.219392 -0.344786
C18   C     C_R   0.394564 0.062953 0.533737 -0.285427
C19   C     C_R   0.605630 0.936948 0.466427 -0.287823
C20   C     C_3   0.837853 0.630171 0.919117 0.091192
C21   C     C_3   0.907365 0.691285 0.848192 -0.392744
C22   C     C_3   0.976347 0.812772 0.869092 -0.912434
C23   C     C_R   0.392963 0.934437 0.536010 0.159910
C24   C     C_3   0.143547 0.637377 0.111483 0.063428
C25   C     C_3   0.006758 0.597888 0.145830 -0.358115
C26   C     C_3   0.918763 0.709452 0.162565 -0.895999
C27   C     C_R   0.607307 0.065472 0.464233 0.161045
C28   C     C_R   0.499022 0.871207 0.501582 -0.046446
C29   C     C_R   0.501100 0.128728 0.498536 -0.046318
C30   C     C_R   0.079394 0.426207 0.553585 0.229833
C31   C     C_R   0.920590 0.573163 0.446087 0.231917
C32   C     C_R   0.933069 0.423803 0.552251 0.234105
Cu1   Cu    Cu3+1 0.640660 0.500020 0.500000 0.930178
Cu2   Cu    Cu3+1 0.359340 0.499980 0.500000 0.931981
H1    H     H_    0.688310 0.436760 0.258362 0.166095
H2    H     H_    0.248028 0.665154 0.867003 0.214029
H3    H     H_    0.916936 0.618441 0.969063 0.184392
H4    H     H_    0.755901 0.692134 0.938732 0.131075
H5    H     H_    0.986525 0.627284 0.828456 0.225663
H6    H     H_    0.828844 0.711033 0.798535 0.217768
H7    H     H_    0.897915 0.879156 0.886919 0.261944
H8    H     H_    0.026500 0.854203 0.816904 0.260025
H9    H     H_    0.056746 0.796347 0.918137 0.252052
H10   H     H_    0.119741 0.695142 0.056138 0.160879
H11   H     H_    0.202992 0.698240 0.152036 0.123251
H12   H     H_    0.305930 0.552534 0.741649 0.167303
H13   H     H_    0.947791 0.541341 0.103109 0.248353
H14   H     H_    0.027077 0.539877 0.201375 0.213176
H15   H     H_    0.974529 0.765934 0.206752 0.266491
H16   H     H_    0.820007 0.677112 0.186460 0.266707
H17   H     H_    0.894356 0.767576 0.107398 0.248878
H18   H     H_    0.289642 0.893768 0.633848 0.214250
H19   H     H_    0.190375 0.897809 0.548293 0.216219
H20   H     H_    0.711490 0.106025 0.366700 0.213537
H21   H     H_    0.810019 0.102193 0.452530 0.217918
H22   H     H_    0.188297 0.414254 0.659737 0.231107
H23   H     H_    0.747513 0.490652 0.751749 0.172479
H24   H     H_    0.230338 0.302025 0.597615 0.251646
H25   H     H_    0.812890 0.582983 0.339590 0.231708
H26   H     H_    0.768545 0.695419 0.401024 0.252026
H27   H     H_    0.815197 0.270846 0.578327 0.254839
H28   H     H_    0.823107 0.380008 0.649472 0.240837
H29   H     H_    0.177460 0.736172 0.428814 0.251898
H30   H     H_    0.184908 0.631165 0.355982 0.239260
H31   H     H_    0.256178 0.531513 0.249363 0.163065
H32   H     H_    0.313408 0.110882 0.560989 0.151886
H33   H     H_    0.686805 0.888944 0.439194 0.151991
H34   H     H_    0.674853 0.325470 0.079137 0.234760
H35   H     H_    0.785099 0.386210 0.145736 0.205716
H36   H     H_    0.212808 0.512793 0.881661 0.237887
N1    N     N_2   0.548384 0.535674 0.984027 -0.201192
N2    N     N_3   0.848379 0.642968 0.382057 -0.576472
N3    N     N_3   0.874637 0.336348 0.607081 -0.570765
N4    N     N_3   0.125225 0.669721 0.396817 -0.579454
N5    N     N_2   0.449685 0.482641 0.015266 -0.166803
N6    N     N_R   0.852070 0.500030 0.499980 -0.229073
N7    N     N_R   0.147930 0.499970 0.500020 -0.228685
N8    N     N_3   0.702987 0.408334 0.104336 -0.543374
N9    N     N_3   0.286314 0.581140 0.893253 -0.534814
N10   N     N_3   0.286025 0.868788 0.575304 -0.576840
N11   N     N_3   0.714559 0.131104 0.425214 -0.575183
N12   N     N_3   0.151652 0.355222 0.617054 -0.571220
O1    O     O_R   0.618740 0.319660 0.500000 -0.560828
O2    O     O_3   0.216971 0.531153 0.091547 -0.585810
O3    O     O_R   0.381260 0.680340 0.500000 -0.561216
O4    O     O_R   0.381170 0.319630 0.500010 -0.601368
O5    O     O_R   0.618830 0.680370 0.499990 -0.602446
O6    O     O_R   0.631780 0.498870 0.613920 -0.595895
O7    O     O_R   0.368220 0.501130 0.386080 -0.592624
O8    O     O_R   0.394210 0.498840 0.613930 -0.590176
O9    O     O_R   0.605790 0.501160 0.386070 -0.592425
O10   O     O_3   0.788081 0.510807 0.902743 -0.591972

loop_
_geom_bond_atom_site_label_1
_geom_bond_atom_site_label_2
_ccdc_geom_bond_type
N1    N5    D    
C27   C29   A    
C26   H16   S    
C10   N8    S    
C20   O10   S    
C12   O3    A    
C12   C28   S    
C3    O8    A    
C24   H11   S    
Cu1   O6    S    
Cu1   O9    S    
Cu2   N7    S    
C9    N9    S    
C11   C14   A    
C11   N1    S    
C22   H7    S    
H26   N2    S    
Cu1   O1    S    
C7    C9    A    
Cu2   O4    S    
C5    C16   A    
C30   N7    A    
C13   N5    S    
H28   N3    S    
C19   H33   S    
C23   N10   S    
H21   N11   S    
C19   C27   A    
C25   H13   S    
C2    N4    S    
H25   N2    S    
C4    O9    A    
C3    O6    A    
C21   C22   S    
H35   N8    S    
H34   N8    S    
C18   C23   A    
C7    H12   S    
C27   N11   S    
H19   N10   S    
C24   C25   S    
C4    C6    S    
C26   H15   S    
C32   N3    S    
C5    C7    A    
C6    C8    A    
H27   N3    S    
C25   C26   S    
H2    N9    S    
C2    C31   A    
C8    H1    S    
C30   N12   S    
Cu2   O8    S    
C20   H4    S    
Cu1   N6    S    
C22   H9    S    
C21   H5    S    
C1    C29   S    
Cu1   Cu2   S    
C18   C29   A    
C23   C28   A    
C19   C28   A    
C9    C11   A    
C25   H14   S    
C14   O10   S    
C31   N2    S    
C13   C15   A    
C24   H10   S    
C14   C16   A    
C1    O1    A    
C4    O7    A    
C1    O4    A    
C15   C17   A    
C6    C17   A    
C12   O5    A    
H36   N9    S    
C3    C5    S    
C10   C13   A    
C32   N6    A    
H22   N12   S    
C15   O2    S    
H29   N4    S    
C18   H32   S    
C17   H31   S    
H24   N12   S    
Cu1   O5    S    
Cu2   O7    S    
C2    N7    A    
C26   H17   S    
C30   C32   A    
C20   H3    S    
C31   N6    A    
C22   H8    S    
C21   H6    S    
C16   H23   S    
C24   O2    S    
C20   C21   S    
C8    C10   A    
H30   N4    S    
H18   N10   S    
Cu2   O3    S    
H20   N11   S    
