data_mof_unit_24445.cif
_audit_creation_date              2012-12-11T17:43:56-0500
_audit_creation_method            fapswitch 2.2
_symmetry_space_group_name_H-M    P1
_symmetry_Int_Tables_number       1
_space_group_crystal_system       triclinic
_cell_length_a                    20.249681
_cell_length_b                    22.735102
_cell_length_c                    6.944764
_cell_angle_alpha                 90.000355
_cell_angle_beta                  86.953422
_cell_angle_gamma                 90.000092
_cell_volume                      3192.70170727

loop_
_atom_site_label
_atom_site_type_symbol
_atom_type_description
_atom_site_fract_x
_atom_site_fract_y
_atom_site_fract_z
_atom_type_partial_charge
O1    O     O_R   0.751270 0.447300 0.600030 -0.539542
O2    O     O_R   0.248730 0.947300 0.399970 -0.539545
O3    O     O_R   0.613530 0.440160 0.952150 -0.537185
O4    O     O_R   0.386470 0.940160 0.047850 -0.537185
O5    O     O_R   0.613050 0.552700 0.122560 -0.535147
O6    O     O_R   0.386950 0.052700 0.877440 -0.535149
C1    C     C_R   0.591598 0.425402 0.786895 0.699657
C2    C     C_R   0.408402 0.925402 0.213103 0.699657
O7    O     O_R   0.750780 0.440350 0.929820 -0.545016
O8    O     O_R   0.249220 0.940350 0.070180 -0.545013
O9    O     O_R   0.751280 0.552900 0.100070 -0.541804
O10   O     O_R   0.248720 0.052900 0.899930 -0.541797
C3    C     C_R   0.773714 0.426012 0.757667 0.706847
C4    C     C_R   0.226286 0.926011 0.242333 0.706846
O11   O     O_R   0.613040 0.447100 0.622520 -0.535325
O12   O     O_R   0.386960 0.947100 0.377480 -0.535325
O13   O     O_3   0.682160 0.536920 0.777780 -0.368128
O14   O     O_3   0.317840 0.036920 0.222220 -0.368127
V1    V     V_3+5 0.682160 0.493150 0.052630 1.416753
V2    V     V_3+5 0.317840 0.993150 0.947370 1.416757
O15   O     O_R   0.750790 0.559840 0.429870 -0.544260
O16   O     O_R   0.249210 0.059840 0.570130 -0.544255
C5    C     C_R   0.773626 0.574320 0.257596 0.688689
C6    C     C_R   0.226375 0.074320 0.742404 0.688680
O17   O     O_R   0.613540 0.559650 0.452200 -0.535629
O18   O     O_R   0.386460 0.059650 0.547800 -0.535628
C7    C     C_R   0.591655 0.574425 0.286927 0.692862
C8    C     C_R   0.408345 0.074425 0.713074 0.692860
V3    V     V_3+5 0.682160 0.506850 0.552630 1.419071
V4    V     V_3+5 0.317840 0.006850 0.447370 1.419072
O19   O     O_3   0.682150 0.463080 0.277610 -0.366828
O20   O     O_3   0.317850 0.963080 0.722390 -0.366830
C9    C     C_R   0.579108 0.860254 0.159686 -0.158052
C10   C     C_R   0.420887 0.360259 0.840204 -0.158048
H1    H     H_    0.537830 0.946718 0.139556 0.107497
H2    H     H_    0.462165 0.446723 0.860332 0.107496
H3    H     H_    0.670007 0.776377 0.149754 0.128376
H4    H     H_    0.329986 0.276384 0.850080 0.128379
H5    H     H_    0.628906 0.875977 0.125793 0.115076
H6    H     H_    0.371087 0.375984 0.874043 0.115079
C11   C     C_R   0.462634 0.882095 0.211896 -0.041345
C12   C     C_R   0.537366 0.382095 0.788094 -0.041341
C13   C     C_R   0.472812 0.595772 0.330983 -0.167107
C14   C     C_R   0.527191 0.095769 0.669098 -0.167113
C15   C     C_R   0.418905 0.633683 0.340757 -0.116650
C16   C     C_R   0.581099 0.133678 0.659357 -0.116653
C17   C     C_R   0.427509 0.693827 0.309897 -0.154472
C18   C     C_R   0.572494 0.193824 0.690188 -0.154473
C19   C     C_R   0.491058 0.717921 0.267547 0.076828
C20   C     C_R   0.508942 0.217920 0.732471 0.076828
C21   C     C_R   0.546345 0.678480 0.255900 0.068281
C22   C     C_R   0.453654 0.178481 0.744077 0.068282
C23   C     C_R   0.501552 0.779722 0.236677 0.074055
C24   C     C_R   0.498447 0.279723 0.763314 0.074056
C25   C     C_R   0.566987 0.800216 0.193190 0.138317
C26   C     C_R   0.433010 0.300219 0.806733 0.138316
C27   C     C_R   0.620076 0.760799 0.182585 -0.198374
C28   C     C_R   0.379920 0.260804 0.817300 -0.198374
C29   C     C_R   0.610072 0.701014 0.213739 -0.192495
C30   C     C_R   0.389925 0.201018 0.786174 -0.192492
C31   C     C_R   0.449685 0.822135 0.246576 -0.213776
C32   C     C_R   0.550317 0.322134 0.753451 -0.213774
C33   C     C_R   0.527365 0.900692 0.167884 -0.171447
C34   C     C_R   0.472631 0.400696 0.832037 -0.171452
C35   C     C_R   0.536601 0.617204 0.288396 -0.085898
C36   C     C_R   0.463399 0.117204 0.711614 -0.085891
H7    H     H_    0.398803 0.810151 0.278621 0.094943
H8    H     H_    0.601200 0.310147 0.721454 0.094938
H9    H     H_    0.464742 0.549264 0.357208 0.106359
H10   H     H_    0.535261 0.049259 0.642903 0.106357
H11   H     H_    0.383321 0.720225 0.320407 0.110884
H12   H     H_    0.616683 0.220220 0.679710 0.110881
H13   H     H_    0.369809 0.616296 0.373479 0.122095
H14   H     H_    0.630197 0.116289 0.626690 0.122091
H15   H     H_    0.652923 0.672462 0.204111 0.111779
H16   H     H_    0.347072 0.172466 0.795771 0.111766
C37   C     C_R   0.171834 0.881947 0.258946 -0.110975
C38   C     C_R   0.828169 0.381950 0.741052 -0.110970
C39   C     C_R   0.156873 0.846919 0.100099 -0.187714
C40   C     C_R   0.843134 0.346925 0.899905 -0.187722
C41   C     C_R   0.105713 0.805154 0.113159 0.192936
C42   C     C_R   0.894297 0.305164 0.886846 0.192933
C43   C     C_R   0.066732 0.798842 0.289278 0.373339
C44   C     C_R   0.933279 0.298853 0.710719 0.373330
C45   C     C_R   0.082756 0.833435 0.447376 -0.194551
C46   C     C_R   0.917251 0.333444 0.552616 -0.194542
C47   C     C_R   0.134431 0.874322 0.433203 -0.194854
C48   C     C_R   0.865572 0.374327 0.566789 -0.194842
C49   C     C_R   0.910679 0.680153 0.385657 -0.142764
C50   C     C_R   0.089197 0.180026 0.614379 -0.142788
C51   C     C_R   0.859331 0.638773 0.403362 -0.217190
C52   C     C_R   0.140543 0.138644 0.596675 -0.217183
C53   C     C_R   0.931564 0.702692 0.202845 0.425389
C54   C     C_R   0.068446 0.202699 0.797149 0.425389
N1    N     N_2   0.014536 0.756773 0.319972 -0.307242
N2    N     N_2   0.985480 0.256790 0.680019 -0.307254
N3    N     N_2   0.983447 0.745003 0.174230 -0.317219
N4    N     N_2   0.016558 0.245005 0.825772 -0.317206
C55   C     C_R   0.827789 0.618709 0.239660 -0.046300
C56   C     C_R   0.172215 0.118711 0.760338 -0.046258
H17   H     H_    0.844623 0.622272 0.545515 0.132086
H18   H     H_    0.155140 0.122032 0.454560 0.132078
H19   H     H_    0.933670 0.694409 0.514912 0.133953
H20   H     H_    0.066095 0.194168 0.485154 0.133996
H21   H     H_    0.054422 0.828941 0.583109 0.140228
H22   H     H_    0.945585 0.328951 0.416878 0.140232
H23   H     H_    0.144647 0.900379 0.558748 0.144150
H24   H     H_    0.855354 0.400382 0.441239 0.144151
C57   C     C_R   0.848698 0.641472 0.058076 -0.200827
C58   C     C_R   0.151439 0.141604 0.941877 -0.200880
C59   C     C_R   0.899691 0.683004 0.040602 -0.188369
C60   C     C_R   0.100446 0.183137 0.959348 -0.188385
H25   H     H_    0.825525 0.627372 0.928872 0.134057
H26   H     H_    0.174720 0.127611 0.071044 0.134076
H27   H     H_    0.914737 0.699839 0.899076 0.118698
H28   H     H_    0.085505 0.200076 0.100839 0.118735
H29   H     H_    0.185850 0.851118 0.965067 0.153370
H30   H     H_    0.814157 0.351123 0.034942 0.153370
N5    N     N_3   0.097179 0.768510 0.948494 -0.671075
H31   H     H_    0.098233 0.724447 0.991251 0.253655
H32   H     H_    0.051683 0.778024 0.891645 0.247307
N6    N     N_3   0.902832 0.268520 0.051521 -0.671068
H33   H     H_    0.901774 0.224455 0.008766 0.253649
H34   H     H_    0.948331 0.278036 0.108371 0.247306

loop_
_geom_bond_atom_site_label_1
_geom_bond_atom_site_label_2
_ccdc_geom_bond_type
C9    C25   A    
C5    C55   S    
C10   C26   A    
O11   V3    S    
C29   H15   S    
O13   V3    S    
C14   C36   A    
C11   C31   A    
O4    C2    A    
V1    O19   S    
C17   C19   A    
C56   C58   A    
O9    V1    S    
C20   C24   A    
C10   H6    S    
C18   H12   S    
O3    C1    A    
C57   C59   A    
C44   N2    S    
C48   H24   S    
C38   C40   A    
C1    C12   S    
C60   H28   S    
C41   N5    S    
C54   N4    S    
C28   C30   A    
C55   C57   A    
C15   H13   S    
C21   C35   A    
C4    C37   S    
C54   C60   A    
O7    C3    A    
C22   C30   A    
H4    C28   S    
C23   C31   A    
O7    V1    S    
O6    C8    A    
O8    V2    S    
C19   C21   A    
N2    N4    D    
C20   C22   A    
O3    V1    S    
O14   V4    S    
C49   C51   A    
C12   C32   A    
C52   H18   S    
C45   C47   A    
C2    O12   A    
O5    C7    A    
C49   H19   S    
C46   H22   S    
C51   H17   S    
C45   H21   S    
C10   C34   A    
C41   C43   A    
C14   C16   A    
C50   C54   A    
C40   H30   S    
C23   C25   A    
O17   V3    S    
C24   C26   A    
C9    C33   A    
C46   C48   A    
C2    C11   S    
C40   C42   A    
O8    C4    A    
C39   C41   A    
C1    O11   A    
C24   C32   A    
O15   V3    S    
C30   H16   S    
O1    C3    A    
C8    C36   S    
C7    C35   S    
C31   H7    S    
C50   C52   A    
C13   C35   A    
C43   N1    S    
O10   V2    S    
O1    V3    S    
C37   C39   A    
C47   H23   S    
C9    H5    S    
C14   H10   S    
C18   C20   A    
C13   C15   A    
C50   H20   S    
N5    H32   S    
C53   C59   A    
C43   C45   A    
O18   V4    S    
C42   C44   A    
O15   C5    A    
O16   C6    A    
C21   C29   A    
C17   H11   S    
N6    H34   S    
C53   N3    S    
C16   H14   S    
C22   C36   A    
C52   C56   A    
V2    O20   S    
C38   C48   A    
C58   H26   S    
C3    C38   S    
O16   V4    S    
C6    C56   S    
C44   C46   A    
C12   C34   A    
C59   H27   S    
N5    H31   S    
N1    N3    D    
O5    V1    S    
C57   H25   S    
O17   C7    A    
O6    V2    S    
O10   C6    A    
O18   C8    A    
C32   H8    S    
O2    V4    S    
C25   C27   A    
V3    O19   S    
V4    O20   S    
C19   C23   A    
C39   H29   S    
O9    C5    A    
O13   V1    S    
C26   C28   A    
O14   V2    S    
C49   C53   A    
O2    C4    A    
C58   C60   A    
C27   C29   A    
O4    V2    S    
C16   C18   A    
C15   C17   A    
C37   C47   A    
C13   H9    S    
C11   C33   A    
H1    C33   S    
C51   C55   A    
N6    H33   S    
H2    C34   S    
O12   V4    S    
C42   N6    S    
H3    C27   S    
