data_mof_unit_38472.cif
_audit_creation_date              2012-12-10T17:02:30-0500
_audit_creation_method            fapswitch 2.2
_symmetry_space_group_name_H-M    P1
_symmetry_Int_Tables_number       1
_space_group_crystal_system       triclinic
_cell_length_a                    10.834953
_cell_length_b                    10.988988
_cell_length_c                    10.045563
_cell_angle_alpha                 111.181152
_cell_angle_beta                  98.447456
_cell_angle_gamma                 96.501468
_cell_volume                      1085.09163554

loop_
_atom_site_label
_atom_site_type_symbol
_atom_type_description
_atom_site_fract_x
_atom_site_fract_y
_atom_site_fract_z
_atom_type_partial_charge
C1    C     C_R   0.496345 0.254764 0.440191 0.893418
C2    C     C_R   0.512249 0.746482 0.560205 0.894715
C3    C     C_2   0.502998 0.115479 0.407241 -0.382671
C4    C     C_2   0.524063 0.888397 0.594152 -0.324911
C5    C     C_2   0.524647 0.073091 0.516346 -0.134789
C6    C     C_2   0.516338 0.932658 0.485968 -0.094303
C7    C     C_2   0.515061 0.514135 0.081227 0.337824
C8    C     C_2   0.485103 0.487035 0.919953 0.415254
C9    C     C_R   0.262148 0.491813 0.497396 0.901748
C10   C     C_R   0.737467 0.504922 0.501489 0.889284
C11   C     C_R   0.182855 0.734603 0.631577 -0.139186
C12   C     C_R   0.812478 0.272417 0.319827 -0.164415
C13   C     C_R   0.149389 0.856290 0.699480 -0.211708
C14   C     C_R   0.844798 0.159817 0.224555 -0.175231
C15   C     C_R   0.025680 0.863268 0.714686 -0.195288
C16   C     C_R   0.970683 0.149157 0.229369 -0.226037
C17   C     C_R   0.932888 0.747655 0.663327 0.514130
C18   C     C_R   0.066684 0.249821 0.334456 0.511747
C19   C     C_R   0.963371 0.621821 0.579706 0.000229
C20   C     C_R   0.035495 0.375985 0.414265 0.008163
C21   C     C_R   0.091772 0.615684 0.570303 0.003607
C22   C     C_R   0.905904 0.384844 0.411416 -0.012729
C23   C     C_R   0.871360 0.504057 0.500701 -0.135812
C24   C     C_R   0.127755 0.492603 0.496520 -0.120226
Cu1   Cu    Cu3+1 0.521920 0.521810 0.644910 1.050528
Cu2   Cu    Cu3+1 0.478080 0.478190 0.355090 1.045767
H1    H     H_    0.993073 0.057893 0.157310 0.141703
H2    H     H_    0.001712 0.959784 0.767925 0.157803
H3    H     H_    0.280906 0.736401 0.623733 0.127695
H4    H     H_    0.712588 0.269373 0.316713 0.154767
H5    H     H_    0.220391 0.945622 0.741237 0.168288
H6    H     H_    0.771526 0.078104 0.150337 0.173695
H7    H     H_    0.499929 0.864531 0.372769 0.226876
H8    H     H_    0.542396 0.141571 0.629652 0.223076
H9    H     H_    0.539492 0.956743 0.707249 0.160774
H10   H     H_    0.484712 0.046601 0.294114 0.172165
H11   H     H_    0.637177 0.618438 0.921082 0.253833
H12   H     H_    0.364185 0.379078 0.079115 0.258907
N1    N     N_2   0.445130 0.445420 0.137360 -0.327687
N2    N     N_2   0.554870 0.554580 0.862640 -0.343440
O1    O     O_R   0.511700 0.332340 0.577400 -0.527581
O2    O     O_R   0.488300 0.667660 0.422600 -0.534552
O3    O     O_R   0.474680 0.295500 0.332650 -0.576925
O4    O     O_R   0.525320 0.704500 0.667350 -0.593221
O5    O     O_R   0.338170 0.518410 0.622370 -0.518310
O6    O     O_R   0.661830 0.481590 0.377630 -0.558122
O7    O     O_R   0.301150 0.481570 0.377630 -0.580920
O8    O     O_R   0.698850 0.518430 0.622370 -0.567260
O9    O     O_3   0.812222 0.760746 0.689552 -0.583069
C25   C     C_3   0.816893 0.804663 0.841558 -0.248891
H13   H     H_    0.866136 0.909254 0.900173 0.131816
H14   H     H_    0.861752 0.738969 0.888753 0.181373
H15   H     H_    0.719238 0.802425 0.861732 0.208846
O10   O     O_3   0.188880 0.224788 0.362031 -0.585457
C26   C     C_3   0.185928 0.097457 0.368554 -0.231206
H16   H     H_    0.186468 0.022158 0.259468 0.149311
H17   H     H_    0.104476 0.066827 0.412714 0.170585
H18   H     H_    0.271001 0.098445 0.444033 0.215849
S1    S     S_3+6 0.348304 0.357629 0.818287 -0.015095
O11   O     O_2   0.234814 0.403751 0.877822 -0.337397
O12   O     O_2   0.313087 0.312735 0.657182 -0.238115
O13   O     O_3   0.373601 0.221198 0.850048 -0.611197
H19   H     H_    0.288951 0.177676 0.851554 0.355978
S2    S     S_3+6 0.651590 0.645027 0.184555 -0.012621
O14   O     O_2   0.629608 0.766405 0.154897 -0.350083
O15   O     O_2   0.688628 0.690599 0.346345 -0.235642
O16   O     O_3   0.778877 0.594776 0.117873 -0.558845
H20   H     H_    0.790258 0.516402 0.141987 0.353189

loop_
_geom_bond_atom_site_label_1
_geom_bond_atom_site_label_2
_ccdc_geom_bond_type
C10   O6    A    
C25   H14   S    
C26   H16   S    
C9    C24   S    
C9    O5    A    
O13   H19   S    
Cu1   O5    S    
C10   C23   S    
O10   C26   S    
C19   C23   A    
C11   C21   A    
C6    H7    S    
C20   C22   A    
C3    C5    D    
C5    H8    S    
C16   H1    S    
C13   C15   A    
C25   H13   S    
C4    H9    S    
S1    O11   D    
C8    S1    S    
C16   C18   A    
S2    O14   D    
C13   H5    S    
C11   C13   A    
Cu1   O8    S    
C11   H3    S    
C15   H2    S    
C5    C6    S    
Cu2   O7    S    
C2    O2    A    
C2    C4    S    
C3    H10   S    
Cu1   O4    S    
C1    O1    A    
C17   C19   A    
C12   C14   A    
Cu2   O3    S    
C9    O7    A    
H11   N2    S    
C18   C20   A    
C26   H17   S    
Cu1   N2    S    
C10   O8    A    
H12   N1    S    
Cu2   N1    S    
C14   C16   A    
C7    S2    S    
S1    O12   D    
C25   H15   S    
C18   O10   S    
Cu1   O1    S    
O16   H20   S    
S2    O16   S    
C12   C22   A    
C7    C8    S    
C2    O4    A    
Cu2   O2    S    
C4    C6    D    
O9    C25   S    
C21   C24   A    
C17   O9    S    
C15   C17   A    
C26   H18   S    
C22   C23   A    
S1    O13   S    
C7    N1    D    
C8    N2    D    
C12   H4    S    
Cu1   Cu2   S    
C19   C21   A    
Cu2   O6    S    
C1    O3    A    
C20   C24   A    
C14   H6    S    
C1    C3    S    
S2    O15   D    
