data_mof_unit_7764.cif
_audit_creation_date              2012-12-10T18:11:08-0500
_audit_creation_method            fapswitch 2.2
_symmetry_space_group_name_H-M    P1
_symmetry_Int_Tables_number       1
_space_group_crystal_system       triclinic
_cell_length_a                    11.068291
_cell_length_b                    9.703766
_cell_length_c                    10.768771
_cell_angle_alpha                 91.128411
_cell_angle_beta                  91.028003
_cell_angle_gamma                 90.420566
_cell_volume                      1156.16555154

loop_
_atom_site_label
_atom_site_type_symbol
_atom_type_description
_atom_site_fract_x
_atom_site_fract_y
_atom_site_fract_z
_atom_type_partial_charge
Br1   Br    Br    0.895342 0.662169 0.275208 -0.458182
Br2   Br    Br    0.844771 0.358754 0.258897 -0.465610
Br3   Br    Br    0.609704 0.147811 0.247286 -0.476257
Br4   Br    Br    0.657217 0.839757 0.294614 -0.429447
Br5   Br    Br    0.164025 0.717415 0.699126 -0.453994
Br6   Br    Br    0.139088 0.381127 0.756156 -0.413725
Br7   Br    Br    0.893456 0.646250 0.743059 -0.410533
Br8   Br    Br    0.854174 0.319524 0.724592 -0.444904
C1    C     C_R   0.262012 0.498859 0.504222 0.882962
C2    C     C_3   0.933541 0.493273 0.362667 0.365285
C3    C     C_3   0.605854 0.083599 0.573205 0.120877
C4    C     C_3   0.581918 0.926758 0.601040 0.099065
C5    C     C_3   0.387227 0.082865 0.556249 -0.349291
C6    C     C_3   0.380548 0.916845 0.539456 -0.339699
C7    C     C_3   0.501519 0.076383 0.373476 0.234359
C8    C     C_3   0.516120 0.913564 0.376944 0.251726
C9    C     C_R   0.492477 0.499150 0.260528 0.854472
C10   C     C_R   0.740743 0.500144 0.500992 0.953010
C11   C     C_R   0.498035 0.501157 0.739893 0.870014
C12   C     C_3   0.484131 0.498876 0.123560 -0.090766
C13   C     C_3   0.442215 0.619031 0.042444 0.158729
C14   C     C_3   0.416913 0.397259 0.034740 0.149135
C15   C     C_3   0.375289 0.517564 0.952411 -0.195256
C16   C     C_3   0.491947 0.503152 0.877008 -0.088305
C17   C     C_3   0.557296 0.605368 0.966419 0.123503
C18   C     C_3   0.531925 0.382189 0.958268 0.170101
C19   C     C_3   0.600160 0.484423 0.047185 -0.109308
C20   C     C_3   0.731953 0.096500 0.511116 -0.673270
C21   C     C_3   0.694762 0.851813 0.641199 -0.735259
C22   C     C_3   0.384824 0.755353 0.080153 -0.792129
C23   C     C_3   0.076629 0.636617 0.552546 0.109983
C24   C     C_3   0.332082 0.280224 0.066689 -0.780928
C25   C     C_3   0.633159 0.731297 0.939540 -0.731399
C26   C     C_3   0.577277 0.242405 0.913886 -0.733030
C27   C     C_3   0.145448 0.557091 0.268669 -0.720569
C28   C     C_3   0.105387 0.315155 0.318053 -0.780867
C29   C     C_3   0.075591 0.377832 0.585548 0.128433
C30   C     C_3   0.937902 0.629363 0.568590 0.102622
C31   C     C_3   0.934756 0.369427 0.570753 0.107822
C32   C     C_3   0.076771 0.466151 0.363458 0.147844
C33   C     C_3   0.126077 0.495105 0.502069 -0.152335
C34   C     C_3   0.882137 0.498398 0.501085 -0.242544
Cu1   Cu    Cu3+1 0.499860 0.642410 0.500060 0.981586
Cu2   Cu    Cu3+1 0.499860 0.357590 0.500060 0.979835
H1    H     H_    0.282786 0.537407 0.917203 0.238018
H2    H     H_    0.694035 0.473594 0.081800 0.242900
H3    H     H_    0.094222 0.715839 0.482210 0.121542
H4    H     H_    0.112301 0.277070 0.554821 0.121818
H5    H     H_    0.902983 0.721935 0.523976 0.145075
H6    H     H_    0.916297 0.279028 0.509932 0.112962
H7    H     H_    0.753888 0.010450 0.449736 0.256691
H8    H     H_    0.745711 0.180020 0.448559 0.303158
H9    H     H_    0.804621 0.095520 0.582606 0.221063
H10   H     H_    0.745101 0.913571 0.713492 0.228068
H11   H     H_    0.672304 0.753922 0.684105 0.280407
H12   H     H_    0.614437 0.140740 0.663125 0.162674
H13   H     H_    0.753385 0.836373 0.562393 0.270960
H14   H     H_    0.319412 0.739263 0.155222 0.224061
H15   H     H_    0.455500 0.830063 0.111053 0.254327
H16   H     H_    0.336774 0.799130 0.998796 0.254774
H17   H     H_    0.248280 0.324438 0.103625 0.233796
H18   H     H_    0.309082 0.218422 0.981629 0.261482
H19   H     H_    0.374521 0.212906 0.136315 0.246451
H20   H     H_    0.659807 0.785179 0.027449 0.290527
H21   H     H_    0.715591 0.698523 0.893664 0.279225
H22   H     H_    0.580734 0.802884 0.880976 0.216394
H23   H     H_    0.535552 0.928677 0.692678 0.118566
H24   H     H_    0.598753 0.176513 0.993432 0.281076
H25   H     H_    0.506785 0.189730 0.855442 0.204617
H26   H     H_    0.659655 0.256139 0.860079 0.269933
H27   H     H_    0.105566 0.543501 0.173696 0.288156
H28   H     H_    0.145525 0.668307 0.293340 0.225192
H29   H     H_    0.241435 0.526417 0.261900 0.187297
H30   H     H_    0.053488 0.234569 0.365433 0.225239
H31   H     H_    0.082150 0.301100 0.217944 0.283071
H32   H     H_    0.202502 0.290362 0.327193 0.224901
H33   H     H_    0.382047 0.111991 0.656440 0.185833
H34   H     H_    0.352221 0.872796 0.628358 0.231354
H35   H     H_    0.412580 0.096950 0.327566 0.064503
H36   H     H_    0.442364 0.870833 0.316380 0.087082
H37   H     H_    0.305749 0.126948 0.510972 0.191036
H38   H     H_    0.307614 0.887802 0.471017 0.170728
N1    N     N_3   0.500250 0.143650 0.502780 -0.182869
N2    N     N_3   0.500250 0.856350 0.502780 -0.166414
O1    O     O_R   0.317570 0.620260 0.500070 -0.586012
O2    O     O_R   0.317570 0.379740 0.500070 -0.615462
O3    O     O_R   0.499850 0.620240 0.316900 -0.555418
O4    O     O_R   0.499850 0.379760 0.316900 -0.539963
O5    O     O_R   0.682190 0.620260 0.500030 -0.552441
O6    O     O_R   0.682190 0.379740 0.500030 -0.553434
O7    O     O_R   0.499910 0.620280 0.683200 -0.591835
O8    O     O_R   0.499910 0.379720 0.683200 -0.584870

loop_
_geom_bond_atom_site_label_1
_geom_bond_atom_site_label_2
_ccdc_geom_bond_type
C15   H1    S    
C4    C21   S    
C2    C34   S    
C9    O4    A    
C6    N2    S    
Cu2   N1    S    
C25   H21   S    
C30   H5    S    
C18   C19   S    
Cu1   O5    S    
C14   C24   S    
C16   C18   S    
C24   H17   S    
C30   C34   S    
C10   C34   S    
C20   H7    S    
C21   H10   S    
C7    C8    S    
C5    H37   S    
C8    N2    S    
C9    C12   S    
C4    N2    S    
C2    C32   S    
C11   O8    A    
C28   H32   S    
C1    O1    A    
C18   C26   S    
C7    H35   S    
C22   H16   S    
C15   C16   S    
Br8   C31   S    
C26   H26   S    
Cu2   O8    S    
C27   H27   S    
C23   H3    S    
C5    C6    S    
Cu1   N2    S    
Cu2   O2    S    
C25   H22   S    
C31   C34   S    
C4    H23   S    
C5    H33   S    
Cu1   O1    S    
C28   C32   S    
C16   C17   S    
C26   H24   S    
C7    N1    S    
C21   H11   S    
C3    N1    S    
Cu1   O7    S    
C8    H36   S    
C10   O6    A    
Br4   C8    S    
Cu1   Cu2   S    
C28   H31   S    
C1    O2    A    
C3    C4    S    
C22   H15   S    
Br6   C29   S    
C29   H4    S    
C26   H25   S    
C28   H30   S    
C19   H2    S    
C32   C33   S    
C12   C14   S    
C27   H28   S    
C13   C15   S    
C6    H38   S    
Br2   C2    S    
Cu2   O6    S    
C13   C17   S    
C27   H29   S    
C23   C33   S    
C9    O3    A    
C10   O5    A    
Br1   C2    S    
C24   H19   S    
C21   H13   S    
C20   H9    S    
C12   C19   S    
C17   C19   S    
C13   C22   S    
C5    N1    S    
C1    C33   S    
C23   C30   S    
Cu1   O3    S    
C11   C16   S    
C24   H18   S    
C29   C31   S    
C20   H8    S    
C3    C20   S    
C25   H20   S    
C22   H14   S    
Br7   C30   S    
C27   C32   S    
C6    H34   S    
C29   C33   S    
C11   O7    A    
C31   H6    S    
C12   C13   S    
C14   C18   S    
C14   C15   S    
Br3   C7    S    
Cu2   O4    S    
C3    H12   S    
C17   C25   S    
Br5   C23   S    
