data_mof_unit_50341.cif
_audit_creation_date              2012-12-10T17:36:45-0500
_audit_creation_method            fapswitch 2.2
_symmetry_space_group_name_H-M    P1
_symmetry_Int_Tables_number       1
_space_group_crystal_system       triclinic
_cell_length_a                    12.130885
_cell_length_b                    12.856738
_cell_length_c                    15.699264
_cell_angle_alpha                 91.89812
_cell_angle_beta                  86.540066
_cell_angle_gamma                 93.762473
_cell_volume                      2437.73756676

loop_
_atom_site_label
_atom_site_type_symbol
_atom_type_description
_atom_site_fract_x
_atom_site_fract_y
_atom_site_fract_z
_atom_type_partial_charge
C1    C     C_R   0.522524 0.700013 0.497050 0.908401
C2    C     C_R   0.543678 0.025333 0.475000 0.013355
C3    C     C_R   0.951157 0.401990 0.416987 -0.174772
C4    C     C_R   0.048840 0.597988 0.583020 -0.174786
C5    C     C_R   0.836407 0.412572 0.425865 0.413352
C6    C     C_R   0.163591 0.587419 0.574140 0.413345
C7    C     C_R   0.857903 0.542645 0.535414 0.426952
C8    C     C_R   0.142098 0.457356 0.464581 0.427007
C9    C     C_R   0.976150 0.536088 0.530343 -0.157482
C10   C     C_R   0.023849 0.463902 0.469660 -0.157459
C11   C     C_R   0.500339 0.500150 0.661785 0.906954
C12   C     C_R   0.477476 0.299986 0.502950 0.908370
C13   C     C_R   0.499661 0.499849 0.338215 0.906989
C14   C     C_3   0.458186 0.588726 0.032314 -0.250927
C15   C     C_3   0.541822 0.411272 0.967685 -0.250906
C16   C     C_3   0.563283 0.583289 0.971221 -0.245603
C17   C     C_3   0.436725 0.416709 0.028778 -0.245558
C18   C     C_1   0.500979 0.499951 0.750700 -0.125620
C19   C     C_1   0.499022 0.500048 0.249299 -0.125623
C20   C     C_3   0.397229 0.505212 0.976600 0.468766
C21   C     C_3   0.602778 0.494785 0.023399 0.468728
C22   C     C_3   0.500989 0.499842 0.916976 0.041636
C23   C     C_R   0.629496 0.969037 0.434636 0.355729
C24   C     C_3   0.499018 0.500156 0.083023 0.041641
C25   C     C_1   0.501221 0.499818 0.826039 0.036364
C26   C     C_1   0.498783 0.500180 0.173960 0.036323
C27   C     C_R   0.462453 0.188438 0.508681 -0.171932
C28   C     C_R   0.537543 0.811557 0.491318 -0.171915
C29   C     C_R   0.287089 0.199765 0.603006 0.203519
C30   C     C_R   0.181259 0.199631 0.571292 -0.025327
C31   C     C_R   0.101509 0.261308 0.611450 -0.166803
C32   C     C_R   0.126933 0.323431 0.683254 -0.102449
C33   C     C_R   0.231779 0.323144 0.715605 -0.072586
C34   C     C_R   0.370482 0.030949 0.565342 0.355716
C35   C     C_R   0.311674 0.261325 0.675834 -0.134839
C36   C     C_R   0.712835 0.800204 0.396910 0.203513
C37   C     C_R   0.688179 0.738698 0.324068 -0.135055
C38   C     C_R   0.768030 0.676876 0.284233 -0.072568
C39   C     C_R   0.872898 0.676526 0.316540 -0.102259
C40   C     C_R   0.898390 0.738590 0.388363 -0.166915
C41   C     C_R   0.818687 0.800273 0.428580 -0.025278
C42   C     C_R   0.989137 0.325644 0.350861 0.213292
C43   C     C_R   0.016153 0.357215 0.266948 -0.031109
C44   C     C_R   0.048438 0.284179 0.203877 -0.083362
C45   C     C_R   0.626252 0.860898 0.442412 -0.105279
C46   C     C_R   0.052526 0.179378 0.223966 -0.096613
C47   C     C_R   0.023862 0.147263 0.307068 -0.056521
C48   C     C_R   0.991553 0.219968 0.370370 -0.028779
C49   C     C_R   0.010854 0.674280 0.649175 0.213223
C50   C     C_R   0.008534 0.779979 0.629746 -0.028737
C51   C     C_R   0.976216 0.852622 0.693083 -0.056511
C52   C     C_R   0.947443 0.820432 0.776143 -0.096743
C53   C     C_R   0.951433 0.715604 0.796150 -0.083330
C54   C     C_R   0.983731 0.642629 0.733045 -0.031156
C55   C     C_R   0.373723 0.139087 0.557559 -0.105285
C56   C     C_R   0.456136 0.868366 0.533278 -0.185172
C57   C     C_R   0.543868 0.131629 0.466727 -0.185162
C58   C     C_R   0.456313 0.974659 0.524994 0.013374
Cl1   Cl    Cl    0.739777 0.487898 0.056815 -0.609336
Cl2   Cl    Cl    0.260232 0.512097 0.943181 -0.609230
Cl3   Cl    Cl    0.739666 0.031754 0.371982 -0.635397
Cl4   Cl    Cl    0.260292 0.968225 0.627971 -0.635542
Cl5   Cl    Cl    0.211914 0.369095 0.396014 -0.624827
Cl6   Cl    Cl    0.788091 0.630942 0.603951 -0.624857
Cl7   Cl    Cl    0.251281 0.662244 0.641764 -0.552220
Cl8   Cl    Cl    0.748715 0.337740 0.358250 -0.552217
H1    H     H_    0.615769 0.650616 0.945901 0.183871
H2    H     H_    0.251467 0.371436 0.771091 0.183968
H3    H     H_    0.393101 0.262657 0.700762 0.110480
H4    H     H_    0.606735 0.737415 0.299172 0.110524
H5    H     H_    0.748292 0.628635 0.228731 0.183958
H6    H     H_    0.934324 0.628029 0.286048 0.144098
H7    H     H_    0.979530 0.737986 0.413401 0.137785
H8    H     H_    0.838683 0.846730 0.485045 0.141338
H9    H     H_    0.012580 0.438117 0.250767 0.133545
H10   H     H_    0.070042 0.308763 0.139398 0.161500
H11   H     H_    0.077429 0.122963 0.175032 0.143905
H12   H     H_    0.384239 0.349382 0.054097 0.183885
H13   H     H_    0.026269 0.065992 0.322358 0.149878
H14   H     H_    0.968643 0.194277 0.434390 0.127266
H15   H     H_    0.031546 0.805740 0.565763 0.127484
H16   H     H_    0.973881 0.933915 0.677853 0.149982
H17   H     H_    0.922531 0.876803 0.825105 0.143929
H18   H     H_    0.929732 0.690952 0.860593 0.161519
H19   H     H_    0.987235 0.561702 0.749169 0.133484
H20   H     H_    0.423143 0.660609 0.060503 0.183429
H21   H     H_    0.576865 0.339389 0.939496 0.183432
H22   H     H_    0.608575 0.172035 0.428017 0.259158
H23   H     H_    0.391437 0.827962 0.572001 0.259153
H24   H     H_    0.161318 0.153130 0.514837 0.141285
H25   H     H_    0.020388 0.261866 0.586378 0.137734
H26   H     H_    0.065472 0.371927 0.713696 0.144037
N1    N     N_R   0.207800 0.519340 0.515560 -0.155085
N2    N     N_R   0.792200 0.480660 0.484440 -0.155080
O1    O     O_R   0.421700 0.658830 0.504150 -0.590569
O2    O     O_R   0.578300 0.341170 0.495850 -0.590560
O3    O     O_R   0.609310 0.646410 0.494170 -0.573080
O4    O     O_R   0.390690 0.353590 0.505830 -0.573104
O5    O     O_R   0.406210 0.506220 0.628210 -0.571451
O6    O     O_R   0.593790 0.493780 0.371790 -0.571431
O7    O     O_R   0.593830 0.493800 0.618230 -0.573233
O8    O     O_R   0.406170 0.506200 0.381770 -0.573213
Zn1   Zn    Zn3+2 0.374730 0.508290 0.506660 1.051835
Zn2   Zn    Zn3+2 0.625270 0.491710 0.493340 1.051844

loop_
_geom_bond_atom_site_label_1
_geom_bond_atom_site_label_2
_ccdc_geom_bond_type
O5    Zn1   S    
C3    C42   S    
C16   C21   S    
C23   C45   A    
C47   H13   S    
C30   H24   S    
N1    Zn1   S    
C5    N2    A    
C28   C56   A    
C2    C57   A    
C11   C18   S    
C32   H26   S    
C53   C54   A    
C37   C38   A    
C53   H18   S    
C36   C37   A    
C24   C26   S    
C21   Cl1   S    
C30   C31   A    
C27   C55   A    
C33   H2    S    
C49   C54   A    
C34   Cl4   S    
C17   C20   S    
C40   H7    S    
C11   O5    A    
C14   C24   S    
C44   H10   S    
C19   C26   T    
C41   H8    S    
C46   C47   A    
C15   C22   S    
C47   C48   A    
O1    Zn1   S    
C22   C25   S    
C1    C28   S    
C39   H6    S    
C20   Cl2   S    
C9    C10   A    
C12   O4    A    
N2    Zn2   S    
C34   C55   A    
C37   H4    S    
C36   C41   A    
C18   C25   T    
C44   C46   A    
C6    Cl7   S    
C43   H9    S    
C28   C45   A    
C17   C24   S    
C13   C19   S    
C12   C27   S    
C51   C52   A    
C14   C20   S    
C14   H20   S    
C4    C6    A    
C27   C57   A    
C1    O3    A    
C39   C40   A    
C29   C55   S    
O6    Zn2   S    
C52   H17   S    
C43   C44   A    
C29   C30   A    
C54   H19   S    
C31   C32   A    
C23   Cl3   S    
C1    O1    A    
C6    N1    A    
C50   C51   A    
C36   C45   S    
C11   O7    A    
C16   H1    S    
C42   C48   A    
C51   H16   S    
C40   C41   A    
C20   C22   S    
O7    Zn2   S    
C31   H25   S    
O2    Zn2   S    
C14   C16   S    
C42   C43   A    
C52   C53   A    
C15   H21   S    
C15   C17   S    
C7    N2    A    
C38   H5    S    
C56   H23   S    
C16   C22   S    
C8    N1    A    
C5    Cl8   S    
C3    C5    A    
C46   H11   S    
C2    C58   A    
C29   C35   A    
C57   H22   S    
C4    C49   S    
C32   C33   A    
C48   H14   S    
C13   O6    A    
C13   O8    A    
C3    C10   A    
C38   C39   A    
C17   H12   S    
C33   C35   A    
C56   C58   A    
O8    Zn1   S    
C7    Cl6   S    
O3    Zn2   S    
C8    Cl5   S    
C7    C9    A    
C15   C21   S    
C35   H3    S    
C8    C10   A    
C49   C50   A    
C21   C24   S    
C2    C23   A    
C34   C58   A    
C12   O2    A    
C4    C9    A    
O4    Zn1   S    
C50   H15   S    
