data_mof_unit_38965.cif
_audit_creation_date              2012-12-10T18:43:46-0500
_audit_creation_method            fapswitch 2.2
_symmetry_space_group_name_H-M    P1
_symmetry_Int_Tables_number       1
_space_group_crystal_system       triclinic
_cell_length_a                    10.761691
_cell_length_b                    10.691714
_cell_length_c                    9.87089
_cell_angle_alpha                 89.102145
_cell_angle_beta                  105.381151
_cell_angle_gamma                 91.239964
_cell_volume                      1094.75956905

loop_
_atom_site_label
_atom_site_type_symbol
_atom_type_description
_atom_site_fract_x
_atom_site_fract_y
_atom_site_fract_z
_atom_type_partial_charge
C1    C     C_R   0.493762 0.260251 0.499246 0.970282
C2    C     C_2   0.881137 0.490206 0.602515 0.195581
C3    C     C_2   0.055178 0.530839 0.492712 0.036946
C4    C     C_2   0.942285 0.456948 0.507582 0.059150
C5    C     C_R   0.580853 0.072184 0.439961 -0.296509
C6    C     C_R   0.417335 0.928150 0.558821 -0.297699
C7    C     C_R   0.589074 0.944053 0.438653 0.487373
C8    C     C_R   0.408152 0.056373 0.558729 0.488414
C9    C     C_R   0.505769 0.872503 0.498870 -0.236460
C10   C     C_R   0.492719 0.127783 0.500191 -0.235866
C11   C     C_R   0.505775 0.739876 0.500553 0.977548
C12   C     C_R   0.257961 0.504740 0.439298 0.823169
C13   C     C_R   0.741684 0.493453 0.560735 0.823645
C14   C     C_R   0.595502 0.560383 0.098258 0.049041
C15   C     C_R   0.404973 0.439015 0.901815 0.030763
C16   C     C_R   0.594910 0.561314 0.954496 -0.050713
C17   C     C_R   0.404867 0.438983 0.045411 -0.010084
C18   C     C_2   0.118209 0.499293 0.398221 0.180143
H1    H     H_    0.672729 0.607581 0.173750 0.198274
H2    H     H_    0.092121 0.718803 0.501645 0.190905
H3    H     H_    0.834324 0.460721 0.909281 0.385344
H4    H     H_    0.102988 0.611655 0.122668 0.366724
H5    H     H_    0.832390 0.723012 0.404214 0.377609
H6    H     H_    0.284448 0.159535 0.842872 0.387826
H7    H     H_    0.328804 0.390711 0.826285 0.208276
H8    H     H_    0.670525 0.611102 0.921358 0.167488
H9    H     H_    0.328753 0.389888 0.078387 0.198106
H10   H     H_    0.644664 0.129738 0.395446 0.202281
H11   H     H_    0.353539 0.870672 0.603471 0.200929
H12   H     H_    0.813489 0.345313 0.366411 0.226221
H13   H     H_    0.909268 0.268706 0.505330 0.222806
H14   H     H_    0.181274 0.638845 0.642205 0.243167
N1    N     N_R   0.499970 0.499970 0.857200 -0.114063
N2    N     N_R   0.500030 0.500030 0.142800 -0.117111
N3    N     N_3   0.906749 0.341327 0.432454 -0.340564
N4    N     N_3   0.090314 0.644796 0.571710 -0.384078
O1    O     O_R   0.499990 0.316750 0.614620 -0.556642
O2    O     O_2   0.950041 0.643433 0.823261 -0.257488
O3    O     O_3   0.899071 0.411764 0.879260 -0.443314
O4    O     O_2   0.044001 0.313269 0.213639 -0.170449
O5    O     O_2   0.899317 0.491715 0.186791 -0.351789
O6    O     O_3   0.111502 0.520564 0.111651 -0.454510
O7    O     O_2   0.637710 0.837566 0.216944 -0.303241
O8    O     O_2   0.806034 0.976834 0.354465 -0.248712
O9    O     O_3   0.776998 0.758151 0.459353 -0.558768
O10   O     O_2   0.234802 0.237086 0.552097 -0.299424
O11   O     O_2   0.181143 0.026423 0.621209 -0.266542
O12   O     O_R   0.500010 0.683250 0.385380 -0.566934
O13   O     O_3   0.357344 0.153379 0.799730 -0.548488
O14   O     O_R   0.499990 0.316780 0.385290 -0.628575
O15   O     O_R   0.500010 0.683220 0.614710 -0.622988
O16   O     O_R   0.317810 0.500000 0.571850 -0.616067
O17   O     O_R   0.682190 0.500000 0.428150 -0.631184
O18   O     O_R   0.317810 0.500030 0.342520 -0.575995
O19   O     O_R   0.682190 0.499970 0.657480 -0.593518
O20   O     O_2   0.104276 0.482044 0.808378 -0.270581
S1    S     S_3+6 0.963923 0.510842 0.781638 0.097112
S2    S     S_3+6 0.037720 0.452863 0.224827 0.080813
S3    S     S_3+6 0.704950 0.879857 0.362835 0.054121
S4    S     S_3+6 0.289005 0.120379 0.630060 0.056013
Zn1   Zn    Zn3+2 0.500000 0.499980 0.653120 1.032398
Zn2   Zn    Zn3+2 0.500000 0.500020 0.346880 1.029888

loop_
_geom_bond_atom_site_label_1
_geom_bond_atom_site_label_2
_ccdc_geom_bond_type
C14   N2    A    
O1    Zn1   S    
H5    O9    S    
C1    O1    A    
C16   N1    A    
C5    H10   S    
C5    C7    A    
C1    O14   A    
C2    C4    D    
O15   Zn1   S    
O7    S3    D    
C7    C9    A    
O6    S2    S    
C6    C9    A    
C2    S1    S    
C5    C10   A    
C8    S4    S    
O2    S1    D    
C9    C11   S    
O3    S1    S    
C11   O12   A    
H4    O6    S    
O13   S4    S    
C3    N4    S    
H12   N3    S    
H13   N3    S    
C7    S3    S    
C12   O16   A    
C15   N1    A    
O5    S2    D    
C13   O17   A    
O16   Zn1   S    
C16   H8    S    
O14   Zn2   S    
C14   C16   A    
C15   H7    S    
O4    S2    D    
C17   N2    A    
O19   Zn1   S    
O8    S3    D    
C3    C4    S    
C17   H9    S    
H14   N4    S    
N2    Zn2   S    
C6    H11   S    
C11   O15   A    
O20   S1    D    
C3    C18   D    
N1    Zn1   S    
O17   Zn2   S    
C12   C18   S    
H6    O13   S    
C15   C17   A    
C2    C13   S    
C4    N3    S    
C14   H1    S    
O9    S3    S    
C6    C8    A    
O18   Zn2   S    
O10   S4    D    
O11   S4    D    
O12   Zn2   S    
H3    O3    S    
C18   S2    S    
C8    C10   A    
C12   O18   A    
C1    C10   S    
C13   O19   A    
H2    N4    S    
