data_mof_unit_10794.cif
_audit_creation_date              2012-12-11T15:11:42-0500
_audit_creation_method            fapswitch 2.2
_symmetry_space_group_name_H-M    P1
_symmetry_Int_Tables_number       1
_space_group_crystal_system       triclinic
_cell_length_a                    19.941303
_cell_length_b                    7.220809
_cell_length_c                    13.734336
_cell_angle_alpha                 90.07468
_cell_angle_beta                  103.019541
_cell_angle_gamma                 89.903539
_cell_volume                      1926.79698208

loop_
_atom_site_label
_atom_site_type_symbol
_atom_type_description
_atom_site_fract_x
_atom_site_fract_y
_atom_site_fract_z
_atom_type_partial_charge
O1    O     O_R   0.449830 0.506740 0.599960 -0.539265
O2    O     O_R   0.550170 0.006740 0.400040 -0.539262
O3    O     O_R   0.588980 0.179860 0.596720 -0.559555
O4    O     O_R   0.411020 0.679860 0.403280 -0.559616
C1    C     C_R   0.615706 0.344309 0.621360 0.681385
C2    C     C_R   0.384399 0.844444 0.378501 0.680809
O5    O     O_R   0.452740 0.177340 0.612040 -0.536879
O6    O     O_R   0.547260 0.677340 0.387960 -0.537136
O7    O     O_R   0.412960 0.002070 0.415460 -0.528394
O8    O     O_R   0.587040 0.502070 0.584540 -0.528057
C3    C     C_R   0.438911 0.346021 0.641155 0.693050
C4    C     C_R   0.560913 0.845733 0.358729 0.693243
O9    O     O_3   0.487110 0.337570 0.435490 -0.387056
O10   O     O_3   0.512890 0.837570 0.564510 -0.386915
V1    V     V_3+5 0.502390 0.064650 0.511970 1.387163
V2    V     V_3+5 0.497610 0.564650 0.488030 1.387342
C5    C     C_R   0.610163 0.714782 0.119324 -0.195667
C6    C     C_R   0.389765 0.217829 0.880944 -0.195850
H1    H     H_    0.521162 0.679463 0.179682 0.127467
H2    H     H_    0.478573 0.180435 0.820244 0.127504
H3    H     H_    0.697477 0.652657 0.003694 0.139579
H4    H     H_    0.302704 0.158167 0.997140 0.138567
H5    H     H_    0.587866 0.637729 0.052207 0.126276
H6    H     H_    0.412095 0.140826 0.948036 0.126103
C7    C     C_R   0.597163 0.847697 0.276012 -0.039453
C8    C     C_R   0.402577 0.348909 0.723912 -0.039702
C9    C     C_R   0.925031 0.950638 0.307051 0.422226
C10   C     C_R   0.073892 0.443381 0.691050 0.419921
C11   C     C_R   0.884081 0.006179 0.371723 -0.202423
C12   C     C_R   0.115413 0.506925 0.628429 -0.209631
C13   C     C_R   0.813069 0.986357 0.345243 -0.237686
C14   C     C_R   0.186597 0.491323 0.655900 -0.236597
C15   C     C_R   0.780200 0.903651 0.253666 0.087985
C16   C     C_R   0.219578 0.407419 0.746951 0.089831
C17   C     C_R   0.821807 0.844899 0.187316 0.013993
C18   C     C_R   0.177992 0.347514 0.812913 0.012103
C19   C     C_R   0.707628 0.871880 0.227428 0.096879
C20   C     C_R   0.292234 0.375567 0.773073 0.096385
C21   C     C_R   0.679021 0.772183 0.138866 0.149009
C22   C     C_R   0.320955 0.276180 0.861648 0.148935
C23   C     C_R   0.719875 0.724356 0.072591 -0.239102
C24   C     C_R   0.280211 0.229247 0.928114 -0.238779
C25   C     C_R   0.790028 0.762243 0.095626 -0.197683
C26   C     C_R   0.209963 0.266337 0.904898 -0.197978
C27   C     C_R   0.662822 0.926083 0.288929 -0.240452
C28   C     C_R   0.336944 0.428296 0.711205 -0.240109
C29   C     C_R   0.571226 0.742545 0.190422 -0.163309
C30   C     C_R   0.428561 0.244220 0.809595 -0.163126
C31   C     C_R   0.894168 0.874020 0.213274 -0.182606
C32   C     C_R   0.105356 0.372413 0.786035 -0.174123
H7    H     H_    0.679073 0.020525 0.349797 0.116557
H8    H     H_    0.320588 0.522113 0.650175 0.116224
H9    H     H_    0.785470 0.037991 0.398360 0.127266
H10   H     H_    0.214220 0.546180 0.603635 0.125304
H11   H     H_    0.907545 0.071326 0.442076 0.130060
H12   H     H_    0.092256 0.573161 0.558261 0.128588
H13   H     H_    0.819546 0.719827 0.042394 0.124322
H14   H     H_    0.180500 0.223591 0.958044 0.123859
C33   C     C_3   0.235047 0.712621 0.145988 -0.380505
C34   C     C_3   0.765054 0.212741 0.854135 -0.381742
H15   H     H_    0.214645 0.570834 0.152244 0.118236
H16   H     H_    0.785623 0.070915 0.847910 0.118536
H17   H     H_    0.233315 0.736336 0.065427 0.154184
H18   H     H_    0.766615 0.236670 0.934663 0.154186
C35   C     C_3   0.310888 0.724446 0.209697 0.247039
C36   C     C_3   0.689266 0.224441 0.790218 0.247620
H19   H     H_    0.328690 0.584067 0.236562 0.034562
H20   H     H_    0.671647 0.084098 0.763229 0.034225
H21   H     H_    0.154043 0.675404 0.288246 0.135443
H22   H     H_    0.846681 0.175315 0.712253 0.140435
C37   C     C_3   0.183278 0.806729 0.288624 -0.330099
C38   C     C_3   0.817142 0.306420 0.711918 -0.325450
C39   C     C_3   0.226116 0.047711 0.184554 -0.336636
C40   C     C_3   0.773727 0.547755 0.815592 -0.337342
C41   C     C_3   0.188494 0.858178 0.181620 0.044808
C42   C     C_3   0.811536 0.358173 0.818708 0.043053
H23   H     H_    0.192475 0.164541 0.196774 0.163215
H24   H     H_    0.807276 0.664439 0.803394 0.164284
H25   H     H_    0.239279 0.072930 0.111508 0.103300
H26   H     H_    0.760477 0.573394 0.888555 0.102475
C43   C     C_3   0.313528 0.850080 0.304211 0.025148
C44   C     C_3   0.686623 0.349755 0.695758 0.026210
C45   C     C_3   0.255790 0.785870 0.357429 -0.382812
C46   C     C_3   0.744670 0.285315 0.642797 -0.389163
C47   C     C_3   0.292598 0.049499 0.268423 0.354587
C48   C     C_3   0.707284 0.549217 0.731648 0.355389
H27   H     H_    0.334931 0.116117 0.239741 0.039550
H28   H     H_    0.664827 0.615873 0.760257 0.039336
H29   H     H_    0.154876 0.917854 0.318055 0.189208
H30   H     H_    0.845871 0.417516 0.683408 0.192418
H31   H     H_    0.258271 0.860107 0.429215 0.191295
H32   H     H_    0.742223 0.359298 0.571063 0.189153
O11   O     O_R   0.912980 0.203550 0.915410 -0.542557
O12   O     O_R   0.087020 0.703550 0.084590 -0.543002
O13   O     O_R   0.047270 0.535570 0.887960 -0.526461
O14   O     O_R   0.952730 0.035570 0.112040 -0.524062
C49   C     C_R   0.064313 0.369252 0.862762 0.745685
C50   C     C_R   0.935234 0.869708 0.136657 0.739108
O15   O     O_R   0.911030 0.532970 0.903270 -0.545418
O16   O     O_R   0.088970 0.032970 0.096730 -0.545375
O17   O     O_R   0.949820 0.708150 0.099970 -0.548945
O18   O     O_R   0.050180 0.208150 0.900030 -0.547760
C51   C     C_R   0.883094 0.365368 0.886201 0.686673
C52   C     C_R   0.116846 0.865245 0.114144 0.682585
O19   O     O_3   0.012900 0.375230 0.064480 -0.380517
O20   O     O_3   0.987100 0.875230 0.935520 -0.379921
V3    V     V_3+5 0.997610 0.648190 0.988040 1.428879
V4    V     V_3+5 0.002390 0.148190 0.011960 1.431726
O21   O     O_3   0.354600 0.796955 0.150512 -0.565547
C53   C     C_3   0.373422 0.655676 0.089868 0.086107
H33   H     H_    0.329118 0.566859 0.053955 0.125791
H34   H     H_    0.413168 0.564668 0.135864 0.109832
C54   C     C_3   0.401788 0.742798 0.006770 -0.723624
H35   H     H_    0.444592 0.838681 0.038511 0.217466
H36   H     H_    0.421179 0.632931 0.963481 0.191661
H37   H     H_    0.360367 0.820980 0.955573 0.224388
O22   O     O_3   0.645352 0.296853 0.849315 -0.565543
C55   C     C_3   0.626497 0.155285 0.909507 0.086268
H38   H     H_    0.670786 0.065895 0.945154 0.125305
H39   H     H_    0.586737 0.064883 0.863182 0.110079
C56   C     C_3   0.598119 0.241916 0.992884 -0.724433
H40   H     H_    0.555363 0.338383 0.961459 0.217517
H41   H     H_    0.578653 0.131825 0.035712 0.191593
H42   H     H_    0.639562 0.319268 0.044431 0.224270
H43   H     H_    0.262401 0.645322 0.379823 0.135360
H44   H     H_    0.738358 0.144502 0.620454 0.136343
O23   O     O_3   0.276174 0.137713 0.351114 -0.563222
C57   C     C_3   0.303906 0.311984 0.367446 0.073345
H45   H     H_    0.271956 0.400890 0.310249 0.103508
H46   H     H_    0.358819 0.318072 0.363353 0.155796
C58   C     C_3   0.298293 0.361739 0.471899 -0.688139
H47   H     H_    0.317815 0.245943 0.523594 0.230956
H48   H     H_    0.328926 0.487612 0.495975 0.174368
H49   H     H_    0.243492 0.385394 0.473140 0.199218
O24   O     O_3   0.723601 0.637119 0.648973 -0.562503
C59   C     C_3   0.695971 0.811717 0.632909 0.074509
H50   H     H_    0.728190 0.900382 0.689925 0.103754
H51   H     H_    0.641119 0.818638 0.637304 0.155177
C60   C     C_3   0.701406 0.860938 0.528434 -0.687391
H52   H     H_    0.681573 0.745379 0.476704 0.230733
H53   H     H_    0.671090 0.987567 0.504519 0.174329
H54   H     H_    0.756251 0.882849 0.527196 0.200769
O25   O     O_3   0.994235 0.996057 0.329742 -0.557097
C61   C     C_3   0.031200 0.873764 0.403087 0.055539
H55   H     H_    0.056548 0.767288 0.365325 0.121931
H56   H     H_    0.999047 0.799230 0.446916 0.115996
C62   C     C_3   0.085945 0.981665 0.476767 -0.713092
H57   H     H_    0.111493 0.084443 0.437197 0.238495
H58   H     H_    0.061952 0.055712 0.531043 0.200260
H59   H     H_    0.125544 0.885440 0.518648 0.184268
O26   O     O_3   0.003260 0.474941 0.666388 -0.559296
C63   C     C_3   0.971868 0.382046 0.576500 0.065432
H60   H     H_    0.949327 0.250229 0.595832 0.122033
H61   H     H_    0.007662 0.345739 0.527793 0.119278
C64   C     C_3   0.914662 0.502077 0.514580 -0.715591
H62   H     H_    0.925937 0.651267 0.528944 0.232862
H63   H     H_    0.909504 0.474080 0.433657 0.188955
H64   H     H_    0.864479 0.470935 0.532494 0.205682

loop_
_geom_bond_atom_site_label_1
_geom_bond_atom_site_label_2
_ccdc_geom_bond_type
O17   V3    S    
C36   H20   S    
C7    C27   A    
C64   H63   S    
C23   C25   A    
O15   C51   A    
C62   H57   S    
O1    C3    A    
C38   C42   S    
C58   H49   S    
O2    C4    A    
C57   H45   S    
O11   C51   A    
C2    O7    A    
O3    V1    S    
O24   C59   S    
C21   C23   A    
C37   C41   S    
O5    C3    A    
O19   V3    S    
C5    H5    S    
C40   C42   S    
C6    H6    S    
C62   H58   S    
C61   C62   S    
O11   V4    S    
C60   H54   S    
C48   H28   S    
C9    C11   A    
O20   V3    S    
C27   H7    S    
O25   C61   S    
C28   H8    S    
O16   C52   A    
C34   H16   S    
C5    C21   A    
H21   C37   S    
C6    C22   A    
C55   H38   S    
C56   H42   S    
C53   H34   S    
C31   C50   S    
C53   H33   S    
C10   C32   A    
C26   H14   S    
C35   H19   S    
C36   O22   S    
O14   C50   A    
C17   C31   A    
C9    O25   S    
O26   C63   S    
C13   C15   A    
O18   V4    S    
C17   C25   A    
C7    C29   A    
C49   O18   A    
C8    C30   A    
C54   H37   S    
O20   V4    S    
C42   C51   S    
C22   C24   A    
O14   V4    S    
O12   C52   A    
O6    V2    S    
C2    C43   S    
C40   H26   S    
C64   H64   S    
C39   C41   S    
C24   C26   A    
C45   H43   S    
C59   C60   S    
C14   H10   S    
C43   C45   S    
C37   C45   S    
C47   H27   S    
C46   H44   S    
O19   V4    S    
O12   V3    S    
O16   V4    S    
C33   H15   S    
C62   H59   S    
C59   H51   S    
C25   H13   S    
C61   H55   S    
C11   H11   S    
C3    C8    S    
O3    C1    A    
C44   C48   S    
C12   H12   S    
C34   C42   S    
C15   C19   A    
C57   H46   S    
C55   C56   S    
C14   C16   A    
O4    V2    S    
C36   C44   S    
C38   H30   S    
C35   C43   S    
C37   H29   S    
C63   C64   S    
O6    C4    A    
C35   O21   S    
C39   H25   S    
H1    C29   S    
O1    V2    S    
H2    C30   S    
C13   H9    S    
O2    V1    S    
C53   C54   S    
C39   C47   S    
C56   H40   S    
C38   C46   S    
O13   V3    S    
H3    C23   S    
C61   H56   S    
C63   H61   S    
C44   C46   S    
C41   C52   S    
C18   C26   A    
O4    C2    A    
C19   C27   A    
C58   H47   S    
C57   C58   S    
C33   C41   S    
C56   H41   S    
C18   C32   A    
C54   H35   S    
C32   C49   S    
C16   C20   A    
C5    C29   A    
C59   H50   S    
C58   H48   S    
C6    C30   A    
C60   H52   S    
O13   C49   A    
C40   C48   S    
C50   O17   A    
O15   V3    S    
C33   H17   S    
C4    C7    S    
C34   H18   S    
C10   C12   A    
O7    V1    S    
C1    O8    A    
C11   C13   A    
O8    V2    S    
O21   C53   S    
C33   C35   S    
C12   C14   A    
C1    C44   S    
C60   H53   S    
H4    C24   S    
C20   C22   A    
C45   H31   S    
O5    V1    S    
C15   C17   A    
C16   C18   A    
C55   H39   S    
C20   C28   A    
C47   O23   S    
C8    C28   A    
C34   C36   S    
C9    C31   A    
C48   O24   S    
C63   H60   S    
C10   O26   S    
C19   C21   A    
C40   H24   S    
O9    V2    S    
C64   H62   S    
C39   H23   S    
O10   V1    S    
H22   C38   S    
C46   H32   S    
O22   C55   S    
C43   C47   S    
O23   C57   S    
C54   H36   S    
