data_mof_unit_21609.cif
_audit_creation_date              2012-12-10T17:28:36-0500
_audit_creation_method            fapswitch 2.2
_symmetry_space_group_name_H-M    P1
_symmetry_Int_Tables_number       1
_space_group_crystal_system       triclinic
_cell_length_a                    10.657419
_cell_length_b                    11.994809
_cell_length_c                    12.828301
_cell_angle_alpha                 94.135114
_cell_angle_beta                  90.90335
_cell_angle_gamma                 88.82671
_cell_volume                      1635.10942707

loop_
_atom_site_label
_atom_site_type_symbol
_atom_type_description
_atom_site_fract_x
_atom_site_fract_y
_atom_site_fract_z
_atom_type_partial_charge
C1    C     C_R   0.493884 0.522623 0.700066 0.934055
C2    C     C_R   0.443985 0.535490 0.132138 -0.264244
C3    C     C_R   0.545519 0.463321 0.974541 0.091826
C4    C     C_R   0.456904 0.537665 0.025409 0.109170
C5    C     C_R   0.385675 0.948632 0.398452 -0.307289
C6    C     C_R   0.614347 0.051366 0.601538 -0.308492
C7    C     C_R   0.396386 0.833367 0.408704 0.053021
C8    C     C_R   0.603623 0.166634 0.591291 0.050533
C9    C     C_R   0.548879 0.861574 0.544450 -0.030560
C10   C     C_R   0.451139 0.138420 0.455542 -0.029763
C11   C     C_R   0.541419 0.978056 0.537057 0.089735
C12   C     C_R   0.506927 0.477460 0.299939 0.942412
C13   C     C_R   0.458603 0.021939 0.462934 0.084098
C14   C     C_R   0.739271 0.503582 0.503865 0.919289
C15   C     C_R   0.260636 0.496695 0.497865 0.978070
C16   C     C_R   0.882213 0.519297 0.700436 0.380552
C17   C     C_R   0.117517 0.475528 0.302242 0.399437
C18   C     C_R   0.950481 0.494580 0.789824 -0.240277
C19   C     C_R   0.047343 0.493910 0.211110 -0.348548
C20   C     C_R   0.078445 0.467603 0.783979 0.436642
C21   C     C_R   0.920043 0.523181 0.216798 0.476829
C22   C     C_R   0.137336 0.467270 0.687845 -0.183098
C23   C     C_R   0.516479 0.462785 0.188382 -0.117497
C24   C     C_R   0.862150 0.529271 0.313512 -0.183601
C25   C     C_R   0.068945 0.487274 0.595047 -0.079591
C26   C     C_R   0.930861 0.512365 0.406817 -0.080768
C27   C     C_R   0.939291 0.506783 0.599932 -0.037398
C28   C     C_R   0.060537 0.493212 0.402116 0.035830
C29   C     C_R   0.127996 0.488084 0.497517 -0.103486
C30   C     C_R   0.871839 0.512640 0.504514 -0.117648
C31   C     C_1   0.679558 0.312642 0.199450 0.206628
C32   C     C_1   0.319299 0.685426 0.800185 0.207931
C33   C     C_1   0.291440 0.688414 0.020186 0.154322
C34   C     C_R   0.485182 0.537696 0.811556 -0.080344
C35   C     C_1   0.709499 0.311315 0.979644 0.148441
C36   C     C_R   0.383694 0.613187 0.968812 0.003183
C37   C     C_R   0.617793 0.387053 0.031073 0.008415
C38   C     C_R   0.398198 0.613087 0.860700 -0.057735
C39   C     C_R   0.602457 0.386524 0.139113 -0.039321
C40   C     C_R   0.558950 0.465985 0.867844 -0.197347
H1    H     H_    0.321263 0.979993 0.340782 0.159445
H2    H     H_    0.611940 0.825873 0.600672 0.125097
H3    H     H_    0.659575 0.223552 0.641031 0.143281
H4    H     H_    0.340435 0.776450 0.358963 0.142136
H5    H     H_    0.903249 0.534909 0.066948 0.326845
H6    H     H_    0.094173 0.449149 0.932807 0.322937
H7    H     H_    0.757974 0.631629 0.675764 0.336933
H8    H     H_    0.256159 0.410940 0.219787 0.331645
H9    H     H_    0.678764 0.020006 0.659205 0.157766
H10   H     H_    0.904440 0.501427 0.864770 0.159326
H11   H     H_    0.091755 0.483778 0.135552 0.137357
H12   H     H_    0.236959 0.448830 0.686849 0.157948
H13   H     H_    0.762766 0.548708 0.314331 0.163835
H14   H     H_    0.377802 0.591795 0.173487 0.173648
H15   H     H_    0.625597 0.410162 0.826480 0.178786
H16   H     H_    0.388084 0.174116 0.399313 0.144358
N1    N     N_R   0.523130 0.207800 0.519340 -0.109783
N2    N     N_R   0.476870 0.792200 0.480660 -0.107828
N3    N     N_1   0.741119 0.253875 0.247584 -0.176628
N4    N     N_1   0.256314 0.742950 0.751915 -0.179751
N5    N     N_1   0.217868 0.748164 0.061080 -0.191940
N6    N     N_1   0.782645 0.251152 0.938707 -0.194186
O1    O     O_R   0.506170 0.421700 0.658830 -0.630041
O2    O     O_3   0.149352 0.444732 0.871054 -0.767601
O3    O     O_3   0.763984 0.564154 0.715920 -0.791167
O4    O     O_3   0.238189 0.432624 0.294169 -0.789144
O5    O     O_R   0.493830 0.578300 0.341170 -0.620780
O6    O     O_R   0.491330 0.609310 0.646410 -0.618976
O7    O     O_R   0.508670 0.390690 0.353590 -0.601032
O8    O     O_R   0.690650 0.406190 0.506220 -0.604838
O9    O     O_R   0.309350 0.593810 0.493780 -0.621336
O10   O     O_R   0.675800 0.593810 0.493800 -0.642864
O11   O     O_R   0.324200 0.406190 0.506200 -0.605768
O12   O     O_3   0.848835 0.543262 0.129140 -0.763086
Zn1   Zn    Zn3+2 0.509910 0.374730 0.508290 0.985229
Zn2   Zn    Zn3+2 0.490090 0.625270 0.491710 0.966767

loop_
_geom_bond_atom_site_label_1
_geom_bond_atom_site_label_2
_ccdc_geom_bond_type
C12   O7    A    
C4    C36   A    
O11   Zn1   S    
C8    H3    S    
O10   Zn2   S    
C33   C36   S    
N2    Zn2   S    
C12   C23   S    
C9    H2    S    
C34   C40   A    
C28   C29   A    
C35   C37   S    
C24   C26   A    
O9    Zn2   S    
C1    O6    A    
C9    N2    A    
C31   N3    T    
C22   C25   A    
C32   C38   S    
C10   H16   S    
C7    N2    A    
C5    C13   A    
C16   C27   A    
C27   C30   A    
C14   O8    A    
C14   C30   S    
C1    O1    A    
C1    C34   S    
C15   C29   S    
C25   C29   A    
C12   O5    A    
C10   N1    A    
C2    H14   S    
C6    C11   A    
C5    C7    A    
C6    C8    A    
C24   H13   S    
C21   O12   S    
H6    O2    S    
H5    O12   S    
C20   O2    S    
C2    C4    A    
C8    N1    A    
C40   H15   S    
C17   O4    S    
C7    H4    S    
C9    C11   A    
C16   C18   A    
C15   O11   A    
C20   C22   A    
C3    C40   A    
C26   C30   A    
O6    Zn2   S    
C32   N4    T    
C3    C4    A    
O8    Zn1   S    
C18   H10   S    
C22   H12   S    
C5    H1    S    
C19   C21   A    
C34   C38   A    
C17   C28   A    
C14   O10   A    
C10   C13   A    
C16   O3    S    
C25   C27   A    
C15   O9    A    
C26   C28   A    
N1    Zn1   S    
C36   C38   A    
C37   C39   A    
C11   C13   A    
O1    Zn1   S    
C23   C39   A    
C17   C19   A    
C31   C39   S    
O7    Zn1   S    
C35   N6    T    
C18   C20   A    
C6    H9    S    
C19   H11   S    
C3    C37   A    
C33   N5    T    
C21   C24   A    
C2    C23   A    
O5    Zn2   S    
H8    O4    S    
H7    O3    S    
