data_mof_unit_30860.cif
_audit_creation_date              2012-12-10T17:17:23-0500
_audit_creation_method            fapswitch 2.2
_symmetry_space_group_name_H-M    P1
_symmetry_Int_Tables_number       1
_space_group_crystal_system       triclinic
_cell_length_a                    10.241672
_cell_length_b                    10.511428
_cell_length_c                    12.472497
_cell_angle_alpha                 90.94889
_cell_angle_beta                  109.958219
_cell_angle_gamma                 96.067623
_cell_volume                      1253.01784715

loop_
_atom_site_label
_atom_site_type_symbol
_atom_type_description
_atom_site_fract_x
_atom_site_fract_y
_atom_site_fract_z
_atom_type_partial_charge
C1    C     C_R   0.050241 0.734329 0.490280 0.789370
C2    C     C_R   0.208252 0.510578 0.834989 -0.150506
C3    C     C_2   0.070648 0.870021 0.470939 -0.191578
C4    C     C_R   0.133518 0.506728 0.713014 0.929121
C5    C     C_2   0.953448 0.925844 0.421175 -0.123069
C6    C     C_2   0.901262 0.128202 0.482652 0.302446
C7    C     C_2   0.954060 0.063118 0.416681 -0.213808
C8    C     C_2   0.428261 0.524862 0.496920 -0.000760
C9    C     C_2   0.563916 0.495750 0.484001 0.079379
C10   C     C_R   0.944692 0.265485 0.501477 0.841240
C11   C     C_R   0.862075 0.476011 0.287417 0.935366
C12   C     C_R   0.424213 0.484852 0.985781 0.014087
C13   C     C_R   0.742187 0.351821 0.975398 0.460955
C14   C     C_R   0.777541 0.437076 0.167999 -0.366324
C15   C     C_R   0.178260 0.601835 0.903830 -0.400912
C16   C     C_R   0.273473 0.639330 0.013866 0.540816
C17   C     C_R   0.395814 0.581144 0.052787 -0.152889
C18   C     C_3   0.057322 0.442210 0.093141 -0.170417
C19   C     C_3   0.684395 0.061327 0.484636 -0.259158
C20   C     C_2   0.215256 0.938580 0.514987 0.453559
C21   C     C_2   0.423220 0.649620 0.550196 0.585780
C22   C     C_3   0.780819 0.725681 0.664094 -0.063316
C23   C     C_R   0.327063 0.444469 0.878135 -0.130128
C24   C     C_3   0.515331 0.102343 0.813582 -0.170907
C25   C     C_3   0.808691 0.380988 0.820330 -0.140322
C26   C     C_3   0.520653 0.293015 0.215384 -0.321031
C27   C     C_3   0.166213 0.820943 0.031779 -0.323886
C28   C     C_3   0.162728 0.194878 0.775620 -0.299677
C29   C     C_R   0.553382 0.435424 0.020923 -0.157926
C30   C     C_R   0.598097 0.369331 0.943193 -0.307881
C31   C     C_R   0.493589 0.312240 0.842948 0.458425
C32   C     C_R   0.355520 0.341789 0.815885 0.444685
C33   C     C_R   0.633139 0.439517 0.135369 0.451424
C34   C     C_R   0.833076 0.389105 0.088252 0.344085
H1    H     H_    0.850908 0.869920 0.394225 0.174104
H2    H     H_    0.655019 0.008420 0.400112 0.157018
H3    H     H_    0.650974 0.159036 0.473487 0.169988
H4    H     H_    0.626159 0.009009 0.534051 0.230604
H5    H     H_    0.299258 0.890359 0.570568 0.065954
H6    H     H_    0.378378 0.655063 0.616836 0.052328
H7    H     H_    0.892229 0.710374 0.699022 0.156731
H8    H     H_    0.760233 0.785702 0.729221 0.123631
H9    H     H_    0.758579 0.780754 0.585596 0.202680
H10   H     H_    0.405783 0.065556 0.803187 0.138869
H11   H     H_    0.583870 0.099984 0.904464 0.143629
H12   H     H_    0.558352 0.427694 0.416761 0.120841
H13   H     H_    0.551716 0.036213 0.762459 0.183664
H14   H     H_    0.705326 0.400564 0.760694 0.216317
H15   H     H_    0.863664 0.338243 0.768540 0.190860
H16   H     H_    0.871259 0.473010 0.861595 0.113033
H17   H     H_    0.456086 0.250207 0.128733 0.162844
H18   H     H_    0.453221 0.280830 0.268468 0.171784
H19   H     H_    0.612163 0.239392 0.253474 0.150168
H20   H     H_    0.054641 0.779306 0.002737 0.156512
H21   H     H_    0.195518 0.860459 0.959720 0.147305
H22   H     H_    0.178659 0.902344 0.093580 0.208461
H23   H     H_    0.321727 0.361469 0.416578 0.180163
H24   H     H_    0.087763 0.253824 0.793093 0.163731
H25   H     H_    0.221903 0.149254 0.854901 0.118269
H26   H     H_    0.101438 0.116336 0.712408 0.214430
H27   H     H_    0.084201 0.647540 0.868587 0.152502
H28   H     H_    0.471930 0.617531 0.134324 0.194499
H29   H     H_    0.012737 0.112645 0.368598 0.195210
H30   H     H_    0.164002 0.446378 0.157623 0.192851
H31   H     H_    0.027802 0.541723 0.087648 0.144562
H32   H     H_    0.063271 0.407274 0.010791 0.176402
N1    N     N_2   0.313640 0.446500 0.454900 -0.230568
N2    N     N_2   0.686360 0.553430 0.545150 0.083567
O1    O     O_R   0.936910 0.692950 0.509080 -0.618177
O2    O     O_3   0.828786 0.066066 0.546089 -0.628717
O3    O     O_2   0.242929 0.047620 0.490489 -0.543042
O4    O     O_2   0.470672 0.748345 0.519744 -0.631244
O5    O     O_3   0.693341 0.609106 0.645602 -0.596819
O6    O     O_3   0.523125 0.225827 0.771883 -0.553342
O7    O     O_3   0.794603 0.293062 0.901253 -0.583833
O8    O     O_3   0.564902 0.425010 0.214013 -0.596635
O9    O     O_3   0.253902 0.729923 0.088319 -0.608228
O10   O     O_3   0.251296 0.268753 0.728717 -0.550706
O11   O     O_R   0.138320 0.658600 0.480130 -0.625723
O12   O     O_R   0.002900 0.525670 0.675280 -0.636880
O13   O     O_R   0.204310 0.491320 0.646330 -0.589570
O14   O     O_R   0.861680 0.341400 0.519870 -0.625964
O15   O     O_R   0.063090 0.307050 0.490920 -0.557275
O16   O     O_R   0.795690 0.508680 0.353670 -0.572962
O17   O     O_R   0.997100 0.474330 0.324720 -0.570058
O18   O     O_3   0.967189 0.354204 0.126843 -0.581618
Zn1   Zn    Zn3+2 0.865520 0.522940 0.519330 0.962585
Zn2   Zn    Zn3+2 0.134480 0.477060 0.480670 0.999026

loop_
_geom_bond_atom_site_label_1
_geom_bond_atom_site_label_2
_ccdc_geom_bond_type
C12   C29   A    
O16   Zn1   S    
C18   H30   S    
C14   C33   A    
C27   H20   S    
C18   H31   S    
C12   C23   A    
N1    Zn2   S    
C18   O18   S    
C24   H11   S    
C4    O12   A    
O12   Zn1   S    
C19   H2    S    
C30   C31   A    
C11   C14   S    
C27   H21   S    
C28   H25   S    
C22   H7    S    
O14   Zn1   S    
C29   C33   A    
C10   O15   A    
C16   O9    S    
C34   O18   S    
C25   H16   S    
C19   H3    S    
C4    O13   A    
C13   O7    S    
C8    C9    S    
C12   C17   A    
C26   O8    S    
C20   O3    D    
C28   O10   S    
O1    Zn1   S    
O15   Zn2   S    
C9    H12   S    
H23   N1    S    
O11   Zn2   S    
C28   H26   S    
C21   O4    D    
C13   C30   A    
C5    C7    S    
C20   H5    S    
C27   H22   S    
C16   C17   A    
C31   O6    S    
C3    C5    D    
N2    O5    S    
C10   O14   A    
C1    O1    A    
C1    C3    S    
C2    C4    S    
C14   C34   A    
C29   C30   A    
C19   H4    S    
C26   H18   S    
C17   H28   S    
C33   O8    S    
C31   C32   A    
C8    C21   S    
C15   H27   S    
C3    C20   S    
C2    C15   A    
C25   H14   S    
C7    H29   S    
C1    O11   A    
C26   H19   S    
O17   Zn2   S    
C6    O2    S    
C24   H13   S    
C27   O9    S    
C6    C10   S    
C6    C7    D    
C28   H24   S    
C11   O16   A    
C18   H32   S    
C23   C32   A    
C9    N2    D    
C13   C34   A    
C26   H17   S    
C24   O6    S    
C22   H8    S    
C21   H6    S    
C11   O17   A    
C24   H10   S    
C5    H1    S    
C25   H15   S    
O13   Zn2   S    
C32   O10   S    
C8    N1    D    
C2    C23   A    
N2    Zn1   S    
C19   O2    S    
C22   O5    S    
C25   O7    S    
C22   H9    S    
C15   C16   A    
