data_mof_unit_29930.cif
_audit_creation_date              2013-03-05T15:56:27-0500
_audit_creation_method            fapswitch 2.2
_symmetry_space_group_name_H-M    P1
_symmetry_Int_Tables_number       1
_space_group_crystal_system       triclinic
_cell_length_a                    6.993304
_cell_length_b                    14.741024
_cell_length_c                    15.966712
_cell_angle_alpha                 89.978981
_cell_angle_beta                  89.981831
_cell_angle_gamma                 90.536174
_cell_volume                      1645.91151893

loop_
_atom_site_label
_atom_site_type_symbol
_atom_site_description
_atom_site_fract_x
_atom_site_fract_y
_atom_site_fract_z
_atom_type_partial_charge
O1    O     O_R   0.494400 0.415640 0.412830 -0.595756
O2    O     O_R   0.823920 0.405510 0.586560 -0.564464
O3    O     O_R   0.994250 0.584360 0.587170 -0.565163
C1    C     C_R   0.653535 0.382743 0.614549 1.149166
O4    O     O_R   0.824110 0.404610 0.413450 -0.551345
O5    O     O_R   0.994440 0.583460 0.412820 -0.568916
C2    C     C_R   0.655641 0.381513 0.384909 1.006724
O6    O     O_R   0.494210 0.416540 0.587180 -0.568348
O7    O     O_3   0.660810 0.558680 0.500000 -0.243699
V1    V     V_3+5 0.935650 0.489110 0.500000 1.380627
O8    O     O_R   0.324150 0.594490 0.413440 -0.597784
C3    C     C_R   0.155366 0.614478 0.382891 1.044168
O9    O     O_R   0.323970 0.595390 0.586550 -0.554627
C4    C     C_R   0.156349 0.614599 0.617685 1.165091
V2    V     V_3+5 0.435660 0.510890 0.500000 1.356830
O10   O     O_3   0.160630 0.441320 0.500000 -0.243718
C5    C     C_3   0.021242 0.648346 0.764616 0.649672
C6    C     C_3   0.988158 0.727898 0.828202 0.222127
H1    H     H_    0.008306 0.703594 0.893327 0.221388
H2    H     H_    0.899808 0.759336 0.645021 0.195400
H3    H     H_    0.916400 0.880647 0.727876 0.175643
C7    C     C_3   0.052922 0.774524 0.654842 0.223537
C8    C     C_3   0.350318 0.711566 0.724348 0.139744
C9    C     C_3   0.146700 0.685168 0.688105 -0.604929
H4    H     H_    0.421957 0.648352 0.744199 0.225083
C10   C     C_3   0.121308 0.811175 0.809888 -0.569860
C11   C     C_3   0.063063 0.852953 0.722067 0.114532
C12   C     C_3   0.325635 0.772465 0.804312 0.225123
H5    H     H_    0.426061 0.830214 0.801604 0.228926
C13   C     C_R   0.980087 0.739090 0.186125 0.271925
C14   C     C_R   0.992376 0.674586 0.251582 0.384838
C15   C     C_R   0.142905 0.679620 0.311212 -0.308521
C16   C     C_R   0.282392 0.747978 0.301820 -0.050453
H6    H     H_    0.399652 0.753363 0.345906 0.176947
C17   C     C_R   0.271097 0.811400 0.236712 -0.050583
H7    H     H_    0.380211 0.863857 0.232584 0.152186
C18   C     C_R   0.119801 0.808878 0.178696 -0.335085
C19   C     C_R   0.777402 0.243634 0.687522 0.268838
C20   C     C_R   0.770502 0.180866 0.753988 0.418861
C21   C     C_R   0.623134 0.184035 0.814782 -0.518574
C22   C     C_R   0.483337 0.252165 0.808097 0.415441
C23   C     C_R   0.487430 0.313300 0.740678 0.483776
C24   C     C_R   0.638850 0.312387 0.681679 -0.550219
C25   C     C_R   0.795574 0.247627 0.301802 0.391920
C26   C     C_R   0.780446 0.184850 0.235618 -0.212702
H8    H     H_    0.893985 0.136232 0.226781 0.157423
C27   C     C_R   0.622004 0.183279 0.181795 -0.171849
C28   C     C_R   0.476514 0.246772 0.195291 -0.076261
H9    H     H_    0.352760 0.248075 0.154561 0.156623
C29   C     C_R   0.490864 0.310858 0.260266 -0.021972
H10   H     H_    0.379095 0.360641 0.266547 0.178539
C30   C     C_R   0.648426 0.312418 0.315341 -0.291951
O11   O     O_R   0.771300 0.080930 0.910090 -0.569075
O12   O     O_R   0.441270 0.092800 0.083770 -0.609784
O13   O     O_R   0.271080 0.913920 0.084380 -0.592438
C31   C     C_R   0.610500 0.115199 0.112466 0.933600
O14   O     O_R   0.441580 0.091910 0.910670 -0.545446
O15   O     O_R   0.271390 0.913020 0.910040 -0.572291
C32   C     C_R   0.611285 0.114702 0.882734 1.138616
O16   O     O_R   0.770990 0.081830 0.084440 -0.614214
O17   O     O_3   0.604750 0.938760 0.997250 -0.235912
V3    V     V_3+5 0.329850 0.008280 0.997210 1.312628
O18   O     O_R   0.941680 0.901940 0.910610 -0.545847
C33   C     C_R   0.110008 0.881127 0.880854 1.160844
O19   O     O_R   0.941370 0.902830 0.083720 -0.585262
C34   C     C_R   0.109954 0.879563 0.111580 0.997410
V4    V     V_3+5 0.829860 0.986420 0.997150 1.322527
O20   O     O_3   0.104830 0.056030 0.997180 -0.267450
Cl1   Cl    Cl    0.800042 0.593061 0.735162 -0.500769
Cl2   Cl    Cl    0.134446 0.804983 0.551192 -0.507856
N1    N     N_R   0.181810 0.931131 0.695006 0.309866
O21   O     O_R   0.132174 0.976233 0.628478 -0.185694
O22   O     O_R   0.306319 0.968929 0.744834 -0.349850
N2    N     N_R   0.830588 0.730399 0.125026 0.274463
O23   O     O_R   0.872655 0.718101 0.046526 -0.310953
O24   O     O_R   0.652156 0.731707 0.147994 -0.325854
Cl3   Cl    Cl    0.827418 0.582633 0.251969 -0.567988
N3    N     N_R   0.912702 0.231116 0.620881 0.286972
O25   O     O_R   0.095104 0.227427 0.636232 -0.260629
O26   O     O_R   0.851984 0.219081 0.544685 -0.335031
Cl4   Cl    Cl    0.941498 0.094084 0.755598 -0.483244
Cl5   Cl    Cl    0.305529 0.266310 0.886333 -0.470753
Cl6   Cl    Cl    0.136696 0.558282 0.819417 -0.425675
Cl7   Cl    Cl    0.294242 0.388286 0.730738 -0.441715
N4    N     N_R   0.959916 0.242009 0.355056 0.245395
O27   O     O_R   0.005517 0.163807 0.386735 -0.303699
O28   O     O_R   0.090652 0.305084 0.351033 -0.392703
Cl8   Cl    Cl    0.752709 0.764895 0.828205 -0.559681
N5    N     N_R   0.476638 0.755267 0.660984 0.275636
O29   O     O_R   0.583632 0.705837 0.613118 -0.323053
O30   O     O_R   0.508132 0.842286 0.659947 -0.303486
Cl9   Cl    Cl    0.380819 0.712758 0.901325 -0.435925

loop_
_geom_bond_atom_site_label_1
_geom_bond_atom_site_label_2
_geom_bond_distance
_ccdc_geom_bond_type
O15   V3    2.016735 S    
C5    Cl1   1.804273 S    
C22   C23   1.403743 A    
C17   H7    1.083259 S    
C6    C10   1.561307 S    
C1    O6    1.300445 A    
O11   C32   1.304391 A    
O14   V3    2.004893 S    
C26   H8    1.083811 S    
C10   C11   1.586135 S    
N2    O24   1.300806 A    
C12   H5    1.099335 S    
C17   C18   1.406716 A    
C2    C30   1.507870 S    
O5    C3    1.301468 A    
C19   C20   1.408220 A    
C13   N2    1.435067 S    
N3    O26   1.300372 A    
O14   C32   1.308597 A    
V2    O10   2.171209 S    
O13   V3    2.007081 S    
C6    H1    1.109152 S    
C4    C9    1.533965 S    
C10   C33   1.534849 S    
O8    V2    2.013548 S    
C27   C28   1.405527 A    
O16   V4    2.025336 S    
O19   V4    2.013566 S    
C29   C30   1.410003 A    
C8    C9    1.582499 S    
C8    N5    1.485678 S    
C14   Cl3   1.771698 S    
O1    V2    2.022183 S    
N5    O30   1.299579 A    
O7    V1    2.186972 S    
C25   C30   1.426979 A    
C28   C29   1.406331 A    
H3    C11   1.111315 S    
C21   C32   1.492016 S    
O9    C4    1.306658 A    
C3    C15   1.496777 S    
C16   H6    1.083255 S    
O12   C31   1.308701 A    
C26   C27   1.402471 A    
O15   C33   1.304789 A    
O18   V4    2.022471 S    
C5    C9    1.595845 S    
N2    O23   1.300496 A    
N4    O28   1.299436 A    
V4    O20   2.171113 S    
C23   Cl7   1.760757 S    
C20   Cl4   1.759482 S    
C20   C21   1.416626 A    
O4    C2    1.305596 A    
N3    O25   1.300639 A    
O12   V3    2.013295 S    
C29   H10   1.081805 S    
N4    O27   1.301152 A    
C6    Cl8   1.739375 S    
C31   O16   1.308453 A    
C13   C18   1.417058 A    
C5    Cl6   1.788785 S    
O2    C1    1.313096 A    
O17   V4    1.717903 S    
C14   C15   1.421048 A    
C18   C34   1.496461 S    
C5    C6    1.570114 S    
C12   Cl9   1.824468 S    
C8    C12   1.571430 S    
O3    C4    1.308512 A    
C28   H9    1.083034 S    
H2    C7    1.103137 S    
O6    V2    2.012267 S    
C7    C11   1.578982 S    
O9    V2    2.022410 S    
C7    C9    1.569404 S    
C23   C24   1.417232 A    
C25   N4    1.432861 S    
O2    V1    2.004842 S    
O13   C34   1.305235 A    
C11   N1    1.478472 S    
C25   C26   1.408266 A    
N1    O22   1.301255 A    
C21   C22   1.412156 A    
O1    C2    1.316733 A    
O5    V1    2.007119 S    
O8    C3    1.313293 A    
C1    C24   1.494033 S    
C19   N3    1.436769 S    
C10   C12   1.546148 S    
V3    O20   1.729885 S    
C15   C16   1.403872 A    
O7    V2    1.718927 S    
C19   C24   1.411763 A    
O3    V1    2.016824 S    
V1    O10   1.729874 S    
C13   C14   1.415864 A    
C22   Cl5   1.776002 S    
C16   C17   1.400603 A    
C8    H4    1.108338 S    
O17   V3    2.186992 S    
O11   V4    2.012596 S    
O18   C33   1.308468 A    
O4    V1    2.013326 S    
N1    O21   1.301878 A    
O19   C34   1.308911 A    
N5    O29   1.298132 A    
C7    Cl2   1.805436 S    
C27   C31   1.496110 S    
