data_mof_unit_13279.cif
_audit_creation_date              2012-12-10T19:43:24-0500
_audit_creation_method            fapswitch 2.2
_symmetry_space_group_name_H-M    P1
_symmetry_Int_Tables_number       1
_space_group_crystal_system       triclinic
_cell_length_a                    10.947452
_cell_length_b                    10.877222
_cell_length_c                    9.727233
_cell_angle_alpha                 89.614358
_cell_angle_beta                  91.28952
_cell_angle_gamma                 95.089923
_cell_volume                      1153.42538454

loop_
_atom_site_label
_atom_site_type_symbol
_atom_type_description
_atom_site_fract_x
_atom_site_fract_y
_atom_site_fract_z
_atom_type_partial_charge
C1    C     C_R   0.503605 0.262619 0.501406 0.813457
C2    C     C_R   0.191518 0.576180 0.969052 -0.113505
C3    C     C_R   0.931947 0.511982 0.380322 -0.175853
C4    C     C_R   0.870933 0.490747 0.503931 -0.057176
C5    C     C_R   0.940058 0.465350 0.623527 0.045591
C6    C     C_R   0.066912 0.466510 0.617008 -0.156583
C7    C     C_R   0.128136 0.494153 0.494792 -0.079988
C8    C     C_R   0.058689 0.514732 0.374090 -0.008560
C9    C     C_R   0.890054 0.535708 0.856938 0.407811
C10   C     C_R   0.848140 0.509498 0.989334 -0.204885
C11   C     C_R   0.806633 0.388792 0.026175 -0.171718
C12   C     C_R   0.262596 0.498460 0.498133 0.785638
C13   C     C_R   0.808241 0.293763 0.930564 -0.081549
C14   C     C_R   0.846281 0.319814 0.796715 -0.210593
C15   C     C_R   0.886542 0.440972 0.759136 0.030893
C16   C     C_R   0.542610 0.111375 0.758529 -0.091390
C17   C     C_R   0.509506 0.050055 0.880097 0.490821
C18   C     C_R   0.442543 0.935527 0.874307 -0.146640
C19   C     C_R   0.422969 0.875326 0.749832 -0.197438
C20   C     C_R   0.466140 0.932036 0.627604 0.068951
C21   C     C_R   0.505746 0.058885 0.630038 0.063920
C22   C     C_R   0.500906 0.127126 0.505184 -0.176765
C23   C     C_R   0.486040 0.735347 0.499796 0.889665
C24   C     C_R   0.469440 0.063849 0.383049 -0.168521
C25   C     C_R   0.456003 0.936015 0.380073 0.409270
C26   C     C_R   0.465754 0.868032 0.502006 -0.181702
C27   C     C_R   0.638921 0.704563 0.132933 0.378713
C28   C     C_R   0.679650 0.805023 0.050417 -0.185816
C29   C     C_R   0.686553 0.791948 0.911107 0.342112
C30   C     C_R   0.641413 0.682388 0.851784 -0.157353
C31   C     C_R   0.568918 0.591991 0.924571 -0.002243
C32   C     C_R   0.568705 0.596148 0.073808 0.098457
C33   C     C_R   0.435271 0.411634 0.073166 -0.021388
C34   C     C_R   0.737010 0.495909 0.501834 0.845338
C35   C     C_R   0.433730 0.412275 0.926572 0.459936
C36   C     C_R   0.195444 0.674396 0.061056 -0.029998
C37   C     C_R   0.155181 0.654482 0.195403 -0.045138
C38   C     C_R   0.111800 0.535482 0.237791 0.093392
C39   C     C_R   0.106171 0.437578 0.144661 -0.143854
C40   C     C_R   0.144178 0.458433 0.010297 -0.138964
Cu1   Cu    Cu3+1 0.499990 0.499990 0.640660 0.992129
Cu2   Cu    Cu3+1 0.500010 0.500010 0.359340 1.024494
H1    H     H_    0.775796 0.368424 0.129433 0.180897
H2    H     H_    0.847699 0.245284 0.723610 0.176231
H3    H     H_    0.451614 0.113948 0.289707 0.239907
H4    H     H_    0.370697 0.786148 0.750173 0.173618
H5    H     H_    0.226724 0.766308 0.026967 0.177304
H6    H     H_    0.723736 0.889106 0.095423 0.240937
H7    H     H_    0.666824 0.670636 0.748265 0.254180
H8    H     H_    0.155734 0.731484 0.265471 0.167743
H9    H     H_    0.068612 0.346151 0.174922 0.153349
H10   H     H_    0.133599 0.383366 0.938021 0.192146
N1    N     N_R   0.501190 0.501210 0.147910 -0.207460
N2    N     N_R   0.501230 0.501290 0.852040 -0.218040
O1    O     O_R   0.499990 0.319640 0.618810 -0.543603
O2    O     O_R   0.500000 0.319660 0.381240 -0.584881
O3    O     O_R   0.319640 0.500000 0.618780 -0.567665
O4    O     O_R   0.319650 0.500020 0.381210 -0.580264
O5    O     O_R   0.500000 0.680340 0.618760 -0.624522
O6    O     O_R   0.500010 0.680360 0.381190 -0.486317
O7    O     O_R   0.680350 0.499980 0.618790 -0.604079
O8    O     O_R   0.680360 0.500000 0.381220 -0.549020
H11   H     H_    0.221826 0.592360 0.864923 0.163888
H12   H     H_    0.781954 0.199483 0.960333 0.217186
H13   H     H_    0.596725 0.198759 0.767193 0.176141
Cl1   Cl    Cl    0.548697 0.118664 0.038722 -0.678357
H14   H     H_    0.409989 0.889531 0.965430 0.210358
Cl2   Cl    Cl    0.406763 0.866336 0.225572 -0.688647
H15   H     H_    0.380860 0.339511 0.127064 0.177524
Cl3   Cl    Cl    0.724363 0.724646 0.287515 -0.604239
Cl4   Cl    Cl    0.763062 0.909331 0.811872 -0.562627
Cl5   Cl    Cl    0.338039 0.297038 0.842810 -0.636889
H16   H     H_    0.880983 0.528319 0.286882 0.179633
H17   H     H_    0.118069 0.445413 0.709082 0.172330
Cl6   Cl    Cl    0.952674 0.686153 0.817531 -0.589225
H18   H     H_    0.850355 0.582747 0.063874 0.179491

loop_
_geom_bond_atom_site_label_1
_geom_bond_atom_site_label_2
_ccdc_geom_bond_type
C39   H9    S    
C16   C21   A    
Cu1   Cu2   S    
C19   C20   A    
Cu1   O7    S    
Cu2   O4    S    
C19   H4    S    
C7    C8    A    
C23   O5    A    
C17   Cl1   S    
C29   C30   A    
C24   H3    S    
C36   C37   A    
C1    O2    A    
Cu2   N1    S    
C5    C6    A    
C34   O8    A    
C36   H5    S    
C18   C19   A    
C23   C26   S    
Cu1   O1    S    
Cu2   O2    S    
C10   H18   S    
C28   H6    S    
C16   C17   A    
C11   H1    S    
C9    C10   A    
Cu2   O8    S    
C33   H15   S    
C12   O4    A    
C1    C22   S    
C21   C22   A    
C35   N2    A    
C7    C12   S    
C25   Cl2   S    
C8    C38   S    
C6    H17   S    
C33   N1    A    
C23   O6    A    
C4    C34   S    
C38   C39   A    
C24   C25   A    
Cu1   O5    S    
C3    C8    A    
Cu2   O6    S    
C39   C40   A    
C18   H14   S    
C40   H10   S    
C34   O7    A    
C37   C38   A    
C31   C32   A    
C17   C18   A    
C27   Cl3   S    
C12   O3    A    
C30   H7    S    
C35   Cl5   S    
C22   C24   A    
C3    C4    A    
C32   N1    A    
C2    H11   S    
C14   H2    S    
C2    C36   A    
C28   C29   A    
C27   C32   A    
C4    C5    A    
C6    C7    A    
C25   C26   A    
Cu1   O3    S    
C37   H8    S    
C11   C13   A    
C30   C31   A    
C13   H12   S    
C20   C26   A    
C33   C35   A    
C1    O1    A    
C31   N2    A    
C9    C15   A    
C3    H16   S    
Cu1   N2    S    
C5    C15   S    
C10   C11   A    
C2    C40   A    
C20   C21   A    
C27   C28   A    
C14   C15   A    
C16   H13   S    
C9    Cl6   S    
C13   C14   A    
C29   Cl4   S    
