data_mof_unit_22664.cif
_audit_creation_date              2012-12-10T18:04:37-0500
_audit_creation_method            fapswitch 2.2
_symmetry_space_group_name_H-M    P1
_symmetry_Int_Tables_number       1
_space_group_crystal_system       triclinic
_cell_length_a                    18.925129
_cell_length_b                    19.426634
_cell_length_c                    12.848868
_cell_angle_alpha                 89.876806
_cell_angle_beta                  98.935442
_cell_angle_gamma                 90.269111
_cell_volume                      4666.52055468

loop_
_atom_site_label
_atom_site_type_symbol
_atom_type_description
_atom_site_fract_x
_atom_site_fract_y
_atom_site_fract_z
_atom_type_partial_charge
C1    C     C_R   0.412696 0.103298 0.447093 0.880140
C2    C     C_R   0.409782 0.898692 0.444421 0.903035
C3    C     C_R   0.912050 0.602828 0.447087 0.880176
C4    C     C_R   0.911798 0.397426 0.445094 0.901035
C5    C     C_R   0.714911 0.243884 0.513349 0.001154
C6    C     C_R   0.722179 0.762027 0.532938 -0.011717
C7    C     C_R   0.197983 0.755520 0.500999 -0.000582
C8    C     C_R   0.226864 0.265457 0.534358 -0.011395
C9    C     C_R   0.717089 0.279569 0.610559 -0.119818
C10   C     C_R   0.723385 0.728510 0.630375 -0.077679
C11   C     C_R   0.195178 0.793944 0.594488 -0.121264
C12   C     C_R   0.231551 0.234116 0.634052 -0.077915
C13   C     C_R   0.252238 0.836336 0.632988 0.549324
C14   C     C_R   0.293059 0.199375 0.673520 0.527942
C15   C     C_R   0.778071 0.316924 0.649226 0.552763
C16   C     C_R   0.782776 0.691303 0.670741 0.524285
C17   C     C_R   0.308214 0.842507 0.577315 -0.179849
C18   C     C_R   0.338497 0.179138 0.604549 -0.216704
C19   C     C_R   0.831258 0.323484 0.587751 -0.184514
C20   C     C_R   0.829701 0.671605 0.603768 -0.220441
C21   C     C_R   0.666475 0.189571 0.495782 -0.274817
C22   C     C_R   0.682742 0.822454 0.518286 -0.312863
C23   C     C_R   0.151746 0.698974 0.484837 -0.273758
C24   C     C_R   0.184873 0.324265 0.518121 -0.309460
C25   C     C_R   0.622917 0.208263 0.660923 0.366273
C26   C     C_R   0.624385 0.795189 0.670290 0.403227
C27   C     C_R   0.109539 0.715507 0.651393 0.348960
C28   C     C_R   0.129127 0.296627 0.672281 0.403060
C29   C     C_R   0.356397 0.842590 0.409186 -0.176516
C30   C     C_R   0.365800 0.164743 0.420962 -0.195774
C31   C     C_R   0.863765 0.337459 0.411296 -0.174472
C32   C     C_R   0.864063 0.663554 0.422027 -0.198815
C33   C     C_R   0.642989 0.011871 0.136820 -0.179115
C34   C     C_R   0.144198 0.504300 0.137224 -0.185273
C35   C     C_R   0.377400 0.995123 0.755568 0.526367
C36   C     C_R   0.877890 0.489955 0.755994 0.528550
C37   C     C_R   0.348583 0.981244 0.845424 -0.489650
C38   C     C_R   0.850221 0.472858 0.846171 -0.470462
C39   C     C_R   0.588087 0.898677 0.554925 0.933098
C40   C     C_R   0.585334 0.103724 0.551586 0.886153
C41   C     C_R   0.088356 0.398678 0.554963 0.926845
C42   C     C_R   0.083777 0.604764 0.550468 0.890755
C43   C     C_R   0.393372 0.971041 0.942801 0.591231
C44   C     C_R   0.895724 0.465032 0.943726 0.581452
C45   C     C_R   0.468320 0.989559 0.952110 -0.146680
C46   C     C_R   0.969289 0.486625 0.952221 -0.147904
C47   C     C_R   0.496099 0.999147 0.855838 -0.104423
C48   C     C_R   0.996366 0.498302 0.855981 -0.107713
C49   C     C_R   0.517957 0.995162 0.049822 -0.116650
C50   C     C_R   0.018815 0.491925 0.049954 -0.107442
C51   C     C_R   0.592840 0.997960 0.046769 -0.083583
C52   C     C_R   0.093735 0.491588 0.047100 -0.089984
C53   C     C_R   0.619010 0.988860 0.954047 0.346151
C54   C     C_R   0.118969 0.483212 0.953382 0.339588
C55   C     C_R   0.573108 0.001985 0.858470 0.440108
C56   C     C_R   0.073363 0.501848 0.860039 0.442287
C57   C     C_R   0.498708 0.003394 0.151475 0.673469
C58   C     C_R   0.999301 0.503251 0.150891 0.679904
C59   C     C_R   0.622081 0.007430 0.232775 -0.036229
C60   C     C_R   0.122552 0.503250 0.233063 -0.032421
C61   C     C_R   0.665458 0.268043 0.676863 0.454963
C62   C     C_R   0.670578 0.739318 0.693827 0.465205
C63   C     C_R   0.144099 0.779788 0.660556 0.467331
C64   C     C_R   0.178911 0.243553 0.698344 0.461006
C65   C     C_R   0.626752 0.167309 0.572537 -0.265965
C66   C     C_R   0.633099 0.838799 0.584278 -0.246508
C67   C     C_R   0.117304 0.673098 0.565645 -0.268731
C68   C     C_R   0.135245 0.339784 0.584692 -0.242957
C69   C     C_R   0.354878 0.813256 0.307918 0.222258
C70   C     C_R   0.360672 0.194663 0.319650 0.234338
C71   C     C_R   0.859736 0.310868 0.307798 0.226818
C72   C     C_R   0.861395 0.696050 0.322987 0.230426
C73   C     C_R   0.299846 0.766924 0.267960 0.343784
C74   C     C_R   0.304230 0.240110 0.283972 0.355324
C75   C     C_R   0.806159 0.262441 0.270089 0.338134
C76   C     C_R   0.805448 0.741895 0.286998 0.356754
C77   C     C_R   0.253391 0.741761 0.333018 0.387820
C78   C     C_R   0.256290 0.259275 0.350907 0.380426
C79   C     C_R   0.761900 0.235580 0.337324 0.384541
C80   C     C_R   0.755713 0.759283 0.351985 0.380104
C81   C     C_R   0.249861 0.772242 0.433539 -0.071581
C82   C     C_R   0.268821 0.240627 0.459533 -0.088762
C83   C     C_R   0.763539 0.261812 0.441951 -0.063509
C84   C     C_R   0.765523 0.737994 0.459429 -0.089915
C85   C     C_R   0.304191 0.820988 0.471957 -0.133645
C86   C     C_R   0.324233 0.193063 0.494627 -0.092831
C87   C     C_R   0.819021 0.308984 0.479382 -0.132249
C88   C     C_R   0.819697 0.689156 0.494588 -0.089000
H1    H     H_    0.698497 0.023787 0.133347 0.204701
H2    H     H_    0.200145 0.514131 0.133984 0.200432
H3    H     H_    0.291389 0.973743 0.835047 0.203027
H4    H     H_    0.793688 0.461386 0.836027 0.200638
H5    H     H_    0.661153 0.160767 0.425178 0.257472
H6    H     H_    0.692150 0.858008 0.457273 0.236735
H7    H     H_    0.143787 0.671909 0.412235 0.259381
H8    H     H_    0.192107 0.359065 0.455090 0.237394
H9    H     H_    0.357726 0.854127 0.626477 0.210809
H10   H     H_    0.386592 0.157075 0.643173 0.183051
H11   H     H_    0.883928 0.335275 0.628529 0.197544
H12   H     H_    0.875566 0.647607 0.645386 0.188055
H13   H     H_    0.660378 0.012810 0.304152 0.145932
H14   H     H_    0.160891 0.507947 0.304537 0.147641
N1    N     N_R   0.552340 0.000000 0.237260 -0.154880
N2    N     N_R   0.052340 0.500000 0.237260 -0.154747
N3    N     N_R   0.448170 0.000000 0.762060 -0.120128
N4    N     N_R   0.948170 0.500000 0.762060 -0.124072
O1    O     O_R   0.448200 0.076800 0.373930 -0.537148
O2    O     O_R   0.448200 0.923200 0.373930 -0.593929
O3    O     O_R   0.948200 0.576800 0.373930 -0.536669
O4    O     O_R   0.948200 0.423200 0.373930 -0.591213
O5    O     O_R   0.414750 0.076790 0.542400 -0.605575
O6    O     O_R   0.414750 0.923210 0.542400 -0.593653
O7    O     O_R   0.914750 0.576790 0.542400 -0.616151
O8    O     O_R   0.914750 0.423210 0.542400 -0.584955
O9    O     O_R   0.585240 0.923200 0.457600 -0.627637
O10   O     O_R   0.585240 0.076800 0.457600 -0.640394
O11   O     O_R   0.085240 0.423200 0.457600 -0.627731
O12   O     O_R   0.085240 0.576800 0.457600 -0.639037
O13   O     O_R   0.551780 0.923190 0.626070 -0.543630
O14   O     O_R   0.551780 0.076810 0.626070 -0.517577
O15   O     O_R   0.051780 0.423190 0.626070 -0.559476
O16   O     O_R   0.051780 0.576810 0.626070 -0.518271
Zn1   Zn    Zn3+2 0.522330 0.000000 0.387520 1.010511
Zn2   Zn    Zn3+2 0.022330 0.500000 0.387520 1.012044
Zn3   Zn    Zn3+2 0.477660 0.000000 0.612480 1.037859
Zn4   Zn    Zn3+2 0.977660 0.500000 0.612480 1.034303
O17   O     O_3   0.576644 0.191443 0.730249 -0.609077
C89   C     C_3   0.510545 0.223640 0.694139 -0.251951
H15   H     H_    0.485801 0.199178 0.619592 0.152856
H16   H     H_    0.516281 0.279983 0.678748 0.181338
H17   H     H_    0.475497 0.217359 0.755494 0.199372
O18   O     O_3   0.568217 0.802994 0.726301 -0.583730
C90   C     C_3   0.589966 0.846673 0.813361 -0.214009
H18   H     H_    0.633695 0.883329 0.801724 0.181220
H19   H     H_    0.607452 0.818325 0.886999 0.118028
H20   H     H_    0.542062 0.874602 0.828423 0.187255
O19   O     O_3   0.069426 0.694853 0.726777 -0.615462
C91   C     C_3   0.998697 0.716281 0.693835 -0.253645
H21   H     H_    0.976032 0.686742 0.623364 0.166494
H22   H     H_    0.994793 0.772031 0.673088 0.174625
H23   H     H_    0.967630 0.706503 0.758932 0.196791
O20   O     O_3   0.072133 0.302135 0.727559 -0.589360
C92   C     C_3   0.091365 0.347897 0.813009 -0.213273
H24   H     H_    0.130458 0.388418 0.796282 0.196980
H25   H     H_    0.115128 0.321663 0.887079 0.120531
H26   H     H_    0.041054 0.371393 0.831301 0.173710
O21   O     O_3   0.692153 0.977794 0.955572 -0.648164
C93   C     C_3   0.717887 0.917518 0.011065 -0.285655
H27   H     H_    0.678095 0.889984 0.051691 0.187124
H28   H     H_    0.764370 0.931761 0.071407 0.211290
H29   H     H_    0.737787 0.881508 0.955855 0.176711
O22   O     O_3   0.191667 0.471545 0.950977 -0.641363
C94   C     C_3   0.219187 0.412449 0.008204 -0.278980
H30   H     H_    0.180301 0.384745 0.050365 0.188518
H31   H     H_    0.266021 0.428132 0.067216 0.207726
H32   H     H_    0.239336 0.376002 0.953604 0.176718
O23   O     O_3   0.437609 0.040838 0.161710 -0.588324
C95   C     C_3   0.384134 0.000198 0.197665 -0.045045
H33   H     H_    0.374859 0.009695 0.277876 0.148641
H34   H     H_    0.392688 0.944241 0.193180 0.223658
H35   H     H_    0.332209 0.017180 0.155145 0.133808
O24   O     O_3   0.939452 0.543210 0.158992 -0.591039
C96   C     C_3   0.883339 0.504668 0.191947 -0.060318
H36   H     H_    0.869359 0.518918 0.268529 0.148920
H37   H     H_    0.892510 0.448607 0.196041 0.226136
H38   H     H_    0.833549 0.518995 0.140274 0.137135
O25   O     O_3   0.334602 0.001605 0.658545 -0.717458
H39   H     H_    0.283796 0.005514 0.668073 0.327252
O26   O     O_3   0.834455 0.495220 0.659268 -0.716943
H40   H     H_    0.783570 0.492026 0.668504 0.324735
O27   O     O_3   0.370088 0.928361 0.017457 -0.613531
C97   C     C_3   0.294214 0.927934 0.014197 -0.399677
H41   H     H_    0.266666 0.897033 0.948242 0.209807
H42   H     H_    0.271602 0.981141 0.008552 0.159627
H43   H     H_    0.281076 0.904199 0.087067 0.179513
O28   O     O_3   0.875405 0.422793 0.021296 -0.612220
C98   C     C_3   0.799904 0.416540 0.016665 -0.405296
H44   H     H_    0.777081 0.381263 0.953204 0.217675
H45   H     H_    0.772405 0.467424 0.005688 0.155398
H46   H     H_    0.787977 0.394844 0.091545 0.185674
O29   O     O_3   0.602146 0.005488 0.765973 -0.570400
C99   C     C_3   0.668962 0.041064 0.775806 -0.083243
H47   H     H_    0.713875 0.003968 0.787414 0.173302
H48   H     H_    0.674232 0.082719 0.836102 0.173136
H49   H     H_    0.676607 0.065680 0.701456 0.111469
O30   O     O_3   0.104614 0.513622 0.771301 -0.568496
C100  C     C_3   0.165295 0.558710 0.792100 -0.071301
H50   H     H_    0.215468 0.528656 0.796457 0.173869
H51   H     H_    0.165231 0.592376 0.862530 0.158468
H52   H     H_    0.168427 0.594164 0.726350 0.132294
O31   O     O_3   0.262008 0.857698 0.736852 -0.600427
C101  C     C_3   0.309428 0.812064 0.798845 -0.346321
H53   H     H_    0.288309 0.800104 0.872662 0.188073
H54   H     H_    0.316318 0.761374 0.761126 0.141881
H55   H     H_    0.362317 0.837528 0.819876 0.210746
O32   O     O_3   0.317183 0.204527 0.780604 -0.632386
C102  C     C_3   0.331510 0.139129 0.824231 -0.300974
H56   H     H_    0.385351 0.122493 0.810886 0.170736
H57   H     H_    0.333161 0.142605 0.910641 0.193279
H58   H     H_    0.288191 0.101752 0.794050 0.182145
O33   O     O_3   0.789528 0.338946 0.752897 -0.604300
C103  C     C_3   0.847705 0.302994 0.811124 -0.332936
H59   H     H_    0.836756 0.294888 0.892762 0.202674
H60   H     H_    0.855859 0.250709 0.779422 0.149041
H61   H     H_    0.897305 0.334622 0.815239 0.198477
O34   O     O_3   0.804302 0.694207 0.778745 -0.632125
C104  C     C_3   0.817650 0.628198 0.820418 -0.294978
H62   H     H_    0.873453 0.614160 0.814450 0.168707
H63   H     H_    0.813774 0.629528 0.905401 0.189642
H64   H     H_    0.777267 0.589975 0.783381 0.179787
O35   O     O_3   0.650184 0.320580 0.743896 -0.587108
C105  C     C_3   0.658100 0.298606 0.850182 -0.151033
H65   H     H_    0.662747 0.345362 0.900380 0.155447
H66   H     H_    0.706673 0.265616 0.872291 0.154859
H67   H     H_    0.609352 0.271981 0.869147 0.197172
O36   O     O_3   0.654171 0.685477 0.757773 -0.589112
C106  C     C_3   0.667935 0.702048 0.865982 -0.158647
H68   H     H_    0.705090 0.746514 0.886094 0.147588
H69   H     H_    0.692481 0.656810 0.910327 0.161976
H70   H     H_    0.616467 0.709241 0.895268 0.176485
O37   O     O_3   0.124969 0.831573 0.725490 -0.587759
C107  C     C_3   0.131088 0.810739 0.831748 -0.121881
H71   H     H_    0.148994 0.855606 0.881959 0.157496
H72   H     H_    0.170234 0.768173 0.852664 0.144008
H73   H     H_    0.077964 0.795246 0.851124 0.183931
O38   O     O_3   0.165376 0.189613 0.764230 -0.591264
C108  C     C_3   0.181729 0.206767 0.872186 -0.165035
H74   H     H_    0.217947 0.252882 0.889664 0.149480
H75   H     H_    0.209044 0.161961 0.916193 0.161299
H76   H     H_    0.130665 0.212293 0.904520 0.177359
O39   O     O_3   0.410311 0.826431 0.251914 -0.749803
H77   H     H_    0.415000 0.787874 0.203185 0.359406
O40   O     O_3   0.410648 0.178286 0.256222 -0.693267
H78   H     H_    0.418782 0.219259 0.213665 0.346590
O41   O     O_3   0.911161 0.329148 0.246988 -0.746677
H79   H     H_    0.917722 0.291124 0.198176 0.357758
O42   O     O_3   0.913449 0.681858 0.262037 -0.695844
H80   H     H_    0.922693 0.724087 0.223011 0.346615
O43   O     O_3   0.720354 0.180808 0.297529 -0.726078
H81   H     H_    0.746611 0.139626 0.328792 0.313901
O44   O     O_3   0.694524 0.792251 0.304035 -0.730861
H82   H     H_    0.653628 0.771616 0.331931 0.344277
O45   O     O_3   0.215741 0.683843 0.296358 -0.723427
H83   H     H_    0.238515 0.645823 0.341424 0.314338
O46   O     O_3   0.194153 0.291139 0.304058 -0.731017
H84   H     H_    0.154239 0.270497 0.334382 0.343094
O47   O     O_3   0.292148 0.742671 0.165727 -0.726410
H85   H     H_    0.306133 0.779980 0.120131 0.330541
O48   O     O_3   0.290257 0.262580 0.180663 -0.747578
H86   H     H_    0.308023 0.227547 0.135047 0.332983
O49   O     O_3   0.796318 0.239108 0.167178 -0.730917
H87   H     H_    0.809053 0.276592 0.121003 0.329269
O50   O     O_3   0.793981 0.766826 0.184943 -0.744914
H88   H     H_    0.813265 0.733149 0.138767 0.336490

loop_
_geom_bond_atom_site_label_1
_geom_bond_atom_site_label_2
_ccdc_geom_bond_type
C92   H26   S    
C83   C87   A    
O27   C97   S    
C37   C43   A    
O23   C95   S    
O10   Zn1   S    
O33   C103  S    
C63   O37   S    
C53   C55   A    
C96   H36   S    
C34   C60   A    
C93   H29   S    
C79   O43   S    
O1    Zn1   S    
C72   C76   A    
N1    Zn1   S    
C89   H15   S    
C64   O38   S    
O49   H87   S    
C32   C72   A    
C60   N2    A    
O29   C99   S    
C106  H70   S    
C15   C19   A    
C2    O6    A    
C36   O26   S    
C27   O19   S    
C103  H60   S    
C2    C29   S    
C9    C61   A    
C4    O8    A    
C96   H37   S    
O11   Zn2   S    
C93   H28   S    
C19   C87   A    
C69   O39   S    
O50   H88   S    
O8    Zn4   S    
C60   H14   S    
C42   C67   S    
C23   C67   A    
O45   H83   S    
C6    C22   A    
C38   H4    S    
C53   O21   S    
C78   O46   S    
C49   C57   A    
C80   O44   S    
C92   H25   S    
O44   H82   S    
C61   O35   S    
C41   O15   A    
C102  H57   S    
C14   C18   A    
C99   H47   S    
C22   C66   A    
C100  H52   S    
C57   O23   S    
C34   C52   A    
C95   H35   S    
O4    Zn2   S    
O20   C92   S    
C48   N4    A    
O21   C93   S    
C52   C54   A    
O18   C90   S    
C49   C51   A    
C103  H61   S    
C70   C74   A    
C90   H20   S    
C35   O25   S    
O41   H79   S    
C69   C73   A    
C71   O41   S    
C8    C12   A    
C30   C86   A    
O40   H78   S    
C30   C70   A    
C29   C85   A    
C7    C23   A    
C97   H43   S    
C80   C84   A    
C2    O2    A    
C21   C65   A    
C46   C50   A    
C31   C71   A    
C58   N2    A    
C33   C59   A    
C77   O45   S    
O46   H84   S    
C95   H34   S    
C22   H6    S    
C10   C62   A    
O5    Zn3   S    
C17   C85   A    
C75   O49   S    
C25   C61   A    
C15   O33   S    
C97   H42   S    
C38   C44   A    
C41   C68   S    
C29   C69   A    
C45   C47   A    
O43   H81   S    
C55   O29   S    
C57   N1    A    
C46   C48   A    
O9    Zn1   S    
C103  H59   S    
C37   H3    S    
C36   N4    A    
O31   C101  S    
C26   C66   A    
C101  H55   S    
C76   C80   A    
C96   H38   S    
C31   C87   A    
C93   H27   S    
C3    O7    A    
O25   H39   S    
C18   C86   A    
C19   H11   S    
O34   C104  S    
C42   O12   A    
C54   O22   S    
O7    Zn4   S    
C44   C46   A    
C107  H73   S    
C98   H45   S    
C106  H68   S    
C82   C86   A    
C24   C68   A    
C33   C51   A    
C104  H62   S    
C51   C53   A    
C99   H49   S    
C59   H13   S    
C95   H33   S    
O16   Zn4   S    
C102  H58   S    
C7    C11   A    
C34   H2    S    
O35   C105  S    
C5    C9    A    
O37   C107  S    
C35   N3    A    
C33   H1    S    
C104  H64   S    
C78   C82   A    
C50   C52   A    
C108  H74   S    
C20   H12   S    
C105  H67   S    
C45   C49   A    
C16   C20   A    
C98   H46   S    
O48   H86   S    
C50   C58   A    
C25   C65   A    
C3    C32   S    
O3    Zn2   S    
O26   H40   S    
O12   Zn2   S    
O36   C106  S    
C94   H32   S    
C107  H72   S    
C76   O50   S    
C43   C45   A    
O6    Zn3   S    
C27   C63   A    
C1    O1    A    
C73   O47   S    
O13   Zn3   S    
O28   C98   S    
C7    C81   A    
C12   C14   A    
C98   H44   S    
C39   O9    A    
C40   C65   S    
C25   O17   S    
C90   H18   S    
C91   H22   S    
C8    C82   A    
C94   H31   S    
O2    Zn1   S    
O17   C89   S    
C58   O24   S    
C89   H17   S    
C28   C64   A    
C74   O48   S    
C26   O18   S    
C97   H41   S    
C42   O16   A    
C47   C55   A    
O24   C96   S    
C35   C37   A    
C48   C56   A    
C12   C64   A    
C4    O4    A    
C43   O27   S    
C40   O14   A    
O14   Zn3   S    
C62   O36   S    
C44   O28   S    
C56   O30   S    
O32   C102  S    
C28   C68   A    
C91   H23   S    
C89   H16   S    
C6    C10   A    
C28   O20   S    
O47   H85   S    
C5    C83   A    
N2    Zn2   S    
N3    Zn3   S    
C106  H69   S    
O19   C91   S    
N4    Zn4   S    
C16   O34   S    
C13   O31   S    
C13   C17   A    
C59   N1    A    
C101  H53   S    
C24   H8    S    
C14   O32   S    
C100  H50   S    
C39   C66   S    
C108  H75   S    
C10   C16   A    
C1    O5    A    
C71   C75   A    
C11   C13   A    
C40   O10   A    
C84   C88   A    
C21   H5    S    
C3    O3    A    
C39   O13   A    
C20   C88   A    
C36   C38   A    
C1    C30   S    
C8    C24   A    
C23   H7    S    
C54   C56   A    
C26   C62   A    
C102  H56   S    
C77   C81   A    
C99   H48   S    
C100  H51   S    
C4    C31   S    
C27   C67   A    
C91   H21   S    
C105  H66   S    
C79   C83   A    
O15   Zn4   S    
C108  H76   S    
C5    C21   A    
C105  H65   S    
C17   H9    S    
O38   C108  S    
C74   C78   A    
O39   H77   S    
C104  H63   S    
C90   H19   S    
C73   C77   A    
C72   O42   S    
O22   C94   S    
C18   H10   S    
C6    C84   A    
C47   N3    A    
O30   C100  S    
O42   H80   S    
C11   C63   A    
C75   C79   A    
C107  H71   S    
C70   O40   S    
C41   O11   A    
C81   C85   A    
C92   H24   S    
C9    C15   A    
C101  H54   S    
C94   H30   S    
C32   C88   A    
