data_mof_unit_51565.cif
_audit_creation_date              2012-12-11T14:36:28-0500
_audit_creation_method            fapswitch 2.2
_symmetry_space_group_name_H-M    P1
_symmetry_Int_Tables_number       1
_space_group_crystal_system       triclinic
_cell_length_a                    13.52061
_cell_length_b                    13.542832
_cell_length_c                    27.462633
_cell_angle_alpha                 90.647156
_cell_angle_beta                  89.840928
_cell_angle_gamma                 59.979558
_cell_volume                      4353.52265107

loop_
_atom_site_label
_atom_site_type_symbol
_atom_type_description
_atom_site_fract_x
_atom_site_fract_y
_atom_site_fract_z
_atom_type_partial_charge
C1    C     C_R   0.621827 0.103289 0.569122 0.536144
C2    C     C_1   0.662503 0.678805 0.654347 -0.045733
C3    C     C_3   0.329964 0.693114 0.297025 -0.001630
C4    C     C_3   0.209633 0.728103 0.315051 -0.257556
C5    C     C_3   0.194298 0.624694 0.321429 -0.488639
C6    C     C_3   0.556883 0.913661 0.722047 -0.008263
C7    C     C_3   0.564538 0.981821 0.680525 -0.252190
C8    C     C_3   0.447299 0.063163 0.661519 -0.446874
C9    C     C_3   0.294965 0.239224 0.088530 0.015211
C10   C     C_3   0.414159 0.177609 0.111294 -0.280886
C11   C     C_3   0.506133 0.109911 0.072902 -0.471767
C12   C     C_3   0.041438 0.193906 0.734645 -0.103416
C13   C     C_R   0.600310 0.778068 0.568457 0.538415
C14   C     C_3   0.112913 0.095142 0.770091 -0.098515
C15   C     C_1   0.089127 0.205772 0.899801 -0.016577
C16   C     C_1   0.211066 0.146962 0.613708 -0.031936
C17   C     C_3   0.055775 0.277591 0.768955 -0.106364
C18   C     C_3   0.127709 0.178683 0.803501 0.051467
C19   C     C_3   0.166447 0.251602 0.741412 -0.095217
C20   C     C_3   0.151866 0.168113 0.707877 0.049438
C21   C     C_1   0.638060 0.718243 0.613903 -0.028481
C22   C     C_3   0.237929 0.153015 0.776623 -0.098166
C23   C     C_3   0.223688 0.069255 0.742494 -0.107968
C24   C     C_1   0.111078 0.189415 0.856732 -0.058228
C25   C     C_R   0.272536 0.124319 0.568117 0.535873
C26   C     C_1   0.175759 0.159554 0.655158 -0.066512
C27   C     C_3   0.567416 0.232656 0.743549 0.304678
C28   C     C_3   0.635226 0.132101 0.777801 -0.064273
C29   C     C_1   0.699805 0.214352 0.900087 -0.011625
C30   C     C_1   0.643519 0.143058 0.614564 -0.032036
C31   C     C_3   0.609722 0.305280 0.769951 -0.097089
C32   C     C_3   0.706009 0.525691 0.763392 -0.127170
C33   C     C_3   0.679717 0.203322 0.803513 0.018446
C34   C     C_3   0.712885 0.257151 0.733483 -0.152531
C35   C     C_3   0.668418 0.185495 0.707745 0.031405
C36   C     C_3   0.783096 0.156365 0.768358 -0.117904
C37   C     C_R   0.622131 0.098637 0.430965 0.545552
C38   C     C_3   0.738389 0.084884 0.742031 -0.134979
C39   C     C_1   0.687924 0.208838 0.856747 -0.053876
C40   C     C_1   0.657581 0.167740 0.655406 -0.066632
C41   C     C_R   0.727957 0.713379 0.356434 -0.137173
C42   C     C_R   0.738872 0.700988 0.305838 0.020100
C43   C     C_3   0.701009 0.613119 0.801170 0.017170
C44   C     C_R   0.759798 0.673796 0.204373 0.021718
C45   C     C_R   0.852648 0.659965 0.232151 -0.130285
C46   C     C_R   0.841960 0.674238 0.282641 -0.131981
C47   C     C_R   0.773340 0.645622 0.154928 -0.133380
C48   C     C_R   0.682844 0.647846 0.129010 -0.003751
C49   C     C_R   0.599812 0.779535 0.429273 0.545171
C50   C     C_R   0.533693 0.747793 0.350955 -0.117906
C51   C     C_R   0.540703 0.741543 0.300598 0.011537
C52   C     C_R   0.644229 0.717349 0.277863 0.022989
C53   C     C_R   0.445620 0.760483 0.272569 0.258654
C54   C     C_3   0.600804 0.623261 0.737639 -0.149732
C55   C     C_R   0.454990 0.754177 0.221933 -0.114989
C56   C     C_R   0.559509 0.722757 0.199371 -0.035675
C57   C     C_R   0.653973 0.706602 0.227154 0.050289
C58   C     C_R   0.573800 0.696849 0.149975 -0.134852
C59   C     C_R   0.624888 0.738287 0.378970 -0.015704
C60   C     C_R   0.193701 0.076451 0.359047 -0.124664
C61   C     C_R   0.282619 0.119041 0.429897 0.544850
C62   C     C_R   0.170119 0.086110 0.309181 0.040823
C63   C     C_R   0.122767 0.107967 0.209369 -0.007472
C64   C     C_R   0.092599 0.042079 0.238280 -0.109711
C65   C     C_3   0.682260 0.645558 0.705982 0.049724
C66   C     C_R   0.116067 0.031397 0.287953 -0.076768
C67   C     C_R   0.090502 0.127326 0.160969 -0.182995
C68   C     C_R   0.112120 0.201074 0.133064 -0.009497
C69   C     C_R   0.271801 0.202869 0.350471 -0.123474
C70   C     C_R   0.252365 0.210270 0.300960 0.006884
C71   C     C_R   0.201104 0.152104 0.279987 0.063707
C72   C     C_R   0.283993 0.274855 0.272266 -0.150185
C73   C     C_3   0.787337 0.548158 0.730959 -0.144423
C74   C     C_R   0.263599 0.283371 0.222558 -0.118065
C75   C     C_R   0.209295 0.228837 0.201021 0.025624
C76   C     C_3   0.596126 0.709502 0.776601 -0.103300
C77   C     C_R   0.178789 0.161984 0.229982 0.017560
C78   C     C_R   0.180826 0.243597 0.151587 0.254394
C79   C     C_R   0.243819 0.135532 0.379688 -0.002182
C80   C     C_R   0.569520 0.236066 0.362963 -0.144030
C81   C     C_R   0.574548 0.254101 0.313184 0.012282
C82   C     C_R   0.583313 0.286497 0.212734 0.009904
C83   C     C_R   0.508248 0.377625 0.243055 -0.140592
C84   C     C_R   0.503544 0.361342 0.292976 -0.148887
C85   C     C_3   0.783143 0.634257 0.770079 -0.065464
C86   C     C_R   0.595846 0.303555 0.163538 -0.146940
C87   C     C_3   0.678161 0.729170 0.744982 0.315531
C88   C     C_R   0.676919 0.212559 0.134683 -0.011014
C89   C     C_R   0.722072 0.039295 0.352255 -0.128877
C90   C     C_R   0.724636 0.054521 0.302620 0.008558
C91   C     C_R   0.650322 0.162074 0.282808 0.065137
C92   C     C_R   0.798371 0.962689 0.272418 -0.132625
C93   C     C_R   0.798904 0.977289 0.222466 -0.134186
C94   C     C_R   0.727772 0.084637 0.202540 0.010201
C95   C     C_R   0.652785 0.177544 0.232609 0.064310
C96   C     C_R   0.736387 0.102215 0.153513 -0.142640
C97   C     C_1   0.706117 0.589614 0.897382 -0.009343
C98   C     C_1   0.704481 0.602076 0.854060 -0.055626
C99   C     C_R   0.641909 0.128061 0.382346 -0.001953
C100  C     C_R   0.047544 0.237215 0.949122 0.535989
C101  C     C_R   0.713107 0.559769 0.947468 0.541483
C102  C     C_R   0.723991 0.226712 0.950020 0.540219
C103  C     C_R   0.048648 0.244241 0.087975 0.551825
C104  C     C_R   0.706994 0.577229 0.085349 0.545996
C105  C     C_R   0.717977 0.234038 0.089091 0.546178
C106  C     C_3   0.405394 0.368052 0.703208 0.005109
C107  C     C_3   0.317233 0.469708 0.733664 -0.265849
C108  C     C_3   0.262297 0.578919 0.704138 -0.483685
Cr1   Cr    Cr6+3 0.417550 0.169090 0.500530 1.008680
Cr2   Cr    Cr6+3 0.669180 0.913420 0.499920 1.018708
Cr3   Cr    Cr6+3 0.413260 0.917540 0.499520 1.019148
Cr4   Cr    Cr6+3 0.909170 0.177380 0.020380 1.013921
Cr5   Cr    Cr6+3 0.912710 0.429210 0.018220 1.033838
Cr6   Cr    Cr6+3 0.657170 0.432570 0.019030 1.017350
H1    H     H_    0.856813 0.640938 0.783730 0.111815
H2    H     H_    0.797804 0.707287 0.378008 0.116440
H3    H     H_    0.934207 0.635266 0.214993 0.111556
H4    H     H_    0.914865 0.662138 0.303613 0.097819
H5    H     H_    0.503061 0.702177 0.129301 0.125947
H6    H     H_    0.453446 0.767993 0.368195 0.179341
H7    H     H_    0.040331 0.091845 0.146305 0.145457
H8    H     H_    0.173751 0.023339 0.381564 0.115555
H9    H     H_    0.048558 0.000988 0.222694 0.106385
H10   H     H_    0.287701 0.335230 0.201440 0.155999
H11   H     H_    0.323176 0.319966 0.288443 0.118782
H12   H     H_    0.318780 0.136158 0.794072 0.114457
H13   H     H_    0.313678 0.246458 0.365848 0.137980
H14   H     H_    0.549156 0.388744 0.148840 0.129600
H15   H     H_    0.454261 0.461447 0.228174 0.096629
H16   H     H_    0.444822 0.432350 0.315838 0.095570
H17   H     H_    0.797285 0.031331 0.130926 0.125934
H18   H     H_    0.518259 0.776844 0.795442 0.093524
H19   H     H_    0.857249 0.905615 0.199635 0.106353
H20   H     H_    0.855694 0.879805 0.287463 0.106665
H21   H     H_    0.777572 0.955124 0.366741 0.131823
H22   H     H_    0.719346 0.441325 0.773837 0.119050
H23   H     H_    0.187896 0.316227 0.728837 0.117173
H24   H     H_    0.091802 0.030034 0.782432 0.100835
H25   H     H_    0.292677 0.983019 0.731108 0.091021
H26   H     H_    0.361414 0.354710 0.671849 0.153123
H27   H     H_    0.469458 0.388143 0.687515 0.126015
H28   H     H_    0.249622 0.452405 0.746706 0.165415
H29   H     H_    0.358894 0.482343 0.766018 0.161538
H30   H     H_    0.328145 0.599557 0.691827 0.144135
H31   H     H_    0.198412 0.650752 0.727116 0.149684
H32   H     H_    0.218336 0.569083 0.671906 0.153032
H33   H     H_    0.745350 0.306541 0.713892 0.104502
H34   H     H_    0.987067 0.363421 0.780913 0.109323
H35   H     H_    0.864939 0.481606 0.711739 0.108785
H36   H     H_    0.381789 0.768669 0.200502 0.115853
H37   H     H_    0.393341 0.631595 0.323013 0.130883
H38   H     H_    0.342427 0.651053 0.260642 0.121465
H39   H     H_    0.192895 0.774541 0.350480 0.167022
H40   H     H_    0.146390 0.785981 0.288199 0.157892
H41   H     H_    0.212145 0.575897 0.286597 0.144974
H42   H     H_    0.104956 0.653645 0.332863 0.139947
H43   H     H_    0.252543 0.568115 0.349932 0.143201
H44   H     H_    0.510878 0.971457 0.753410 0.138341
H45   H     H_    0.601836 0.081739 0.795961 0.120855
H46   H     H_    0.505781 0.874170 0.709483 0.117755
H47   H     H_    0.603966 0.029826 0.694257 0.193274
H48   H     H_    0.618782 0.924265 0.650562 0.186337
H49   H     H_    0.411598 0.011376 0.646609 0.149370
H50   H     H_    0.452483 0.116071 0.632406 0.181041
H51   H     H_    0.391796 0.120535 0.691188 0.183454
H52   H     H_    0.090182 0.982226 0.309943 0.108295
H53   H     H_    0.294851 0.295531 0.059399 0.161620
H54   H     H_    0.276261 0.176470 0.070318 0.117240
H55   H     H_    0.432040 0.241160 0.128924 0.174692
H56   H     H_    0.792196 0.994203 0.730549 0.137324
H57   H     H_    0.417549 0.117884 0.139523 0.165240
H58   H     H_    0.488113 0.047848 0.053896 0.147555
H59   H     H_    0.590559 0.061914 0.090634 0.156784
H60   H     H_    0.509834 0.168391 0.045856 0.150416
H61   H     H_    0.507287 0.304404 0.386184 0.113552
H62   H     H_    0.526612 0.617328 0.724117 0.104457
H63   H     H_    0.960982 0.211079 0.716799 0.103321
H64   H     H_    0.872728 0.124639 0.779455 0.116026
H65   H     H_    0.557392 0.395603 0.782012 0.096074
H66   H     H_    0.857190 0.610716 0.138191 0.136779
O1    O     O_R   0.301710 0.195650 0.554160 -0.512204
O2    O     O_R   0.635520 0.542770 0.964420 -0.510153
O3    O     O_R   0.665950 0.325030 0.970100 -0.497298
O4    O     O_R   0.522390 0.158990 0.550460 -0.503682
O5    O     O_R   0.816620 0.158530 0.074540 -0.522325
O6    O     O_R   0.004460 0.188870 0.069750 -0.517249
O7    O     O_R   0.025800 0.341780 0.072300 -0.469120
O8    O     O_R   0.807650 0.528950 0.067500 -0.501920
O9    O     O_R   0.633420 0.550490 0.071810 -0.520807
O10   O     O_R   0.664000 0.332180 0.069640 -0.500326
O11   O     O_3   0.826350 0.346390 0.019210 -0.247794
O12   O     O_R   0.658900 0.818120 0.449760 -0.499851
O13   O     O_R   0.694390 0.003530 0.554040 -0.504962
O14   O     O_R   0.657700 0.819660 0.549320 -0.494846
O15   O     O_R   0.501930 0.803280 0.552920 -0.508118
O16   O     O_R   0.318170 0.023580 0.549580 -0.494481
O17   O     O_R   0.303010 0.193990 0.446760 -0.523667
O18   O     O_R   0.523600 0.157450 0.450900 -0.503421
O19   O     O_R   0.695690 0.001860 0.446640 -0.522310
O20   O     O_3   0.453074 0.268157 0.731467 -0.593661
O21   O     O_3   0.341552 0.790924 0.294296 -0.580365
O22   O     O_3   0.669002 0.835216 0.736299 -0.580221
O23   O     O_R   0.503220 0.801620 0.445520 -0.524512
O24   O     O_3   0.210366 0.309370 0.123307 -0.568775
O25   O     O_R   0.319370 0.022040 0.450020 -0.498059
O26   O     O_3   0.499990 0.000010 0.499990 -0.244548
O27   O     O_R   0.818720 0.150820 0.967160 -0.507629
O28   O     O_R   0.006410 0.181720 0.970200 -0.496321
O29   O     O_R   0.027890 0.334070 0.964920 -0.511494
O30   O     O_R   0.809600 0.521790 0.967960 -0.497469

loop_
_geom_bond_atom_site_label_1
_geom_bond_atom_site_label_2
_ccdc_geom_bond_type
C74   H10   S    
C55   C56   A    
C88   C96   A    
C60   C79   A    
C93   C94   A    
Cr6   O10   S    
C41   C42   A    
C14   C18   S    
C4    H40   S    
C19   C20   S    
C68   C103  S    
C108  H30   S    
C15   C100  S    
C2    C65   S    
C49   O23   A    
C97   C98   T    
C100  O28   A    
C7    C8    S    
C49   O12   A    
C45   C46   A    
C10   H55   S    
C7    H47   S    
C3    H38   S    
C33   C39   S    
C89   C99   A    
C18   C24   S    
C50   C59   A    
C60   H8    S    
C23   H25   S    
Cr4   O5    S    
C78   O24   S    
Cr5   O30   S    
C83   H15   S    
C93   H19   S    
C8    H51   S    
C32   H22   S    
Cr4   O6    S    
C86   C88   A    
C22   H12   S    
C106  C107  S    
C45   H3    S    
Cr6   O3    S    
Cr5   O7    S    
C100  O29   A    
C43   C76   S    
C33   C36   S    
C65   C73   S    
C56   C57   A    
C46   H4    S    
C60   C62   A    
C34   C35   S    
C42   C46   A    
C54   H62   S    
C63   C77   A    
C1    C30   S    
Cr4   O27   S    
Cr1   O17   S    
C14   H24   S    
C12   C17   S    
Cr2   O14   S    
C107  C108  S    
C43   C98   S    
C65   C87   S    
C70   C71   A    
Cr6   O11   S    
C9    C10   S    
Cr3   O25   S    
C87   O22   S    
C44   C47   A    
Cr3   O16   S    
C53   C55   A    
C4    H39   S    
C11   H58   S    
Cr6   O9    S    
C68   C78   A    
C12   C20   S    
Cr1   O18   S    
C94   C95   A    
C103  O6    A    
Cr1   O26   S    
C2    C21   T    
C104  O8    A    
C67   H7    S    
C32   C54   S    
C6    H44   S    
C1    O4    A    
C25   O1    A    
C38   H56   S    
C108  H32   S    
C85   C87   S    
C16   C26   T    
Cr5   O11   S    
C7    H48   S    
C63   C67   A    
C11   H59   S    
C74   C75   A    
C62   C66   A    
C27   C31   S    
C67   C68   A    
C43   C85   S    
C47   C48   A    
C85   H1    S    
C19   C22   S    
C36   H64   S    
Cr4   O28   S    
C72   C74   A    
C8    H50   S    
C61   O17   A    
C32   C73   S    
C54   C65   S    
C66   H52   S    
C17   H34   S    
C80   C81   A    
C27   C35   S    
C10   H57   S    
Cr6   O2    S    
Cr5   O8    S    
C86   H14   S    
C28   H45   S    
C53   O21   S    
C51   C52   A    
C31   H65   S    
C51   C53   A    
C64   C66   A    
C14   C23   S    
C1    O13   A    
C47   H66   S    
C9    O24   S    
C34   H33   S    
C90   C92   A    
C83   C84   A    
C76   C87   S    
C20   C23   S    
C28   C38   S    
C44   C57   A    
C19   H23   S    
C29   C39   T    
Cr2   O13   S    
C31   C33   S    
C50   C51   A    
C31   C34   S    
C13   C21   S    
Cr2   O26   S    
C37   O18   A    
C107  H28   S    
C94   C96   A    
C75   C77   A    
Cr3   O26   S    
C73   C85   S    
C25   O16   A    
C89   H21   S    
C96   H17   S    
C54   C76   S    
Cr1   O4    S    
C15   C24   T    
C12   C14   S    
C28   C33   S    
C5    H43   S    
C13   O14   A    
C80   C99   A    
C3    O21   S    
C50   H6    S    
C69   C79   A    
C102  O3    A    
C41   H2    S    
C107  H29   S    
C3    C4    S    
C64   H9    S    
C71   C77   A    
C81   C84   A    
C44   C45   A    
C55   H36   S    
C106  O20   S    
C108  H31   S    
C102  O27   A    
C106  H26   S    
Cr1   O1    S    
C16   C25   S    
C30   C40   T    
C42   C52   A    
C11   H60   S    
C82   C95   A    
C73   H35   S    
Cr2   O19   S    
C18   C22   S    
C105  O10   A    
C9    H54   S    
C92   H20   S    
C27   O20   S    
C80   H61   S    
C4    C5    S    
C8    H49   S    
C52   C57   A    
C6    H46   S    
C48   C58   A    
C6    O22   S    
C6    C7    S    
C101  O30   A    
C5    H42   S    
C3    H37   S    
C29   C102  S    
C49   C59   S    
C17   C18   S    
C72   H11   S    
C36   C38   S    
C35   C40   S    
Cr5   O29   S    
C5    H41   S    
Cr4   O11   S    
C82   C86   A    
C88   C105  S    
C76   H18   S    
C37   C99   S    
C90   C91   A    
C20   C26   S    
C61   C79   S    
C104  O9    A    
C84   H16   S    
C92   C93   A    
C17   C19   S    
C32   C43   S    
C56   C58   A    
C62   C71   A    
C12   H63   S    
C34   C36   S    
C37   O19   A    
C69   C70   A    
C75   C78   A    
C105  O5    A    
C10   C11   S    
C91   C95   A    
C63   C64   A    
C81   C91   A    
C58   H5    S    
C69   H13   S    
C82   C83   A    
C13   O15   A    
C41   C59   A    
C61   O25   A    
C27   C28   S    
Cr3   O23   S    
C22   C23   S    
C9    H53   S    
C70   C72   A    
Cr2   O12   S    
C89   C90   A    
C106  H27   S    
C103  O7    A    
C97   C101  S    
C101  O2    A    
Cr3   O15   S    
C35   C38   S    
C48   C104  S    
