data_mof_unit_34755.cif
_audit_creation_date              2012-10-26T20:32:00-0400
_audit_creation_method            fapswitch 2.2
_symmetry_space_group_name_H-M    P1
_symmetry_Int_Tables_number       1
_space_group_crystal_system       triclinic
_cell_length_a                    10.698411
_cell_length_b                    10.854091
_cell_length_c                    9.701228
_cell_angle_alpha                 90.469268
_cell_angle_beta                  88.767116
_cell_angle_gamma                 91.061618
_cell_volume                      1126.03308058

loop_
_atom_site_label
_atom_site_type_symbol
_atom_type_description
_atom_site_fract_x
_atom_site_fract_y
_atom_site_fract_z
_atom_type_partial_charge
C1    C     C_R   0.498053 0.262921 0.499430 0.559267
C2    C     C_R   0.453065 0.936919 0.613651 0.106293
C3    C     C_3   0.498374 0.935956 0.757348 0.679728
C4    C     C_R   0.260313 0.496184 0.501514 0.607467
C5    C     C_3   0.487350 0.075482 0.760074 0.205988
C6    C     C_R   0.605052 0.532017 0.070973 0.109680
C7    C     C_R   0.400833 0.454897 0.074998 0.448674
C8    C     C_R   0.401614 0.453680 0.927482 0.037964
C9    C     C_R   0.600745 0.540871 0.925293 0.071115
C10   C     C_3   0.652268 0.669187 0.929292 -0.221472
C11   C     C_3   0.678137 0.649308 0.082675 0.129184
C12   C     C_3   0.969723 0.581337 0.405889 0.334242
C13   C     C_R   0.499855 0.737312 0.499986 0.587517
C14   C     C_R   0.740504 0.503553 0.498649 0.616522
C15   C     C_3   0.033228 0.418640 0.595720 0.219937
C16   C     C_3   0.955646 0.388125 0.468076 0.267120
C17   C     C_3   0.878156 0.504738 0.495985 -0.024015
C18   C     C_3   0.957092 0.535104 0.622371 0.303738
C19   C     C_3   0.048125 0.610127 0.532113 0.421001
C20   C     C_3   0.424749 0.126261 0.982265 0.005952
C21   C     C_3   0.309090 0.127736 0.076117 -0.302595
C22   C     C_3   0.883791 0.590332 0.013962 0.064845
C23   C     C_3   0.047664 0.464226 0.375523 -0.197763
C24   C     C_3   0.999923 0.527780 0.060768 -0.307697
C25   C     C_3   0.968975 0.274017 0.755795 0.018958
C26   C     C_3   0.010232 0.200166 0.878629 -0.348617
C27   C     C_3   0.124270 0.494500 0.504663 -0.077483
C28   C     C_R   0.448449 0.063965 0.613280 0.008510
C29   C     C_R   0.488356 0.129586 0.496660 -0.012105
C30   C     C_R   0.514825 0.064067 0.374090 -0.138997
C31   C     C_R   0.515380 0.935568 0.374089 -0.132820
C32   C     C_R   0.492441 0.870894 0.497449 0.026608
Cu1   Cu    Cu3+1 0.499990 0.499980 0.640670 1.067468
Cu2   Cu    Cu3+1 0.500010 0.500020 0.359330 1.084518
F1    F     F_    0.905753 0.274154 0.432290 -0.612314
F2    F     F_    0.621288 0.899435 0.764509 -0.665287
F3    F     F_    0.298770 0.408826 0.142349 -0.674072
F4    F     F_    0.908508 0.583164 0.740512 -0.682832
F5    F     F_    0.097618 0.724641 0.566506 -0.539685
F6    F     F_    0.939445 0.676890 0.321170 -0.544972
F7    F     F_    0.416059 0.874030 0.845825 -0.603419
H1    H     H_    0.576823 0.128489 0.772393 0.102027
H2    H     H_    0.483349 0.048016 0.014346 0.161432
H3    H     H_    0.259922 0.036796 0.072097 0.191600
H4    H     H_    0.244634 0.199604 0.042155 0.198113
H5    H     H_    0.335559 0.147979 0.183929 0.146158
H6    H     H_    0.914727 0.674956 0.958165 0.232815
H7    H     H_    0.837893 0.519365 0.948503 0.172810
H8    H     H_    0.970944 0.440875 0.112392 0.148254
H9    H     H_    0.059096 0.503583 0.969329 0.161380
H10   H     H_    0.056201 0.590065 0.126929 0.225126
H11   H     H_    0.927710 0.208670 0.679765 0.218175
H12   H     H_    0.321246 0.416189 0.874646 0.173786
H13   H     H_    0.896080 0.339108 0.792835 0.145591
H14   H     H_    0.047709 0.263331 0.958808 0.151145
H15   H     H_    0.929181 0.147655 0.923179 0.132442
H16   H     H_    0.083759 0.134467 0.845927 0.217458
H17   H     H_    0.730925 0.686921 0.856103 0.228782
H18   H     H_    0.575660 0.734848 0.918076 0.226417
H19   H     H_    0.632439 0.717957 0.151402 0.160993
H20   H     H_    0.095619 0.426889 0.282847 0.200124
H21   H     H_    0.541553 0.111664 0.280023 0.140653
H22   H     H_    0.540241 0.887898 0.279314 0.143226
H23   H     H_    0.479323 0.213331 0.996250 0.121072
N1    N     N_R   0.500800 0.500930 0.147930 -0.247421
N2    N     N_R   0.500800 0.500890 0.852020 -0.274384
O1    O     O_R   0.500000 0.319640 0.618810 -0.510229
O2    O     O_3   0.802828 0.624636 0.124098 -0.473347
O3    O     O_3   0.073593 0.336704 0.697025 -0.527377
O4    O     O_R   0.500010 0.319680 0.381230 -0.496978
O5    O     O_R   0.316850 0.499950 0.618770 -0.477792
O6    O     O_R   0.316860 0.499990 0.381190 -0.439450
O7    O     O_R   0.499990 0.680320 0.618770 -0.443130
O8    O     O_R   0.500000 0.680360 0.381190 -0.532072
O9    O     O_R   0.683140 0.500010 0.618810 -0.488174
O10   O     O_R   0.683150 0.500050 0.381230 -0.456894
O11   O     O_3   0.386499 0.115494 0.844154 -0.528483

loop_
_geom_bond_atom_site_label_1
_geom_bond_atom_site_label_2
_ccdc_geom_bond_type
C15   C18   S    
C22   H7    S    
C5    H1    S    
C8    N2    A    
C13   C32   S    
C26   H14   S    
C4    C27   S    
C6    C9    A    
C7    C8    A    
C12   C23   S    
C20   O11   S    
C28   C29   A    
C10   H17   S    
C16   F1    S    
C30   C31   A    
C15   C16   S    
C21   H3    S    
C2    C32   A    
C18   C19   S    
C9    N2    A    
Cu1   O9    S    
C6    N1    A    
C16   C17   S    
C12   C17   S    
C23   C27   S    
C19   C27   S    
C9    C10   S    
Cu2   O4    S    
C24   H10   S    
C22   H6    S    
C14   C17   S    
Cu2   N1    S    
Cu1   N2    S    
C17   C18   S    
C21   H4    S    
C24   H9    S    
C15   O3    S    
C31   H22   S    
C25   H13   S    
C6    C11   S    
C25   C26   S    
C14   O10   A    
C12   F6    S    
C29   C30   A    
C7    N1    A    
C5    C28   S    
C15   C27   S    
C31   C32   A    
C1    C29   S    
Cu1   Cu2   S    
C7    F3    S    
C20   C21   S    
C22   O2    S    
C19   F5    S    
Cu2   O8    S    
Cu1   O7    S    
C13   O7    A    
C16   C23   S    
C30   H21   S    
C22   C24   S    
C25   O3    S    
C5    O11   S    
C11   H19   S    
Cu2   O6    S    
C4    O6    A    
C20   H2    S    
C11   O2    S    
Cu1   O1    S    
C21   H5    S    
C24   H8    S    
C3    F7    S    
C3    C5    S    
C26   H15   S    
C8    H12   S    
C1    O4    A    
C14   O9    A    
C2    C3    S    
C18   F4    S    
C25   H11   S    
C20   H23   S    
C3    F2    S    
C12   C19   S    
C1    O1    A    
C10   H18   S    
C26   H16   S    
C10   C11   S    
Cu1   O5    S    
C23   H20   S    
C13   O8    A    
C2    C28   A    
C4    O5    A    
Cu2   O10   S    
