data_mof_unit_63524.cif
_audit_creation_date              2013-03-05T15:55:31-0500
_audit_creation_method            fapswitch 2.2
_symmetry_space_group_name_H-M    P1
_symmetry_Int_Tables_number       1
_space_group_crystal_system       triclinic
_cell_length_a                    23.569493
_cell_length_b                    31.884106
_cell_length_c                    23.574681
_cell_angle_alpha                 89.99956
_cell_angle_beta                  90.000102
_cell_angle_gamma                 90.003393
_cell_volume                      17716.189168

loop_
_atom_site_label
_atom_site_type_symbol
_atom_site_description
_atom_site_fract_x
_atom_site_fract_y
_atom_site_fract_z
_atom_type_partial_charge
O1    O     O_R   0.546670 1.000000 0.417240 -0.613867
O2    O     O_R   0.546670 0.000000 0.582760 -0.614439
O3    O     O_R   0.046670 0.500000 0.917240 -0.614663
O4    O     O_R   0.046670 0.500000 0.082760 -0.613634
O5    O     O_R   0.453230 1.000000 0.417310 -0.614319
O6    O     O_R   0.453230 1.000000 0.582690 -0.614507
O7    O     O_R   0.953230 0.500000 0.917310 -0.614352
O8    O     O_R   0.953230 0.500000 0.082690 -0.614465
C1    C     C_R   0.499934 0.999999 0.390433 0.906572
C2    C     C_R   0.499934 0.000001 0.609567 0.905395
C3    C     C_R   0.999934 0.500000 0.890433 0.905375
C4    C     C_R   0.999934 0.500000 0.109567 0.906629
O9    O     O_R   0.546670 0.938190 0.500000 -0.607783
O10   O     O_R   0.546670 0.061810 0.500000 -0.615927
O11   O     O_R   0.046670 0.438190 0.000000 -0.607808
O12   O     O_R   0.046670 0.561810 0.000000 -0.615979
O13   O     O_R   0.453220 0.938690 0.500000 -0.617487
O14   O     O_R   0.453220 0.061310 0.500000 -0.614090
O15   O     O_R   0.953220 0.438690 0.000000 -0.617482
O16   O     O_R   0.953220 0.561310 0.000000 -0.614058
C5    C     C_R   0.499749 0.918612 0.500000 0.905142
C6    C     C_R   0.499754 0.081383 0.499994 0.905882
C7    C     C_R   0.999750 0.418612 1.000000 0.905152
C8    C     C_R   0.999754 0.581383 0.000004 0.905903
Zn1   Zn    Zn3+2 0.562350 0.000000 0.500000 0.985192
Zn2   Zn    Zn3+2 0.062350 0.500000 0.000000 0.985168
Zn3   Zn    Zn3+2 0.437550 0.000000 0.500000 0.974892
Zn4   Zn    Zn3+2 0.937550 0.500000 0.000000 0.974956
C9    C     C_3   0.523846 0.736523 0.453255 0.414490
C10   C     C_3   0.518853 0.263591 0.549256 0.433786
C11   C     C_3   0.531104 0.263537 0.457935 0.471342
C12   C     C_3   0.526103 0.736521 0.545494 0.414446
C13   C     C_3   0.027717 0.236522 0.955489 0.414438
C14   C     C_3   0.028588 0.763527 0.043849 0.471254
C15   C     C_3   0.021703 0.763592 0.951968 0.433341
C16   C     C_3   0.022153 0.236523 0.047587 0.414480
C17   C     C_3   0.469834 0.764072 0.453670 -0.299864
C18   C     C_3   0.465205 0.235907 0.542971 -0.311794
C19   C     C_3   0.477747 0.235932 0.449750 -0.297392
C20   C     C_3   0.472135 0.764070 0.547722 -0.299727
C21   C     C_3   0.973864 0.264070 0.951326 -0.299598
C22   C     C_3   0.974835 0.735931 0.048892 -0.297675
C23   C     C_3   0.967772 0.735913 0.955097 -0.312238
C24   C     C_3   0.968190 0.264072 0.045236 -0.299991
H1    H     H_    0.446451 0.776223 0.416253 0.156170
H2    H     H_    0.437798 0.223665 0.577492 0.158039
H3    H     H_    0.460581 0.223826 0.409082 0.157659
H4    H     H_    0.450611 0.776220 0.586239 0.156219
H5    H     H_    0.953735 0.276220 0.912063 0.156271
H6    H     H_    0.955310 0.723824 0.088484 0.157665
H7    H     H_    0.942433 0.723678 0.919027 0.157930
H8    H     H_    0.943480 0.276222 0.081789 0.156133
H9    H     H_    0.400446 0.723460 0.502421 0.173640
H10   H     H_    0.401477 0.276446 0.486957 0.174210
H11   H     H_    0.900597 0.223462 0.994029 0.173674
H12   H     H_    0.900887 0.776461 0.007290 0.174173
C25   C     C_1   0.499258 0.874194 0.500009 -0.185242
C26   C     C_1   0.499288 0.125791 0.499960 -0.187113
C27   C     C_1   0.999259 0.374194 0.999977 -0.185233
C28   C     C_1   0.999284 0.625790 0.000016 -0.187066
C29   C     C_1   0.499672 0.625916 0.500001 -0.164596
C30   C     C_1   0.499701 0.374097 0.500006 -0.161386
C31   C     C_1   0.999671 0.125917 0.999995 -0.164599
C32   C     C_1   0.999712 0.874097 0.999994 -0.161428
C33   C     C_3   0.551594 0.763795 0.498724 0.284462
C34   C     C_3   0.551383 0.236256 0.507169 0.308930
C35   C     C_3   0.051514 0.263795 0.003142 0.284435
C36   C     C_3   0.051702 0.736247 0.995881 0.309509
C37   C     C_3   0.498191 0.791373 0.500031 0.048549
C38   C     C_3   0.498454 0.208600 0.499937 -0.018683
C39   C     C_3   0.998192 0.291373 0.999920 0.048559
C40   C     C_3   0.998436 0.708600 1.000000 -0.018251
C41   C     C_3   0.498687 0.708767 0.500017 0.018497
C42   C     C_3   0.498851 0.291260 0.500044 0.008508
C43   C     C_3   0.998688 0.208767 0.999954 0.018502
C44   C     C_3   0.998866 0.791260 0.999928 0.008520
C45   C     C_3   0.444415 0.735913 0.501346 -0.229296
C46   C     C_3   0.445092 0.264048 0.492820 -0.230341
C47   C     C_3   0.944499 0.235913 0.996680 -0.229281
C48   C     C_3   0.944767 0.764056 0.003989 -0.230261
C49   C     C_1   0.498757 0.836736 0.500019 0.030734
C50   C     C_1   0.498860 0.163242 0.499934 -0.011441
C51   C     C_1   0.998758 0.336736 0.999951 0.030745
C52   C     C_1   0.998849 0.663242 0.000021 -0.010957
C53   C     C_1   0.499235 0.663375 0.500006 0.068582
C54   C     C_1   0.499317 0.336644 0.500020 0.070857
C55   C     C_1   0.999235 0.163375 0.999981 0.068591
C56   C     C_1   0.999333 0.836644 0.999972 0.070758
C57   C     C_1   0.499928 0.999999 0.330300 -0.187608
C58   C     C_1   0.499928 0.000001 0.669700 -0.188447
C59   C     C_1   0.999928 0.500001 0.830299 -0.188440
C60   C     C_1   0.999928 0.500000 0.169700 -0.187571
C61   C     C_1   0.500043 0.999999 0.279595 0.008153
C62   C     C_1   0.500043 0.000002 0.720405 0.007490
C63   C     C_1   0.000043 0.500001 0.779595 0.007513
C64   C     C_1   0.000043 0.500000 0.220405 0.008144
C65   C     C_1   0.500293 0.999999 0.220405 0.008837
C66   C     C_1   0.500293 0.000001 0.779595 0.008392
C67   C     C_1   0.000293 0.500000 0.720405 0.008435
C68   C     C_1   0.000293 0.500000 0.279595 0.008787
C69   C     C_1   0.500567 0.999999 0.169700 -0.184585
C70   C     C_1   0.500567 0.000001 0.830300 -0.184883
C71   C     C_1   0.000567 0.500000 0.669700 -0.184839
C72   C     C_1   0.000567 0.500000 0.330300 -0.184651
O17   O     O_R   0.582830 0.500000 0.453340 -0.611772
O18   O     O_R   0.582830 0.500000 0.546660 -0.611565
O19   O     O_R   0.082830 0.000000 0.953340 -0.611637
O20   O     O_R   0.082830 1.000000 0.046660 -0.611702
C73   C     C_R   0.609852 0.500000 0.500000 0.912120
C74   C     C_R   0.109852 1.000000 0.000000 0.912132
O21   O     O_R   0.500060 0.561660 0.453320 -0.611862
O22   O     O_R   0.500060 0.438340 0.546680 -0.611091
O23   O     O_R   0.500060 0.438340 0.453320 -0.613109
O24   O     O_R   0.500060 0.561660 0.546680 -0.612269
O25   O     O_R   0.000060 0.061660 0.953320 -0.612471
O26   O     O_R   0.000060 0.938340 0.046680 -0.612606
O27   O     O_R   0.000060 0.938340 0.953320 -0.611600
O28   O     O_R   0.000060 0.061660 0.046680 -0.611671
C75   C     C_R   0.500054 0.581498 0.500000 0.903239
C76   C     C_R   0.500047 0.418507 0.500001 0.904350
C77   C     C_R   0.000052 0.081498 1.000000 0.903256
C78   C     C_R   0.000050 0.918507 1.000000 0.904345
Zn5   Zn    Zn3+2 0.500080 0.500000 0.437650 0.989138
Zn6   Zn    Zn3+2 0.500080 0.500000 0.562350 0.990082
Zn7   Zn    Zn3+2 0.000080 0.000000 0.937650 0.989563
Zn8   Zn    Zn3+2 0.000080 1.000000 0.062350 0.989595
O29   O     O_R   0.417300 0.500000 0.453300 -0.616296
O30   O     O_R   0.417300 0.500000 0.546700 -0.616262
O31   O     O_R   0.917300 1.000000 0.953300 -0.616317
O32   O     O_R   0.917300 1.000000 0.046700 -0.616248
C79   C     C_R   0.390615 0.500000 0.500000 0.905107
C80   C     C_R   0.890615 0.000000 1.000000 0.905103
O33   O     O_R   0.418390 0.964110 0.000000 -0.609361
O34   O     O_R   0.418390 0.035890 0.000000 -0.611202
O35   O     O_R   0.918390 0.464110 0.500000 -0.609392
O36   O     O_R   0.918390 0.535890 0.500000 -0.611189
C81   C     C_R   0.392008 0.999999 0.000000 0.889278
C82   C     C_R   0.892007 0.499999 0.500000 0.889289
O37   O     O_R   0.501120 0.965270 0.082820 -0.613833
O38   O     O_R   0.501120 0.034730 0.917180 -0.614650
O39   O     O_R   0.501120 0.034730 0.082820 -0.614217
O40   O     O_R   0.501120 0.965270 0.917180 -0.613637
O41   O     O_R   0.001120 0.465270 0.582820 -0.613594
O42   O     O_R   0.001120 0.534730 0.417180 -0.614242
O43   O     O_R   0.001120 0.534730 0.582820 -0.614641
O44   O     O_R   0.001120 0.465270 0.417180 -0.613879
C83   C     C_R   0.500919 1.000000 0.109566 0.905702
C84   C     C_R   0.500920 0.000000 0.890434 0.905664
C85   C     C_R   0.000919 0.500000 0.609566 0.905690
C86   C     C_R   0.000920 0.500000 0.390433 0.905692
Zn9   Zn    Zn3+2 0.501530 0.953610 0.000000 0.979146
Zn10  Zn    Zn3+2 0.501530 0.046390 0.000000 0.976240
Zn11  Zn    Zn3+2 0.001530 0.453610 0.500000 0.979100
Zn12  Zn    Zn3+2 0.001530 0.546390 0.500000 0.976196
O45   O     O_R   0.583860 0.966430 0.000000 -0.616019
O46   O     O_R   0.583860 0.033570 0.000000 -0.616126
O47   O     O_R   0.083860 0.466430 0.500000 -0.616006
O48   O     O_R   0.083860 0.533570 0.500000 -0.616147
C87   C     C_R   0.610985 0.000001 0.000000 0.920743
C88   C     C_R   0.110984 0.500001 0.500000 0.920749
C89   C     C_1   0.670295 0.499999 0.500000 -0.177557
C90   C     C_1   0.170295 0.999999 0.000000 -0.177552
C91   C     C_1   0.721186 0.499997 0.500000 0.017136
C92   C     C_1   0.221186 0.999998 0.000000 0.017152
C93   C     C_1   0.280672 0.999997 0.000000 0.015885
C94   C     C_1   0.780673 0.499997 0.499999 0.015864
C95   C     C_1   0.331564 0.999997 0.000000 -0.175412
C96   C     C_1   0.831564 0.499997 0.500000 -0.175433
C97   C     C_1   0.330782 0.500001 0.500000 -0.184039
C98   C     C_1   0.830782 0.000002 1.000000 -0.184051
C99   C     C_1   0.280252 0.500003 0.500000 0.007927
C100  C     C_1   0.780252 0.000003 1.000000 0.007923
C101  C     C_1   0.721349 0.000003 1.000000 0.007530
C102  C     C_1   0.221349 0.500004 0.500000 0.007526
C103  C     C_1   0.670818 0.000003 1.000000 -0.191047
C104  C     C_1   0.170818 0.500003 0.500000 -0.191058
O49   O     O_3   0.551640 0.719187 0.405730 -0.600071
C105  C     C_3   0.562605 0.751048 0.365730 0.115256
H13   H     H_    0.586101 0.777746 0.385135 0.176401
H14   H     H_    0.522241 0.762685 0.346998 0.136234
C106  C     C_3   0.598823 0.733205 0.318122 -0.795693
H15   H     H_    0.576238 0.706846 0.297165 0.260345
H16   H     H_    0.607515 0.757966 0.286154 0.204368
H17   H     H_    0.639781 0.721640 0.335394 0.260687
O50   O     O_3   0.541980 0.281089 0.599139 -0.583927
C107  C     C_3   0.541085 0.251064 0.643025 0.118654
H18   H     H_    0.560122 0.220746 0.629321 0.127891
H19   H     H_    0.496771 0.245660 0.657528 0.134994
C108  C     C_3   0.575256 0.267484 0.693022 -0.777577
H20   H     H_    0.556743 0.297406 0.708509 0.256700
H21   H     H_    0.574584 0.244192 0.728039 0.198936
H22   H     H_    0.619929 0.272961 0.679974 0.263811
O51   O     O_3   0.566091 0.280878 0.415419 -0.588795
C109  C     C_3   0.582746 0.249119 0.377275 0.130500
H23   H     H_    0.545669 0.237993 0.352243 0.124608
H24   H     H_    0.602415 0.222079 0.399819 0.179173
C110  C     C_3   0.626343 0.266852 0.336223 -0.784342
H25   H     H_    0.664238 0.277917 0.359900 0.267280
H26   H     H_    0.639578 0.242177 0.305725 0.200770
H27   H     H_    0.607803 0.293545 0.312286 0.256250
O52   O     O_3   0.556189 0.719183 0.591602 -0.600168
C111  C     C_3   0.569095 0.751041 0.631023 0.115527
H28   H     H_    0.529693 0.762672 0.651709 0.136301
H29   H     H_    0.591608 0.777744 0.610496 0.176401
C112  C     C_3   0.607602 0.733197 0.676798 -0.796359
H30   H     H_    0.647668 0.721638 0.657541 0.260585
H31   H     H_    0.617843 0.757956 0.708309 0.204316
H32   H     H_    0.586075 0.706833 0.698830 0.260383
O53   O     O_3   0.059436 0.219182 0.910490 -0.600226
C113  C     C_3   0.073748 0.251040 0.871555 0.115633
H33   H     H_    0.095508 0.277743 0.892876 0.176425
H34   H     H_    0.035114 0.262669 0.849468 0.136348
C114  C     C_3   0.113875 0.233196 0.827194 -0.796589
H35   H     H_    0.093155 0.206830 0.804406 0.260391
H36   H     H_    0.125240 0.257954 0.796070 0.204300
H37   H     H_    0.153225 0.221639 0.847878 0.260569
O54   O     O_3   0.061035 0.780855 0.088343 -0.588686
C115  C     C_3   0.075404 0.749089 0.127396 0.130419
H38   H     H_    0.096341 0.722041 0.106041 0.179172
H39   H     H_    0.036916 0.737977 0.150213 0.124588
C116  C     C_3   0.116533 0.766804 0.170932 -0.784141
H40   H     H_    0.096643 0.793503 0.193744 0.256256
H41   H     H_    0.127939 0.742122 0.202152 0.200767
H42   H     H_    0.155759 0.777853 0.149517 0.267279
O55   O     O_3   0.047773 0.781072 0.903544 -0.583989
C117  C     C_3   0.049059 0.751151 0.859539 0.118293
H43   H     H_    0.005608 0.746164 0.842393 0.135501
H44   H     H_    0.066766 0.720635 0.874201 0.127240
C118  C     C_3   0.086417 0.767386 0.811760 -0.777777
H45   H     H_    0.130325 0.772397 0.827473 0.263668
H46   H     H_    0.087428 0.744203 0.776620 0.198933
H47   H     H_    0.069375 0.797526 0.795389 0.256875
O56   O     O_3   0.048223 0.219187 0.096079 -0.600016
C119  C     C_3   0.057747 0.251048 0.136446 0.115176
H48   H     H_    0.016736 0.262682 0.153721 0.136168
H49   H     H_    0.081919 0.277748 0.117894 0.176383
C120  C     C_3   0.092239 0.233207 0.185319 -0.795599
H50   H     H_    0.133790 0.221645 0.169524 0.260720
H51   H     H_    0.099778 0.257969 0.217577 0.204368
H52   H     H_    0.068922 0.206846 0.205455 0.260317
O57   O     O_3   0.607079 0.779274 0.497368 -0.772999
H53   H     H_    0.631775 0.754119 0.496764 0.352076
O58   O     O_3   0.607112 0.222001 0.513899 -0.743806
H54   H     H_    0.605201 0.199347 0.542590 0.327181
O59   O     O_3   0.106912 0.279275 0.006486 -0.773001
H55   H     H_    0.131567 0.254119 0.007976 0.352083
O60   O     O_3   0.107714 0.721966 0.992410 -0.743706
H56   H     H_    0.107546 0.699564 0.963298 0.327502

loop_
_geom_bond_atom_site_label_1
_geom_bond_atom_site_label_2
_geom_bond_distance
_ccdc_geom_bond_type
O35   C82   1.302360 A    
C94   C96   1.199484 T    
C18   C38   1.549683 S    
C22   C48   1.557902 S    
C23   C40   1.549648 S    
O25   C77   1.269293 A    
C17   H1    1.109931 S    
C17   C37   1.548853 S    
C29   C75   1.416264 S    
C97   C99   1.190976 T    
O52   C111  1.409948 S    
O32   C80   1.267929 A    
C14   C22   1.547032 S    
O3    C3    1.269958 A    
C68   C72   1.195362 T    
O38   C84   1.274279 A    
O34   C81   1.302354 A    
C105  H13   1.113791 S    
C74   C90   1.424606 S    
C14   O54   1.410782 S    
C115  H38   1.113874 S    
C112  H30   1.110740 S    
C35   O59   1.398086 S    
C110  H27   1.110742 S    
O33   C81   1.302360 A    
C30   C54   1.194202 T    
O37   C83   1.274282 A    
C118  H45   1.110729 S    
C111  H29   1.113793 S    
C115  C116  1.520552 S    
O20   Zn8   1.985143 S    
O21   C75   1.269299 A    
C92   C93   1.402064 S    
C27   C51   1.194363 T    
O22   Zn6   2.000386 S    
C118  H47   1.110766 S    
C26   C50   1.194157 T    
C113  H33   1.113790 S    
C19   C38   1.548365 S    
C10   C42   1.531815 S    
C33   C37   1.535765 S    
C105  H14   1.112572 S    
O41   Zn11  1.987560 S    
C109  C110  1.520550 S    
C9    C41   1.532979 S    
C34   O58   1.398972 S    
C62   C66   1.395393 S    
C63   C67   1.395395 S    
O58   H54   0.990578 S    
C60   C64   1.195353 T    
O36   Zn12  1.987940 S    
O17   Zn5   1.985142 S    
C24   C39   1.548851 S    
C82   C96   1.424623 S    
O57   H53   0.991129 S    
C72   C86   1.417662 S    
C12   O52   1.410664 S    
C108  H21   1.110500 S    
C117  C118  1.520508 S    
O42   C86   1.274285 A    
C70   C84   1.417662 S    
O44   C86   1.274279 A    
C13   O53   1.410668 S    
C13   C43   1.532979 S    
C79   C97   1.410229 S    
O16   C8    1.269818 A    
C11   C19   1.547031 S    
C112  H32   1.110745 S    
C111  C112  1.520527 S    
O33   Zn9   1.987979 S    
C31   C55   1.194388 T    
Zn9   O45   1.983039 S    
O4    C4    1.269960 A    
O14   C6    1.269828 A    
C15   C23   1.549150 S    
O56   C119  1.409951 S    
O38   Zn10  1.987562 S    
C30   C76   1.415974 S    
O24   C75   1.269297 A    
C73   C89   1.424606 S    
C36   C40   1.537055 S    
Zn6   O30   1.985656 S    
O31   C80   1.267929 A    
O24   Zn6   2.000377 S    
C24   H8    1.109925 S    
O11   C7    1.269870 A    
C109  H23   1.112536 S    
O12   C8    1.269773 A    
O5    Zn3   1.984114 S    
O59   H55   0.991106 S    
O1    Zn1   1.985734 S    
C88   C104  1.410252 S    
O9    Zn1   2.005088 S    
C93   C95   1.199484 T    
C110  H25   1.110730 S    
C119  H49   1.113788 S    
C21   H5    1.109924 S    
O17   C73   1.271071 A    
C89   C91   1.199477 T    
C58   C62   1.195353 T    
C39   C51   1.446420 S    
C101  C103  1.190983 T    
C36   O60   1.398936 S    
O12   Zn2   2.005128 S    
C99   C102  1.388307 S    
C15   C44   1.531795 S    
C16   C35   1.527348 S    
C111  H28   1.112572 S    
O45   C87   1.246740 A    
O13   Zn3   1.989423 S    
C10   O50   1.411129 S    
Zn10  O46   1.983086 S    
C91   C94   1.402067 S    
O1    C1    1.269958 A    
O19   Zn7   1.985142 S    
O53   C113  1.409945 S    
C67   C71   1.195362 T    
C20   C37   1.548854 S    
C106  H16   1.110510 S    
C1    C57   1.417628 S    
C12   C41   1.532977 S    
O22   C76   1.269202 A    
O39   C83   1.274282 A    
C11   C42   1.531266 S    
O48   C88   1.246742 A    
C16   O56   1.410669 S    
C106  H15   1.110747 S    
C33   O57   1.398113 S    
C57   C61   1.195353 T    
O13   C5    1.269884 A    
O7    Zn4   1.984114 S    
C14   C36   1.527135 S    
C119  C120  1.520523 S    
O40   Zn9   1.987557 S    
C108  H22   1.110742 S    
O15   C7    1.269884 A    
O27   C78   1.269204 A    
C19   C46   1.557888 S    
O5    C1    1.270116 A    
C116  H40   1.110744 S    
C16   C43   1.532978 S    
O40   C84   1.274285 A    
C87   C103  1.410252 S    
O23   C76   1.269232 A    
H11   C47   1.110031 S    
C65   C69   1.195362 T    
O7    C3    1.270116 A    
O6    Zn3   1.984110 S    
O23   Zn5   2.000380 S    
C114  H35   1.110744 S    
O8    C4    1.270114 A    
O34   Zn10  1.987940 S    
C22   C40   1.548364 S    
C109  H24   1.113876 S    
C31   C77   1.416264 S    
O9    C5    1.269874 A    
C10   C34   1.527082 S    
C42   C54   1.447072 S    
C80   C98   1.410229 S    
O15   Zn4   1.989423 S    
C41   C53   1.447326 S    
C6    C26   1.415943 S    
C40   C52   1.446233 S    
O16   Zn4   1.989377 S    
O26   C78   1.269231 A    
C22   H6    1.109914 S    
C9    C33   1.527355 S    
O43   Zn12  1.987554 S    
C43   C55   1.447323 S    
C117  H43   1.112419 S    
O47   C88   1.246740 A    
C117  H44   1.113702 S    
C120  H51   1.110509 S    
Zn7   O31   1.985658 S    
H9    C45   1.110050 S    
O8    Zn4   1.984110 S    
O19   C74   1.271073 A    
C25   C49   1.194360 T    
C16   C24   1.546733 S    
C43   C47   1.544835 S    
C119  H48   1.112572 S    
C107  H19   1.112414 S    
O2    C2    1.269960 A    
O30   C79   1.267929 A    
C61   C65   1.395393 S    
Zn5   O29   1.985658 S    
C81   C95   1.424625 S    
C100  C101  1.388307 S    
C13   C35   1.527343 S    
O36   C82   1.302354 A    
C19   H3    1.109896 S    
C24   C47   1.558241 S    
C114  H37   1.110737 S    
C20   H4    1.109932 S    
O42   Zn12  1.987562 S    
C44   C56   1.447060 S    
C120  H52   1.110742 S    
C69   C83   1.417662 S    
C41   C45   1.544830 S    
C106  H17   1.110741 S    
C7    C27   1.416272 S    
O55   C117  1.409716 S    
C15   O55   1.411148 S    
C11   C34   1.527149 S    
C11   O51   1.410771 S    
O49   C105  1.409951 S    
C4    C60   1.417628 S    
O3    Zn2   1.985734 S    
O14   Zn3   1.989377 S    
C44   C48   1.545077 S    
O11   Zn2   2.005088 S    
H12   C48   1.110033 S    
O6    C2    1.270114 A    
O4    Zn2   1.985733 S    
O60   H56   0.990566 S    
Zn12  O48   1.983086 S    
O46   C87   1.246742 A    
C116  H42   1.110729 S    
C113  C114  1.520526 S    
C18   C46   1.558101 S    
C5    C25   1.416275 S    
O21   Zn5   2.000383 S    
C113  H34   1.112573 S    
O25   Zn7   2.000383 S    
C21   C39   1.548851 S    
C115  H39   1.112535 S    
C13   C21   1.546722 S    
O10   C6    1.269766 A    
C107  C108  1.520506 S    
C110  H26   1.110511 S    
C29   C53   1.194389 T    
O54   C115  1.410019 S    
C114  H36   1.110507 S    
C118  H46   1.110504 S    
C90   C92   1.199477 T    
C66   C70   1.195362 T    
C28   C52   1.194152 T    
C23   H7    1.109905 S    
O50   C107  1.409707 S    
C34   C38   1.537137 S    
O44   Zn11  1.987557 S    
C98   C100  1.190976 T    
C15   C36   1.527037 S    
C32   C78   1.415969 S    
C64   C68   1.395393 S    
O37   Zn9   1.987560 S    
C23   C48   1.558121 S    
C102  C104  1.190983 T    
O20   C74   1.271073 A    
O2    Zn1   1.985733 S    
C35   C39   1.535757 S    
C12   C20   1.546741 S    
O10   Zn1   2.005128 S    
Zn11  O47   1.983039 S    
C108  H20   1.110816 S    
C38   C50   1.446235 S    
O29   C79   1.267929 A    
C18   H2    1.109905 S    
C105  C106  1.520525 S    
C37   C49   1.446419 S    
C71   C85   1.417662 S    
C59   C63   1.195350 T    
C3    C59   1.417628 S    
O41   C85   1.274285 A    
C17   C45   1.558248 S    
C2    C58   1.417628 S    
C116  H41   1.110511 S    
O51   C109  1.410012 S    
C42   C46   1.545022 S    
C21   C47   1.558236 S    
C9    C17   1.546745 S    
O26   Zn8   2.000386 S    
C32   C56   1.194211 T    
Zn8   O32   1.985656 S    
C20   C45   1.558244 S    
C9    O49   1.410664 S    
C8    C28   1.415944 S    
O28   Zn8   2.000377 S    
C10   C18   1.549133 S    
O18   Zn6   1.985143 S    
C107  H18   1.113646 S    
C120  H50   1.110736 S    
C112  H31   1.110511 S    
O27   Zn7   2.000380 S    
O28   C77   1.269303 A    
O43   C85   1.274279 A    
O35   Zn11  1.987979 S    
O39   Zn10  1.987554 S    
C14   C44   1.531275 S    
C12   C33   1.527352 S    
H10   C46   1.110033 S    
O18   C73   1.271075 A    
