data_mof_unit_58906.cif
_audit_creation_date              2013-03-05T15:56:26-0500
_audit_creation_method            fapswitch 2.2
_symmetry_space_group_name_H-M    P1
_symmetry_Int_Tables_number       1
_space_group_crystal_system       triclinic
_cell_length_a                    6.925854
_cell_length_b                    14.550999
_cell_length_c                    16.026162
_cell_angle_alpha                 90.257727
_cell_angle_beta                  89.957373
_cell_angle_gamma                 90.094522
_cell_volume                      1615.06709515

loop_
_atom_site_label
_atom_site_type_symbol
_atom_site_description
_atom_site_fract_x
_atom_site_fract_y
_atom_site_fract_z
_atom_type_partial_charge
O1    O     O_R   0.494400 0.415640 0.412830 -0.595404
O2    O     O_R   0.823920 0.405510 0.586560 -0.595915
O3    O     O_R   0.994250 0.584360 0.587170 -0.597384
C1    C     C_R   0.654849 0.383379 0.615401 0.952079
O4    O     O_R   0.824110 0.404610 0.413450 -0.602231
O5    O     O_R   0.994440 0.583460 0.412820 -0.585123
C2    C     C_R   0.655023 0.382227 0.384291 0.924374
O6    O     O_R   0.494210 0.416540 0.587180 -0.596715
O7    O     O_3   0.660810 0.558680 0.500000 -0.267434
V1    V     V_3+5 0.935650 0.489110 0.500000 1.163449
O8    O     O_R   0.324150 0.594490 0.413440 -0.586973
C3    C     C_R   0.155300 0.618672 0.386045 0.967887
O9    O     O_R   0.323970 0.595390 0.586550 -0.603604
C4    C     C_R   0.155047 0.618657 0.614706 0.912142
V2    V     V_3+5 0.435660 0.510890 0.500000 1.165335
O10   O     O_3   0.160630 0.441320 0.500000 -0.277160
C5    C     C_3   0.095934 0.640418 0.768592 -0.434499
H1    H     H_    0.954684 0.604488 0.762626 0.206096
H2    H     H_    0.205455 0.586379 0.781393 0.152433
C6    C     C_3   0.093257 0.710703 0.842483 0.198632
H3    H     H_    0.219069 0.694642 0.883271 0.079016
H4    H     H_    0.843229 0.727450 0.658957 0.183706
H5    H     H_    0.820822 0.828935 0.767457 0.218756
C7    C     C_3   0.985502 0.761754 0.667900 -0.361914
C8    C     C_3   0.340071 0.740653 0.695779 -0.494393
C9    C     C_3   0.144737 0.688933 0.685056 0.016791
H6    H     H_    0.381759 0.773516 0.635822 0.170722
H7    H     H_    0.456356 0.690719 0.711044 0.179990
C10   C     C_3   0.122375 0.811141 0.809646 -0.204666
C11   C     C_3   0.968954 0.831443 0.741143 -0.311767
C12   C     C_3   0.326836 0.813316 0.767060 0.385012
H8    H     H_    0.436467 0.794562 0.814689 0.149735
H9    H     H_    0.019258 0.799117 0.609229 0.136671
H10   H     H_    0.986084 0.902574 0.717275 0.137123
C13   C     C_R   0.963030 0.753595 0.200777 0.610643
C14   C     C_R   0.978191 0.692076 0.268199 -0.311715
H11   H     H_    0.859374 0.645606 0.280730 0.173739
C15   C     C_R   0.144668 0.688714 0.318383 -0.336329
C16   C     C_R   0.298291 0.750539 0.300745 0.541802
C17   C     C_R   0.286117 0.808821 0.231702 -0.269840
H12   H     H_    0.406065 0.854722 0.219352 0.186824
C18   C     C_R   0.119431 0.812466 0.181841 -0.308550
C19   C     C_R   0.791670 0.251669 0.697175 -0.091821
H13   H     H_    0.915620 0.249655 0.655959 0.125099
C20   C     C_R   0.779476 0.187954 0.762118 -0.068932
H14   H     H_    0.893937 0.137838 0.768592 0.136276
C21   C     C_R   0.621360 0.187896 0.817417 -0.299704
C22   C     C_R   0.474998 0.255209 0.806907 0.374679
C23   C     C_R   0.485542 0.316376 0.739285 -0.229170
H15   H     H_    0.373501 0.367569 0.731792 0.165265
C24   C     C_R   0.643724 0.315792 0.684419 -0.187494
C25   C     C_R   0.812153 0.274128 0.281342 -0.133398
H16   H     H_    0.952981 0.292506 0.305562 0.120699
C26   C     C_R   0.801119 0.210280 0.215799 -0.117193
H17   H     H_    0.933987 0.181309 0.191751 0.123760
C27   C     C_R   0.621464 0.184097 0.181977 -0.119518
C28   C     C_R   0.453167 0.223667 0.215584 -0.107091
H18   H     H_    0.312354 0.205309 0.191332 0.125678
C29   C     C_R   0.464201 0.287510 0.281139 -0.130611
H19   H     H_    0.331343 0.316496 0.305179 0.125420
C30   C     C_R   0.643850 0.313620 0.315022 -0.129600
O11   O     O_R   0.771300 0.080930 0.910090 -0.599900
O12   O     O_R   0.441270 0.092800 0.083770 -0.594901
O13   O     O_R   0.271080 0.913920 0.084380 -0.616211
C31   C     C_R   0.610335 0.115323 0.112858 0.934586
O14   O     O_R   0.441580 0.091910 0.910670 -0.561708
O15   O     O_R   0.271390 0.913020 0.910040 -0.582732
C32   C     C_R   0.610770 0.116303 0.883582 1.015062
O16   O     O_R   0.770990 0.081830 0.084440 -0.611608
O17   O     O_3   0.604750 0.938760 0.997250 -0.249150
V3    V     V_3+5 0.329850 0.008280 0.997210 1.243760
O18   O     O_R   0.941680 0.901940 0.910610 -0.575612
C33   C     C_R   0.110675 0.880704 0.880814 0.952960
O19   O     O_R   0.941370 0.902830 0.083720 -0.543899
C34   C     C_R   0.109965 0.880087 0.112291 1.016231
V4    V     V_3+5 0.829860 0.986420 0.997150 1.256221
O20   O     O_3   0.104830 0.056030 0.997180 -0.267681
O21   O     O_3   0.376471 0.901958 0.738927 -0.764088
H20   H     H_    0.302675 0.914880 0.687324 0.319366
O22   O     O_3   0.798575 0.755553 0.152025 -0.699969
H21   H     H_    0.703204 0.710884 0.174038 0.327290
O23   O     O_3   0.460447 0.758231 0.350091 -0.756743
H22   H     H_    0.420337 0.750335 0.408941 0.309457
N1    N     N_R   0.321636 0.266448 0.866544 0.235585
O24   O     O_R   0.360737 0.269230 0.945936 -0.387717
O25   O     O_R   0.150903 0.291485 0.841704 -0.409900
N2    N     N_R   0.917965 0.700414 0.893319 0.255810
O26   O     O_R   0.747366 0.699862 0.859338 -0.436926
O27   O     O_R   0.933176 0.685428 0.973035 -0.361268

loop_
_geom_bond_atom_site_label_1
_geom_bond_atom_site_label_2
_geom_bond_distance
_ccdc_geom_bond_type
C8    C12   1.555835 S    
O14   C32   1.298762 A    
N2    O26   1.301375 A    
O12   C31   1.301517 A    
C13   C14   1.410326 A    
C1    O6    1.296025 A    
C20   H14   1.083373 S    
C8    H7    1.113654 S    
C18   C34   1.491661 S    
O19   V4    2.005141 S    
C5    C9    1.553051 S    
C14   H11   1.083457 S    
C7    C9    1.556137 S    
C25   C30   1.406688 A    
O5    C3    1.298936 A    
C15   C16   1.421233 A    
C28   C29   1.401325 A    
C10   C33   1.523716 S    
V2    O10   2.155631 S    
C6    N2    1.469382 S    
C13   O22   1.382096 S    
C5    C6    1.561316 S    
C27   C28   1.406669 A    
O16   V4    2.008529 S    
O13   V3    2.004264 S    
C13   C18   1.413523 A    
C2    C30   1.491597 S    
O8    V2    2.005120 S    
C12   H8    1.112224 S    
C23   C24   1.404273 A    
O17   V3    2.157446 S    
O15   C33   1.294813 A    
O7    V1    2.157419 S    
O18   V4    2.005136 S    
C17   C18   1.405716 A    
C29   H19   1.082732 S    
O9    C4    1.298512 A    
O11   V4    2.005579 S    
C25   C26   1.401227 A    
C6    C10   1.568225 S    
C20   C21   1.408254 A    
C26   C27   1.408798 A    
C29   C30   1.408863 A    
O19   C34   1.298481 A    
C11   H10   1.111187 S    
C1    C24   1.485241 S    
H5    C11   1.109547 S    
V4    O20   2.155536 S    
C16   C17   1.399804 A    
O4    C2    1.301556 A    
O21   H20   0.991391 S    
O22   H21   0.991721 S    
C8    C9    1.556260 S    
C4    C9    1.520409 S    
C22   N1    1.437377 S    
O2    C1    1.299148 A    
C19   H13   1.083129 S    
O14   V3    2.003405 S    
C10   C11   1.557970 S    
C21   C22   1.421372 A    
C5    H1    1.112432 S    
N1    O24   1.301494 A    
C19   C20   1.399371 A    
O3    C4    1.296510 A    
O1    V2    2.005409 S    
C22   C23   1.407232 A    
O12   V3    2.003878 S    
C23   H15   1.083653 S    
O6    V2    2.005303 S    
O9    V2    2.005080 S    
O17   V4    1.705319 S    
H4    C7    1.112920 S    
O2    V1    2.003361 S    
C21   C32   1.491498 S    
V3    O20   1.707372 S    
C25   H16   1.082712 S    
C12   O21   1.410198 S    
C26   H17   1.082745 S    
C17   H12   1.083756 S    
O1    C2    1.296972 A    
C16   O23   1.378166 S    
N1    O25   1.301102 A    
O18   C33   1.300948 A    
O5    V1    2.004305 S    
O8    C3    1.299092 A    
C8    H6    1.112911 S    
C7    H9    1.112730 S    
O11   C32   1.298493 A    
C14   C15   1.407316 A    
O7    V2    1.706337 S    
O4    V1    2.003911 S    
C10   C12   1.571828 S    
O3    V1    2.004707 S    
V1    O10   1.707355 S    
C19   C24   1.402668 A    
C28   H18   1.082726 S    
C31   O16   1.296929 A    
C5    H2    1.113281 S    
O13   C34   1.298848 A    
O15   V3    2.004612 S    
C3    C15   1.493427 S    
C7    C11   1.552002 S    
C6    H3    1.115384 S    
O23   H22   0.990121 S    
N2    O27   1.301361 A    
C27   C31   1.491415 S    
