data_mof_unit_65577.cif
_audit_creation_date              2012-12-10T19:06:11-0500
_audit_creation_method            fapswitch 2.2
_symmetry_space_group_name_H-M    P1
_symmetry_Int_Tables_number       1
_space_group_crystal_system       triclinic
_cell_length_a                    13.060405
_cell_length_b                    13.626785
_cell_length_c                    15.742259
_cell_angle_alpha                 90.037993
_cell_angle_beta                  92.530919
_cell_angle_gamma                 85.733362
_cell_volume                      2791.1712806

loop_
_atom_site_label
_atom_site_type_symbol
_atom_type_description
_atom_site_fract_x
_atom_site_fract_y
_atom_site_fract_z
_atom_type_partial_charge
C1    C     C_R   0.481226 0.685155 0.499089 0.896244
C2    C     C_1   0.145316 0.480421 0.482739 0.163288
C3    C     C_R   0.499252 0.500039 0.662348 0.900530
C4    C     C_R   0.500748 0.499961 0.337652 0.900530
C5    C     C_3   0.440658 0.576262 0.026356 0.473874
C6    C     C_3   0.559342 0.423738 0.973644 0.473874
C7    C     C_3   0.535604 0.584410 0.972723 -0.250653
C8    C     C_3   0.464396 0.415590 0.027277 -0.250653
C9    C     C_1   0.497673 0.500169 0.751131 -0.144632
C10   C     C_1   0.502327 0.499831 0.248869 -0.144632
C11   C     C_3   0.402580 0.493192 0.969379 -0.249371
C12   C     C_R   0.518774 0.314845 0.500911 0.896244
C13   C     C_3   0.597420 0.506807 0.030621 -0.249371
C14   C     C_3   0.498300 0.500351 0.917151 0.037235
C15   C     C_3   0.501700 0.499649 0.082848 0.037235
C16   C     C_1   0.497368 0.500306 0.826341 0.044432
C17   C     C_1   0.502632 0.499694 0.173659 0.044433
C18   C     C_1   0.533662 0.211671 0.501668 -0.155934
C19   C     C_1   0.466338 0.788329 0.498332 -0.155934
C20   C     C_2   0.544532 0.020498 0.502238 -0.147206
C21   C     C_2   0.455468 0.979502 0.497761 -0.147206
C22   C     C_1   0.457514 0.875753 0.497878 0.030093
C23   C     C_1   0.542486 0.124247 0.502122 0.030093
C24   C     C_2   0.033311 0.472905 0.476096 -0.230822
C25   C     C_2   0.966689 0.527095 0.523903 -0.230822
C26   C     C_1   0.854684 0.519579 0.517261 0.163289
Cl1   Cl    Cl    0.361607 0.678027 0.063520 -0.574628
Cl2   Cl    Cl    0.638393 0.321972 0.936480 -0.574628
H1    H     H_    0.563670 0.653686 0.948722 0.187453
H2    H     H_    0.436330 0.346314 0.051278 0.187453
H3    H     H_    0.677022 0.511440 0.057305 0.187184
H4    H     H_    0.322978 0.488560 0.942695 0.187184
H5    H     H_    0.382192 0.023082 0.494069 0.167016
H6    H     H_    0.617807 0.976918 0.505931 0.167016
H7    H     H_    0.996190 0.578874 0.569596 0.171912
H8    H     H_    0.003810 0.421126 0.430403 0.171912
N1    N     N_1   0.234530 0.484780 0.486590 -0.087686
N2    N     N_1   0.765470 0.515220 0.513410 -0.087687
O1    O     O_R   0.402510 0.634760 0.495090 -0.604089
O2    O     O_R   0.597490 0.365240 0.504910 -0.604089
O3    O     O_R   0.572960 0.644530 0.503700 -0.605769
O4    O     O_R   0.427040 0.355470 0.496300 -0.605769
O5    O     O_R   0.414790 0.495120 0.618920 -0.610418
O6    O     O_R   0.585210 0.504880 0.381080 -0.610418
O7    O     O_R   0.585240 0.504900 0.627530 -0.599755
O8    O     O_R   0.414760 0.495100 0.372470 -0.599755
Zn1   Zn    Zn3+2 0.386190 0.493480 0.494250 1.001701
Zn2   Zn    Zn3+2 0.613810 0.506520 0.505750 1.001701

loop_
_geom_bond_atom_site_label_1
_geom_bond_atom_site_label_2
_ccdc_geom_bond_type
C12   O2    A    
C12   O4    A    
C3    C9    S    
N1    Zn1   S    
N2    Zn2   S    
C20   C23   S    
C20   H6    S    
C8    H2    S    
C6    C14   S    
C4    O8    A    
C21   C22   S    
C20   C21   D    
C6    C13   S    
C2    N1    T    
C3    O5    A    
C24   H8    S    
C25   H7    S    
C8    C11   S    
C7    H1    S    
C1    O3    A    
O3    Zn2   S    
C3    O7    A    
C11   H4    S    
C5    C11   S    
C8    C15   S    
C5    C7    S    
O4    Zn1   S    
C13   C15   S    
C2    C24   S    
C13   H3    S    
C11   C14   S    
C14   C16   S    
C5    C15   S    
C1    C19   S    
C1    O1    A    
C10   C17   T    
C4    C10   S    
C18   C23   T    
C7    C13   S    
C19   C22   T    
C21   H5    S    
C24   C25   D    
O1    Zn1   S    
O7    Zn2   S    
C12   C18   S    
C15   C17   S    
O2    Zn2   S    
O8    Zn1   S    
C26   N2    T    
C6    C8    S    
C4    O6    A    
C25   C26   S    
C5    Cl1   S    
O5    Zn1   S    
C9    C16   T    
C7    C14   S    
C6    Cl2   S    
O6    Zn2   S    
