data_mof_unit_61736.cif
_audit_creation_date              2012-12-10T19:29:56-0500
_audit_creation_method            fapswitch 2.2
_symmetry_space_group_name_H-M    P1
_symmetry_Int_Tables_number       1
_space_group_crystal_system       triclinic
_cell_length_a                    36.047416
_cell_length_b                    43.135706
_cell_length_c                    43.257596
_cell_angle_alpha                 90.004365
_cell_angle_beta                  90.06049
_cell_angle_gamma                 90.018745
_cell_volume                      67262.5244175

loop_
_atom_site_label
_atom_site_type_symbol
_atom_type_description
_atom_site_fract_x
_atom_site_fract_y
_atom_site_fract_z
_atom_type_partial_charge
C1    C     C_R   0.650486 0.500006 0.250002 0.810654
C2    C     C_R   0.849515 0.000006 0.750007 0.812507
C3    C     C_3   0.978320 0.526283 0.732015 0.957304
C4    C     C_3   0.478617 0.529374 0.762030 0.933386
C5    C     C_3   0.521768 0.529008 0.236789 0.949292
C6    C     C_3   0.521685 0.527826 0.765313 0.957763
C7    C     C_3   0.478693 0.530582 0.240129 0.935583
C8    C     C_3   0.478617 0.028835 0.263396 0.939024
C9    C     C_3   0.521412 0.029126 0.737410 0.933608
C10   C     C_3   0.521678 0.027090 0.266627 0.942734
C11   C     C_3   0.478347 0.027507 0.734147 0.957564
C12   C     C_3   0.978279 0.028889 0.763507 0.950076
C13   C     C_R   0.849514 0.000024 0.250020 0.821972
C14   C     C_3   0.021431 0.031036 0.244464 0.932472
C15   C     C_3   0.021348 0.030481 0.760158 0.934345
C16   C     C_3   0.978366 0.030237 0.240928 0.957394
C17   C     C_3   0.978161 0.492188 0.217875 1.005402
C18   C     C_3   0.021832 0.493642 0.782464 1.003943
C19   C     C_3   0.021146 0.496224 0.217070 0.998986
C20   C     C_3   0.978849 0.497700 0.783094 1.000034
C21   C     C_3   0.478197 0.490257 0.718360 1.007127
C22   C     C_3   0.521326 0.492556 0.282650 1.003854
C23   C     C_3   0.521183 0.494209 0.717376 0.998266
C24   C     C_R   0.150494 0.000050 0.749953 0.816612
C25   C     C_3   0.478264 0.489179 0.281539 0.999706
C26   C     C_3   0.478209 0.992012 0.217805 0.995233
C27   C     C_3   0.521786 0.990898 0.781838 1.005901
C28   C     C_3   0.521218 0.995957 0.217034 1.011305
C29   C     C_3   0.478802 0.994846 0.782728 0.999146
C30   C     C_3   0.978673 0.992812 0.717340 1.002509
C31   C     C_3   0.021777 0.983520 0.278859 1.007440
C32   C     C_3   0.021722 0.989389 0.718428 1.002607
C33   C     C_3   0.978799 0.987195 0.280653 0.998278
C34   C     C_1   0.610892 0.999462 0.250313 0.010743
C35   C     C_R   0.650489 0.000056 0.750039 0.814823
C36   C     C_1   0.389111 0.999428 0.749633 -0.002908
C37   C     C_1   0.389116 0.999493 0.250411 0.000585
C38   C     C_1   0.610889 0.999461 0.749559 0.000393
C39   C     C_1   0.110907 0.999660 0.750294 0.011797
C40   C     C_1   0.889112 0.999401 0.249526 -0.003537
C41   C     C_1   0.889118 0.999465 0.750348 -0.012815
C42   C     C_1   0.110889 0.999438 0.249453 0.000501
C43   C     C_1   0.110893 0.499464 0.250298 -0.001458
C44   C     C_1   0.889105 0.499499 0.749732 -0.004223
C45   C     C_1   0.889116 0.499465 0.250478 0.001238
C46   C     C_R   0.349514 0.000060 0.249963 0.816203
C47   C     C_1   0.110885 0.499467 0.749565 0.002055
C48   C     C_1   0.610892 0.499430 0.750356 -0.001997
C49   C     C_1   0.389086 0.499699 0.249725 0.004625
C50   C     C_1   0.389113 0.499471 0.750471 0.002023
C51   C     C_1   0.610886 0.499463 0.249681 -0.013589
C52   C     C_R   0.749616 0.500234 0.334237 0.962223
C53   C     C_R   0.250404 0.500258 0.665814 0.978961
C54   C     C_R   0.250414 0.500217 0.334212 0.966059
C55   C     C_R   0.749778 0.499991 0.665675 0.943205
C56   C     C_R   0.249615 0.500233 0.834232 0.963241
C57   C     C_R   0.349512 0.000017 0.750020 0.825932
C58   C     C_R   0.750389 0.500241 0.165782 0.966456
C59   C     C_R   0.750367 0.500141 0.834263 0.954440
C60   C     C_R   0.249751 0.500012 0.165687 0.943898
C61   C     C_R   0.249621 0.000232 0.334229 0.965177
C62   C     C_R   0.750365 0.000204 0.665742 0.955090
C63   C     C_R   0.750047 0.999844 0.334348 0.937613
C64   C     C_R   0.249701 0.000076 0.665705 0.948581
C65   C     C_R   0.749595 0.000254 0.834215 0.966789
C66   C     C_R   0.250405 0.000246 0.165785 0.967258
C67   C     C_R   0.250297 0.000070 0.834295 0.947277
C68   C     C_R   0.650490 0.000013 0.249977 0.815898
C69   C     C_R   0.749639 0.000098 0.165716 0.950344
C70   C     C_3   0.963258 0.497090 0.251481 -0.608488
C71   C     C_3   0.036741 0.497076 0.748673 -0.608058
C72   C     C_3   0.036777 0.496941 0.250777 -0.605494
C73   C     C_3   0.963221 0.496970 0.749382 -0.604490
C74   C     C_3   0.463248 0.497083 0.751622 -0.608962
C75   C     C_3   0.536739 0.497240 0.249242 -0.604743
C76   C     C_3   0.536773 0.496908 0.750998 -0.604604
C77   C     C_3   0.463235 0.497829 0.248685 -0.605440
C78   C     C_3   0.463250 0.997119 0.251374 -0.608096
C79   C     C_R   0.764146 0.733834 0.224849 -0.043397
C80   C     C_3   0.536753 0.997056 0.748456 -0.607871
C81   C     C_3   0.536767 0.996945 0.250754 -0.607623
C82   C     C_3   0.463228 0.996881 0.749058 -0.604329
C83   C     C_3   0.963262 0.997225 0.750789 -0.604707
C84   C     C_3   0.036752 0.997265 0.247812 -0.608115
C85   C     C_3   0.036764 0.997787 0.751347 -0.607889
C86   C     C_3   0.963226 0.996984 0.248365 -0.604056
C87   C     C_3   0.522214 0.967982 0.269565 0.054754
C88   C     C_3   0.477743 0.968568 0.729286 0.032073
C89   C     C_3   0.478730 0.971199 0.273786 0.094485
C90   C     C_R   0.235099 0.733836 0.775131 -0.042903
C91   C     C_3   0.521284 0.971823 0.725268 0.098204
C92   C     C_3   0.021453 0.974258 0.776232 0.094692
C93   C     C_3   0.977722 0.974037 0.222577 0.031423
C94   C     C_3   0.978030 0.970357 0.772347 0.042301
C95   C     C_3   0.021274 0.978096 0.219431 0.097455
C96   C     C_3   0.022276 0.467875 0.269450 0.031834
C97   C     C_3   0.977693 0.467120 0.731969 0.031382
C98   C     C_3   0.978797 0.471040 0.273719 0.097758
C99   C     C_3   0.021186 0.470079 0.727578 0.097827
C100  C     C_3   0.522247 0.468991 0.771331 0.031574
C101  C     C_R   0.280583 0.733865 0.261848 -0.042843
C102  C     C_3   0.478520 0.474495 0.223623 0.093519
C103  C     C_3   0.478712 0.472317 0.775300 0.097618
C104  C     C_3   0.521938 0.470565 0.227457 0.042544
C105  C     C_1   0.577558 0.998399 0.250532 0.388215
C106  C     C_1   0.422441 0.998330 0.749353 0.355677
C107  C     C_1   0.422447 0.998466 0.250913 0.394550
C108  C     C_1   0.577558 0.998416 0.748990 0.393074
C109  C     C_1   0.077575 0.998938 0.750810 0.406459
C110  C     C_1   0.922440 0.998342 0.248999 0.353691
C111  C     C_1   0.922451 0.998500 0.750556 0.369174
C112  C     C_R   0.349513 0.500062 0.749965 0.813179
C113  C     C_R   0.719331 0.733841 0.738361 -0.043166
C114  C     C_1   0.077559 0.998485 0.248655 0.392242
C115  C     C_1   0.077562 0.498397 0.250512 0.355570
C116  C     C_1   0.922436 0.498436 0.749575 0.354931
C117  C     C_1   0.922449 0.498437 0.251026 0.393587
C118  C     C_1   0.077550 0.498431 0.749068 0.392810
C119  C     C_1   0.577561 0.498345 0.750659 0.356003
C120  C     C_1   0.422418 0.498989 0.249223 0.404624
C121  C     C_1   0.422444 0.498433 0.751067 0.394058
C122  C     C_1   0.577552 0.498502 0.249482 0.369576
C123  C     C_R   0.781006 0.489761 0.886490 0.392623
C124  C     C_R   0.264938 0.733878 0.724885 -0.043142
C125  C     C_R   0.221355 0.485961 0.113197 0.394888
C126  C     C_R   0.218687 0.490911 0.886365 0.385185
C127  C     C_R   0.782103 0.492545 0.113811 0.383648
C128  C     C_R   0.282860 0.493849 0.386058 0.387432
C129  C     C_R   0.722011 0.485101 0.613147 0.395081
C130  C     C_R   0.718848 0.490553 0.386394 0.384463
C131  C     C_R   0.283194 0.495272 0.614147 0.381522
C132  C     C_R   0.279607 0.987459 0.886698 0.393714
C133  C     C_R   0.719792 0.988155 0.113341 0.391057
C134  C     C_R   0.718031 0.992398 0.886239 0.384014
C135  C     C_R   0.735508 0.733853 0.275590 -0.042573
C136  C     C_R   0.281753 0.991882 0.113729 0.384320
C137  C     C_R   0.774567 0.981293 0.386986 0.395109
C138  C     C_R   0.220260 0.987684 0.613300 0.390080
C139  C     C_R   0.218446 0.991472 0.386321 0.384057
C140  C     C_R   0.780046 0.988450 0.613433 0.386215
C141  C     C_R   0.778340 0.489864 0.918795 -0.304297
C142  C     C_R   0.224161 0.486508 0.080909 -0.306107
C143  C     C_R   0.221529 0.490707 0.918657 -0.300767
C144  C     C_R   0.779499 0.492259 0.081504 -0.303054
C145  C     C_R   0.280597 0.493644 0.418390 -0.301569
C146  C     C_R   0.780650 0.733855 0.761573 -0.042997
C147  C     C_R   0.724812 0.485740 0.580865 -0.306405
C148  C     C_R   0.721709 0.490401 0.418685 -0.299889
C149  C     C_R   0.281010 0.494867 0.581812 -0.302733
C150  C     C_R   0.276825 0.987817 0.918992 -0.305916
C151  C     C_R   0.722646 0.988300 0.081033 -0.303282
C152  C     C_R   0.720743 0.992033 0.918548 -0.300676
C153  C     C_R   0.279002 0.991572 0.081427 -0.300955
C154  C     C_R   0.772045 0.982553 0.419262 -0.306698
C155  C     C_R   0.223063 0.988027 0.581010 -0.304280
C156  C     C_R   0.221223 0.991254 0.418621 -0.301591
C157  C     C_R   0.219519 0.733834 0.238175 -0.042837
C158  C     C_R   0.777083 0.988597 0.581155 -0.297363
C159  C     C_R   0.746203 0.500155 0.933680 -0.139690
C160  C     C_R   0.254473 0.500278 0.066167 -0.141090
C161  C     C_R   0.253957 0.500532 0.933449 -0.137771
C162  C     C_R   0.746476 0.500339 0.066539 -0.136717
C163  C     C_R   0.247208 0.500197 0.433534 -0.138343
C164  C     C_R   0.754506 0.500401 0.566129 -0.141107
C165  C     C_R   0.753935 0.500678 0.433457 -0.137762
C166  C     C_R   0.247337 0.500274 0.566592 -0.136642
C167  C     C_R   0.245724 0.000207 0.933791 -0.140461
C168  C     C_R   0.263411 0.233790 0.224371 -0.043576
C169  C     C_R   0.754227 0.999993 0.066252 -0.140041
C170  C     C_R   0.753743 0.000342 0.933419 -0.137040
C171  C     C_R   0.246189 0.000378 0.066581 -0.137518
C172  C     C_R   0.745451 0.000960 0.433964 -0.141346
C173  C     C_R   0.254313 0.000234 0.566231 -0.139783
C174  C     C_R   0.253901 0.000437 0.433461 -0.137434
C175  C     C_R   0.746028 0.001182 0.566499 -0.137996
C176  C     C_R   0.715885 0.510137 0.916099 0.689687
C177  C     C_R   0.282897 0.513447 0.083850 0.690232
C178  C     C_R   0.284353 0.510286 0.915956 0.685375
C179  C     C_R   0.738908 0.233805 0.776390 -0.044000
C180  C     C_R   0.715293 0.508418 0.083973 0.686841
C181  C     C_R   0.215349 0.506651 0.416135 0.689901
C182  C     C_R   0.782329 0.514404 0.583813 0.690714
C183  C     C_R   0.784121 0.510854 0.415971 0.685137
C184  C     C_R   0.215175 0.505735 0.583877 0.688360
C185  C     C_R   0.216516 0.012131 0.916139 0.690189
C186  C     C_R   0.783871 0.011312 0.083909 0.688646
C187  C     C_R   0.784783 0.008707 0.915960 0.685585
C188  C     C_R   0.215353 0.009185 0.084056 0.685696
C189  C     C_R   0.720524 0.018353 0.416272 0.689841
C190  C     C_R   0.780281 0.233885 0.262318 -0.042319
C191  C     C_R   0.283649 0.011974 0.583890 0.689474
C192  C     C_R   0.284596 0.009567 0.415970 0.685854
C193  C     C_R   0.717051 0.013442 0.584002 0.682423
C194  C     C_R   0.717769 0.510060 0.883938 0.508621
C195  C     C_R   0.280844 0.513194 0.115991 0.510999
C196  C     C_R   0.282492 0.510003 0.883811 0.507229
C197  C     C_R   0.717043 0.508304 0.116137 0.503217
C198  C     C_R   0.216913 0.506702 0.383941 0.507373
C199  C     C_R   0.780282 0.514091 0.615950 0.510132
C200  C     C_R   0.782282 0.510502 0.383828 0.507948
C201  C     C_R   0.219453 0.233857 0.738063 -0.042702
C202  C     C_R   0.216665 0.505775 0.616075 0.504026
C203  C     C_R   0.218535 0.011979 0.883985 0.510619
C204  C     C_R   0.781851 0.011189 0.116073 0.509161
C205  C     C_R   0.782964 0.008544 0.883792 0.503781
C206  C     C_R   0.217195 0.009001 0.116218 0.506997
C207  C     C_R   0.722514 0.017763 0.384154 0.510405
C208  C     C_R   0.281627 0.011802 0.616041 0.509760
C209  C     C_R   0.282739 0.009359 0.383815 0.506760
C210  C     C_R   0.718843 0.012822 0.616125 0.509876
C211  C     C_R   0.750126 0.499948 0.868545 -0.406447
C212  C     C_R   0.760960 0.233802 0.723446 -0.043761
C213  C     C_R   0.250208 0.499641 0.131332 -0.409186
C214  C     C_R   0.249875 0.500303 0.868457 -0.403793
C215  C     C_R   0.750214 0.500317 0.131580 -0.400956
C216  C     C_R   0.250421 0.500242 0.368412 -0.403711
C217  C     C_R   0.750250 0.499629 0.631302 -0.409037
C218  C     C_R   0.749860 0.500339 0.368472 -0.404289
C219  C     C_R   0.250432 0.500424 0.631665 -0.400413
C220  C     C_R   0.249909 0.999774 0.868632 -0.408595
C221  C     C_R   0.749978 0.999770 0.131404 -0.407607
C222  C     C_R   0.749813 0.000334 0.868416 -0.401353
C223  C     C_R   0.349503 0.500063 0.250051 0.820243
C224  C     C_R   0.236331 0.233882 0.275692 -0.043176
C225  C     C_R   0.250174 0.000311 0.131579 -0.403116
C226  C     C_R   0.749466 0.999457 0.368767 -0.409847
C227  C     C_R   0.250102 0.999790 0.631375 -0.407531
C228  C     C_R   0.249886 0.000290 0.368449 -0.403212
C229  C     C_R   0.750145 0.000358 0.631468 -0.405430
C230  C     C_R   0.736337 0.527574 0.984007 0.641011
C231  C     C_R   0.260624 0.528521 0.015869 0.641197
C232  C     C_R   0.260571 0.528522 0.983599 0.637733
C233  C     C_R   0.736380 0.527583 0.016287 0.638909
C234  C     C_R   0.233421 0.526336 0.483931 0.641198
C235  C     C_R   0.280424 0.233845 0.761902 -0.042977
C236  C     C_R   0.759482 0.528801 0.515843 0.641779
C237  C     C_R   0.759430 0.528806 0.483580 0.637701
C238  C     C_R   0.233436 0.526333 0.516226 0.639468
C239  C     C_R   0.237843 0.028084 0.984128 0.641133
C240  C     C_R   0.762549 0.027895 0.015934 0.640031
C241  C     C_R   0.762445 0.027928 0.983646 0.637625
C242  C     C_R   0.237881 0.028069 0.016399 0.638003
C243  C     C_R   0.745332 0.029730 0.484238 0.641796
C244  C     C_R   0.262248 0.028124 0.515925 0.640962
C245  C     C_R   0.262197 0.028125 0.483658 0.638360
C246  C     C_R   0.719728 0.233815 0.237744 -0.042884
C247  C     C_R   0.745279 0.029717 0.516494 0.635573
C248  C     C_R   0.749993 0.415776 0.249999 0.880449
C249  C     C_R   0.249999 0.415774 0.750004 0.883317
C250  C     C_R   0.250004 0.415765 0.249988 0.880690
C251  C     C_R   0.749998 0.415762 0.749992 0.886691
C252  C     C_R   0.250000 0.915774 0.250003 0.883246
C253  C     C_R   0.749997 0.915773 0.750000 0.880798
C254  C     C_R   0.749981 0.915770 0.250014 0.883971
C255  C     C_R   0.249992 0.915769 0.750002 0.880578
C256  C     C_R   0.744974 0.500342 0.032574 -0.042762
C257  C     C_R   0.749825 0.717615 0.250226 0.146030
C258  C     C_R   0.255678 0.500634 0.967348 -0.041893
C259  C     C_R   0.256100 0.500548 0.032151 -0.042864
C260  C     C_R   0.744720 0.500261 0.967713 -0.043300
C261  C     C_R   0.246168 0.500243 0.532546 -0.043927
C262  C     C_R   0.755669 0.500811 0.467333 -0.041781
C263  C     C_R   0.756126 0.500721 0.532121 -0.042938
C264  C     C_R   0.246044 0.500204 0.467607 -0.044638
C265  C     C_R   0.244523 0.000435 0.032651 -0.042092
C266  C     C_R   0.755411 0.000348 0.967356 -0.042256
C267  C     C_R   0.755851 0.000197 0.032210 -0.043076
C268  C     C_R   0.250034 0.717624 0.750002 0.146265
C269  C     C_R   0.244142 0.000381 0.967820 -0.043074
C270  C     C_R   0.744254 0.001520 0.532685 -0.041020
C271  C     C_R   0.255564 0.000489 0.467388 -0.042451
C272  C     C_R   0.255913 0.000409 0.532213 -0.043565
C273  C     C_R   0.743873 0.001496 0.467957 -0.043461
C274  C     C_R   0.753411 0.473161 0.016291 -0.221657
C275  C     C_R   0.251145 0.472787 0.983579 -0.219117
C276  C     C_R   0.251486 0.472725 0.015765 -0.222225
C277  C     C_R   0.753208 0.473102 0.984091 -0.222610
C278  C     C_R   0.258951 0.474284 0.516212 -0.221450
C279  C     C_R   0.250056 0.717623 0.250010 0.145529
C280  C     C_R   0.752295 0.472857 0.483551 -0.218465
C281  C     C_R   0.752664 0.472795 0.515728 -0.222394
C282  C     C_R   0.258852 0.474252 0.483991 -0.221938
C283  C     C_R   0.250861 0.972860 0.016383 -0.219889
C284  C     C_R   0.748767 0.972769 0.983593 -0.219492
C285  C     C_R   0.749096 0.972672 0.015797 -0.221571
C286  C     C_R   0.250554 0.972808 0.984193 -0.222637
C287  C     C_R   0.742841 0.973415 0.516500 -0.215607
C288  C     C_R   0.249206 0.972898 0.483649 -0.220365
C289  C     C_R   0.249483 0.972838 0.515834 -0.222342
C290  C     C_R   0.749989 0.717621 0.749966 0.145860
C291  C     C_R   0.742470 0.973401 0.484334 -0.221963
C292  C     C_R   0.749990 0.584204 0.250014 0.861821
C293  C     C_R   0.250006 0.584204 0.750000 0.861867
C294  C     C_R   0.250006 0.584194 0.250001 0.860433
C295  C     C_R   0.750001 0.584194 0.749997 0.859285
C296  C     C_R   0.249986 0.084198 0.250016 0.860889
C297  C     C_R   0.749997 0.084187 0.750004 0.861387
C298  C     C_R   0.750006 0.084200 0.250002 0.859109
C299  C     C_R   0.249996 0.084195 0.749995 0.858973
C300  C     C_R   0.768788 0.865257 0.273304 -0.228320
C301  C     C_R   0.249871 0.217607 0.250062 0.146142
C302  C     C_R   0.231493 0.865224 0.726584 -0.231306
C303  C     C_R   0.222412 0.865213 0.265994 -0.224200
C304  C     C_R   0.777445 0.865231 0.733831 -0.225213
C305  C     C_R   0.268416 0.865241 0.773463 -0.231123
C306  C     C_R   0.730984 0.865205 0.226911 -0.236368
C307  C     C_R   0.722541 0.865212 0.766151 -0.225604
C308  C     C_R   0.277613 0.865233 0.234029 -0.225036
C309  C     C_R   0.269580 0.365206 0.272743 -0.232038
C310  C     C_R   0.728757 0.365214 0.728213 -0.227091
C311  C     C_R   0.722043 0.365229 0.265584 -0.226502
C312  C     C_R   0.749949 0.217568 0.749925 0.145733
C313  C     C_R   0.277652 0.365225 0.734103 -0.226036
C314  C     C_R   0.771209 0.365186 0.771687 -0.227871
C315  C     C_R   0.230452 0.365223 0.227135 -0.229130
C316  C     C_R   0.222334 0.365224 0.765931 -0.224223
C317  C     C_R   0.777873 0.365231 0.234375 -0.225302
C318  C     C_R   0.768617 0.832925 0.273472 0.628408
C319  C     C_R   0.231634 0.832896 0.726463 0.628032
C320  C     C_R   0.222265 0.832882 0.265879 0.628982
C321  C     C_R   0.777599 0.832901 0.733940 0.627230
C322  C     C_R   0.268252 0.832914 0.773601 0.628028
C323  C     C_R   0.750023 0.217622 0.250035 0.145701
C324  C     C_R   0.731082 0.832873 0.226835 0.626056
C325  C     C_R   0.722387 0.832882 0.766031 0.627553
C326  C     C_R   0.277777 0.832904 0.234151 0.627933
C327  C     C_R   0.269444 0.332882 0.272847 0.627870
C328  C     C_R   0.728811 0.332890 0.728090 0.627534
C329  C     C_R   0.721870 0.332894 0.265453 0.627492
C330  C     C_R   0.277801 0.332895 0.734227 0.628348
C331  C     C_R   0.771118 0.332862 0.771765 0.627641
C332  C     C_R   0.230562 0.332895 0.226999 0.627830
C333  C     C_R   0.222171 0.332893 0.765815 0.627857
C334  C     C_R   0.650489 0.500016 0.749974 0.824205
C335  C     C_R   0.249931 0.217624 0.749974 0.145545
C336  C     C_R   0.778017 0.332898 0.234499 0.627644
C337  C     C_R   0.749841 0.816545 0.250172 -0.220489
C338  C     C_R   0.249944 0.816546 0.750034 -0.221972
C339  C     C_R   0.250026 0.816541 0.250017 -0.227064
C340  C     C_R   0.749993 0.816540 0.749983 -0.226545
C341  C     C_R   0.249985 0.316530 0.249924 -0.221866
C342  C     C_R   0.749952 0.316514 0.749918 -0.220848
C343  C     C_R   0.749943 0.316546 0.249980 -0.226415
C344  C     C_R   0.249981 0.316542 0.750021 -0.226643
C345  C     C_R   0.749920 0.881656 0.250073 -0.203560
C346  C     C_R   0.749836 0.782469 0.250196 0.168392
C347  C     C_R   0.249967 0.881659 0.750015 -0.206461
C348  C     C_R   0.250007 0.881654 0.250010 -0.212843
C349  C     C_R   0.749994 0.881653 0.749996 -0.212687
C350  C     C_R   0.250012 0.381648 0.249955 -0.206979
C351  C     C_R   0.749989 0.381639 0.749965 -0.206419
C352  C     C_R   0.749970 0.381657 0.249988 -0.212101
C353  C     C_R   0.249995 0.381655 0.750013 -0.212195
C354  C     C_R   0.763991 0.766152 0.224763 -0.043948
C355  C     C_R   0.235218 0.766154 0.775213 -0.045973
C356  C     C_R   0.280656 0.766183 0.261718 -0.045642
C357  C     C_R   0.249968 0.782483 0.750023 0.169364
C358  C     C_R   0.719251 0.766159 0.738500 -0.044868
C359  C     C_R   0.264753 0.766196 0.724824 -0.044311
C360  C     C_R   0.735677 0.766173 0.275646 -0.046397
C361  C     C_R   0.780733 0.766173 0.761445 -0.046173
C362  C     C_R   0.219425 0.766152 0.238312 -0.044431
C363  C     C_R   0.263280 0.266108 0.224252 -0.045881
C364  C     C_R   0.739054 0.266117 0.776438 -0.044500
C365  C     C_R   0.780337 0.266205 0.262170 -0.044997
C366  C     C_R   0.219384 0.266175 0.738215 -0.045213
C367  C     C_R   0.760791 0.266115 0.723384 -0.044266
C368  C     C_R   0.250035 0.782472 0.250017 0.168648
C369  C     C_R   0.236515 0.266199 0.275705 -0.044097
C370  C     C_R   0.280523 0.266163 0.761788 -0.045057
C371  C     C_R   0.719610 0.266135 0.237864 -0.046006
C372  C     C_R   0.749992 0.782471 0.749976 0.169282
C373  C     C_R   0.249918 0.282462 0.249955 0.169128
C374  C     C_R   0.749924 0.282435 0.749910 0.167808
C375  C     C_R   0.749960 0.282476 0.250007 0.169111
C376  C     C_R   0.249961 0.282474 0.750010 0.168762
C377  C     C_R   0.777740 0.667122 0.266387 0.364867
C378  C     C_R   0.150486 0.500049 0.750030 0.818398
C379  C     C_R   0.222586 0.667121 0.733272 0.366055
C380  C     C_R   0.230617 0.667122 0.273224 0.367051
C381  C     C_R   0.769377 0.667120 0.726736 0.366188
C382  C     C_R   0.277500 0.667131 0.766688 0.365722
C383  C     C_R   0.721939 0.667110 0.234011 0.366095
C384  C     C_R   0.730595 0.667120 0.773210 0.367250
C385  C     C_R   0.269491 0.667123 0.226807 0.366224
C386  C     C_R   0.277875 0.167125 0.266166 0.366362
C387  C     C_R   0.720704 0.167040 0.735526 0.367270
C388  C     C_R   0.730492 0.167119 0.273173 0.364433
C389  C     C_R   0.849516 0.500052 0.249976 0.815132
C390  C     C_R   0.269484 0.167132 0.726824 0.366523
C391  C     C_R   0.779243 0.167094 0.764379 0.367577
C392  C     C_R   0.221837 0.167086 0.234066 0.367112
C393  C     C_R   0.230367 0.167117 0.773099 0.366380
C394  C     C_R   0.769631 0.167137 0.226917 0.366164
C395  C     C_R   0.777310 0.634717 0.266297 -0.229904
C396  C     C_R   0.223054 0.634715 0.733318 -0.230839
C397  C     C_R   0.230644 0.634714 0.272823 -0.229753
C398  C     C_R   0.769348 0.634712 0.727150 -0.228300
C399  C     C_R   0.277010 0.634725 0.766653 -0.229920
C400  C     C_R   0.849509 0.500022 0.750027 0.826276
C401  C     C_R   0.722474 0.634704 0.233966 -0.230293
C402  C     C_R   0.730634 0.634713 0.772815 -0.229484
C403  C     C_R   0.269432 0.634715 0.227200 -0.229075
C404  C     C_R   0.277399 0.134717 0.266149 -0.229714
C405  C     C_R   0.721264 0.134634 0.735479 -0.227586
C406  C     C_R   0.730537 0.134714 0.272773 -0.227928
C407  C     C_R   0.269462 0.134724 0.727229 -0.229272
C408  C     C_R   0.778697 0.134685 0.764490 -0.228942
C409  C     C_R   0.222382 0.134678 0.234047 -0.229539
C410  C     C_R   0.230438 0.134709 0.772711 -0.229489
C411  C     C_R   0.150490 0.500013 0.249975 0.826343
C412  C     C_R   0.769557 0.134730 0.227287 -0.230735
C413  C     C_R   0.749929 0.618356 0.250086 -0.122023
C414  C     C_R   0.250022 0.618361 0.749993 -0.121777
C415  C     C_R   0.250026 0.618354 0.250007 -0.121521
C416  C     C_R   0.749996 0.618353 0.749987 -0.121919
C417  C     C_R   0.249922 0.118346 0.250073 -0.121718
C418  C     C_R   0.749984 0.118318 0.750000 -0.121669
C419  C     C_R   0.750031 0.118360 0.250018 -0.122313
C420  C     C_R   0.249969 0.118356 0.749979 -0.121784
C421  C     C_R   0.749820 0.683533 0.250224 -0.178205
C422  C     C_R   0.150488 0.000059 0.250037 0.816956
C423  C     C_R   0.250044 0.683549 0.749984 -0.178470
C424  C     C_R   0.250059 0.683543 0.250016 -0.178390
C425  C     C_R   0.749984 0.683541 0.749969 -0.178753
C426  C     C_R   0.249848 0.183528 0.250113 -0.179158
C427  C     C_R   0.749967 0.183497 0.749940 -0.179622
C428  C     C_R   0.750055 0.183544 0.250046 -0.177785
C429  C     C_R   0.249918 0.183544 0.749960 -0.178370
C430  C     C_3   0.978631 0.528741 0.263673 0.934161
C431  C     C_3   0.021397 0.528171 0.735122 0.934675
C432  C     C_3   0.021707 0.526978 0.266872 0.957618
F1    F     F_    0.962979 0.535778 0.292155 -0.550275
F2    F     F_    0.537080 0.037177 0.709206 -0.552594
F3    F     F_    0.962723 0.474915 0.801198 -0.551322
F4    F     F_    0.468508 0.460513 0.709499 -0.521025
F5    F     F_    0.537027 0.466776 0.296573 -0.513454
F6    F     F_    0.537312 0.469688 0.701695 -0.549376
F7    F     F_    0.468188 0.459169 0.289006 -0.523934
F8    F     F_    0.468446 0.962792 0.207415 -0.522552
F9    F     F_    0.531460 0.961349 0.791302 -0.522246
F10   F     F_    0.537347 0.972214 0.200184 -0.516115
F11   F     F_    0.462669 0.970625 0.798868 -0.550852
F12   F     F_    0.962924 0.967168 0.703185 -0.514453
F13   F     F_    0.531453 0.027025 0.297693 -0.582178
F14   F     F_    0.031403 0.952564 0.281214 -0.522304
F15   F     F_    0.031738 0.959427 0.710734 -0.520316
F16   F     F_    0.962621 0.959915 0.290803 -0.550062
F17   F     F_    0.961876 0.513356 0.197830 -0.526969
F18   F     F_    0.038131 0.515677 0.801568 -0.527109
F19   F     F_    0.029979 0.523740 0.202115 -0.516412
F20   F     F_    0.970027 0.525832 0.796867 -0.515600
F21   F     F_    0.461956 0.510272 0.697148 -0.526457
F22   F     F_    0.530832 0.517860 0.300841 -0.523619
F23   F     F_    0.530071 0.520782 0.700844 -0.516315
F24   F     F_    0.468543 0.028447 0.703105 -0.578813
F25   F     F_    0.462439 0.508293 0.303731 -0.516463
F26   F     F_    0.462021 0.013119 0.197643 -0.526883
F27   F     F_    0.538021 0.011341 0.802651 -0.526851
F28   F     F_    0.530174 0.023313 0.201847 -0.518770
F29   F     F_    0.469906 0.021726 0.798742 -0.515565
F30   F     F_    0.969227 0.018272 0.699357 -0.522862
F31   F     F_    0.038044 0.998544 0.303836 -0.526047
F32   F     F_    0.037584 0.008646 0.696367 -0.516006
F33   F     F_    0.969961 0.009656 0.302426 -0.515214
F34   F     F_    0.968539 0.031954 0.794406 -0.577881
F35   F     F_    0.037098 0.045408 0.218875 -0.553526
F36   F     F_    0.037040 0.040508 0.787744 -0.551483
F37   F     F_    0.968557 0.038372 0.210950 -0.579238
F38   F     F_    0.683957 0.519183 0.930100 -0.528271
F39   F     F_    0.313281 0.525867 0.069974 -0.525741
F40   F     F_    0.316226 0.519394 0.930068 -0.533998
F41   F     F_    0.037044 0.533949 0.706354 -0.549946
F42   F     F_    0.682793 0.515658 0.069799 -0.533394
F43   F     F_    0.182398 0.512063 0.430345 -0.528631
F44   F     F_    0.812152 0.527740 0.569950 -0.525512
F45   F     F_    0.815780 0.520460 0.430084 -0.534011
F46   F     F_    0.182070 0.510218 0.569537 -0.530700
F47   F     F_    0.185447 0.023190 0.930037 -0.526503
F48   F     F_    0.815320 0.021769 0.069969 -0.527599
F49   F     F_    0.817186 0.016317 0.930119 -0.535084
F50   F     F_    0.183108 0.017258 0.069927 -0.534147
F51   F     F_    0.693490 0.035422 0.430107 -0.525105
F52   F     F_    0.031501 0.526707 0.297932 -0.576936
F53   F     F_    0.314835 0.022869 0.569999 -0.527680
F54   F     F_    0.316750 0.017960 0.430072 -0.533638
F55   F     F_    0.686571 0.025422 0.569902 -0.536837
F56   F     F_    0.687299 0.519228 0.867859 -0.548618
F57   F     F_    0.309600 0.525751 0.132030 -0.542878
F58   F     F_    0.313134 0.518672 0.867726 -0.548440
F59   F     F_    0.685801 0.515359 0.132198 -0.553919
F60   F     F_    0.185193 0.512305 0.367906 -0.551946
F61   F     F_    0.808457 0.527563 0.631958 -0.544197
F62   F     F_    0.812762 0.519588 0.367758 -0.547804
F63   F     F_    0.968506 0.524674 0.700995 -0.578623
F64   F     F_    0.184704 0.510295 0.632063 -0.551554
F65   F     F_    0.189063 0.023224 0.867926 -0.543994
F66   F     F_    0.811779 0.021691 0.132167 -0.547617
F67   F     F_    0.814109 0.015803 0.867690 -0.554034
F68   F     F_    0.186212 0.016726 0.132314 -0.549165
F69   F     F_    0.697342 0.035049 0.368258 -0.543120
F70   F     F_    0.311236 0.022825 0.632122 -0.546843
F71   F     F_    0.313607 0.017437 0.367722 -0.549083
F72   F     F_    0.689377 0.024056 0.632147 -0.547150
F73   F     F_    0.729575 0.554460 0.968687 -0.535843
F74   F     F_    0.462967 0.537982 0.790078 -0.551243
F75   F     F_    0.263547 0.555906 0.031182 -0.535735
F76   F     F_    0.263884 0.555820 0.968193 -0.542096
F77   F     F_    0.729420 0.554407 0.031652 -0.540238
F78   F     F_    0.222409 0.552233 0.468617 -0.534833
F79   F     F_    0.761263 0.556246 0.531152 -0.535713
F80   F     F_    0.761649 0.556172 0.468176 -0.542574
F81   F     F_    0.222307 0.552170 0.531567 -0.538143
F82   F     F_    0.233198 0.055305 0.968835 -0.535560
F83   F     F_    0.767656 0.055069 0.031277 -0.535917
F84   F     F_    0.767796 0.055035 0.968263 -0.541319
F85   F     F_    0.531535 0.532323 0.205919 -0.577337
F86   F     F_    0.232845 0.055169 0.031817 -0.541566
F87   F     F_    0.748332 0.057145 0.468955 -0.535252
F88   F     F_    0.266953 0.055337 0.531238 -0.535563
F89   F     F_    0.267199 0.055256 0.468273 -0.540860
F90   F     F_    0.747577 0.057080 0.531951 -0.543965
F91   F     F_    0.787348 0.817619 0.296032 -0.593395
F92   F     F_    0.213348 0.817547 0.703667 -0.592491
F93   F     F_    0.195437 0.817540 0.281714 -0.587702
F94   F     F_    0.804274 0.817580 0.717922 -0.588964
F95   F     F_    0.286530 0.817583 0.796406 -0.593321
F96   F     F_    0.531503 0.529385 0.796333 -0.577754
F97   F     F_    0.712315 0.817516 0.204321 -0.595343
F98   F     F_    0.695708 0.817541 0.782041 -0.589039
F99   F     F_    0.304612 0.817584 0.218317 -0.588997
F100  F     F_    0.288850 0.317544 0.294986 -0.592374
F101  F     F_    0.707678 0.317597 0.707041 -0.593419
F102  F     F_    0.694711 0.317560 0.280898 -0.589395
F103  F     F_    0.304686 0.317564 0.718463 -0.588892
F104  F     F_    0.792234 0.317540 0.792793 -0.593036
F105  F     F_    0.211144 0.317573 0.204848 -0.593250
F106  F     F_    0.195276 0.317560 0.781580 -0.588715
F107  F     F_    0.463027 0.540807 0.212610 -0.551462
F108  F     F_    0.805163 0.317566 0.219047 -0.589042
F109  F     F_    0.537601 0.053307 0.253518 -0.504923
F110  F     F_    0.462477 0.053285 0.748103 -0.504098
F111  F     F_    0.468994 0.052470 0.243124 -0.507050
F112  F     F_    0.531088 0.052114 0.758394 -0.507470
F113  F     F_    0.030868 0.052016 0.737673 -0.508317
F114  F     F_    0.962522 0.052084 0.260465 -0.506370
F115  F     F_    0.962220 0.053539 0.747772 -0.502492
F116  F     F_    0.031132 0.048535 0.270180 -0.509381
F117  F     F_    0.037612 0.553295 0.253941 -0.503960
F118  F     F_    0.462945 0.036032 0.291830 -0.551341
F119  F     F_    0.962450 0.553133 0.743824 -0.502875
F120  F     F_    0.968993 0.552492 0.243539 -0.507130
F121  F     F_    0.031074 0.552776 0.754209 -0.506889
F122  F     F_    0.537567 0.553328 0.750849 -0.504770
F123  F     F_    0.469176 0.551943 0.262776 -0.507178
F124  F     F_    0.468948 0.551939 0.740597 -0.508506
F125  F     F_    0.537842 0.553511 0.252753 -0.502924
F126  F     F_    0.968473 0.462992 0.207369 -0.522535
F127  F     F_    0.031504 0.464932 0.794232 -0.523681
F128  F     F_    0.037258 0.472694 0.199949 -0.549967
H1    H     H_    0.783560 0.877429 0.291437 0.215430
H2    H     H_    0.712105 0.377336 0.711236 0.220718
H3    H     H_    0.784254 0.622128 0.709451 0.211637
H4    H     H_    0.297939 0.622153 0.779480 0.210988
H5    H     H_    0.701208 0.622109 0.221533 0.210910
H6    H     H_    0.715733 0.622128 0.790521 0.210478
H7    H     H_    0.284352 0.622131 0.209511 0.211566
H8    H     H_    0.298749 0.122149 0.278488 0.210291
H9    H     H_    0.698987 0.122007 0.724365 0.209508
H10   H     H_    0.715533 0.122115 0.290417 0.213726
H11   H     H_    0.284492 0.122145 0.709600 0.211088
H12   H     H_    0.800988 0.122095 0.775608 0.209159
H13   H     H_    0.700205 0.377378 0.277772 0.229152
H14   H     H_    0.201055 0.122084 0.221687 0.209730
H15   H     H_    0.215422 0.122119 0.790346 0.211314
H16   H     H_    0.784561 0.122143 0.209641 0.211498
H17   H     H_    0.953029 0.394366 0.304931 0.401273
H18   H     H_    0.046891 0.392056 0.699804 0.401690
H19   H     H_    0.086308 0.433076 0.223271 0.406896
H20   H     H_    0.913677 0.434234 0.779679 0.405133
H21   H     H_    0.453000 0.397222 0.810268 0.401167
H22   H     H_    0.547921 0.389102 0.213232 0.400315
H23   H     H_    0.586704 0.431458 0.727650 0.406437
H24   H     H_    0.299295 0.377367 0.721660 0.228095
H25   H     H_    0.393067 0.433521 0.203111 0.380954
H26   H     H_    0.453053 0.894590 0.305277 0.400343
H27   H     H_    0.546558 0.895686 0.692347 0.400912
H28   H     H_    0.590441 0.913390 0.235377 0.401403
H29   H     H_    0.413514 0.932040 0.773941 0.405927
H30   H     H_    0.952083 0.888714 0.785833 0.400204
H31   H     H_    0.045282 0.910926 0.170508 0.402156
H32   H     H_    0.106024 0.932390 0.798292 0.383487
H33   H     H_    0.912900 0.929054 0.257133 0.404818
H34   H     H_    0.840714 0.440169 0.840046 0.397596
H35   H     H_    0.787876 0.377283 0.788680 0.223269
H36   H     H_    0.170456 0.429215 0.159123 0.396479
H37   H     H_    0.141640 0.497543 0.832094 0.406318
H38   H     H_    0.857432 0.502593 0.169169 0.404506
H39   H     H_    0.350214 0.451587 0.339796 0.407268
H40   H     H_    0.673500 0.426882 0.659069 0.396180
H41   H     H_    0.641758 0.496154 0.332081 0.407509
H42   H     H_    0.355992 0.510693 0.670681 0.402041
H43   H     H_    0.334197 0.933278 0.840779 0.397674
H44   H     H_    0.662211 0.934934 0.158128 0.400575
H45   H     H_    0.642277 0.002319 0.831221 0.405171
H46   H     H_    0.215147 0.377369 0.209307 0.221578
H47   H     H_    0.357997 0.000744 0.168460 0.405608
H48   H     H_    0.810323 0.917474 0.340017 0.393653
H49   H     H_    0.165302 0.934163 0.659680 0.402710
H50   H     H_    0.142135 0.999170 0.331523 0.406082
H51   H     H_    0.858601 0.988769 0.666590 0.409768
H52   H     H_    0.836876 0.652054 0.317688 0.382486
H53   H     H_    0.164366 0.651960 0.681146 0.381484
H54   H     H_    0.169524 0.651939 0.322903 0.384114
H55   H     H_    0.829963 0.651861 0.676555 0.385506
H56   H     H_    0.335761 0.652006 0.818788 0.382352
H57   H     H_    0.200697 0.377364 0.778371 0.229067
H58   H     H_    0.662741 0.652080 0.182707 0.381684
H59   H     H_    0.669960 0.651867 0.823354 0.384608
H60   H     H_    0.330618 0.651945 0.177182 0.384979
H61   H     H_    0.338627 0.151900 0.316344 0.382639
H62   H     H_    0.655044 0.151593 0.689613 0.384343
H63   H     H_    0.668443 0.152080 0.321876 0.384985
H64   H     H_    0.330734 0.151949 0.677272 0.384719
H65   H     H_    0.844728 0.151867 0.810467 0.383109
H66   H     H_    0.160541 0.151686 0.184247 0.382621
H67   H     H_    0.169031 0.151896 0.822554 0.384762
H68   H     H_    0.799718 0.377380 0.222185 0.228619
H69   H     H_    0.831798 0.152150 0.178324 0.383820
H70   H     H_    0.975298 0.480336 0.297550 0.198060
H71   H     H_    0.024699 0.478320 0.703361 0.197914
H72   H     H_    0.034666 0.469344 0.293002 0.204654
H73   H     H_    0.217084 0.877376 0.708243 0.223342
H74   H     H_    0.965311 0.467573 0.708369 0.202493
H75   H     H_    0.475095 0.482896 0.798589 0.198268
H76   H     H_    0.534348 0.474524 0.204231 0.202872
H77   H     H_    0.534535 0.471886 0.794793 0.204461
H78   H     H_    0.475146 0.486469 0.201001 0.202616
H79   H     H_    0.475238 0.980640 0.297566 0.196769
H80   H     H_    0.524915 0.981933 0.701777 0.197211
H81   H     H_    0.534607 0.969527 0.293115 0.195825
H82   H     H_    0.465470 0.970989 0.705769 0.203408
H83   H     H_    0.965620 0.974112 0.795610 0.202662
H84   H     H_    0.200815 0.877343 0.278491 0.229061
H85   H     H_    0.024954 0.993377 0.198908 0.200007
H86   H     H_    0.024830 0.986069 0.798948 0.202469
H87   H     H_    0.965478 0.981887 0.200263 0.206849
H88   H     H_    0.801649 0.482318 0.932701 0.237900
H89   H     H_    0.202359 0.476450 0.066863 0.238389
H90   H     H_    0.198142 0.483446 0.932602 0.238021
H91   H     H_    0.803518 0.486281 0.067704 0.237674
H92   H     H_    0.305127 0.488875 0.432068 0.237140
H93   H     H_    0.703472 0.475035 0.566814 0.238545
H94   H     H_    0.698476 0.482820 0.432639 0.238065
H95   H     H_    0.798919 0.877376 0.721190 0.230044
H96   H     H_    0.305781 0.490908 0.568216 0.237210
H97   H     H_    0.299265 0.978733 0.932978 0.238229
H98   H     H_    0.699913 0.979687 0.067004 0.237619
H99   H     H_    0.696862 0.985862 0.932438 0.237775
H100  H     H_    0.302725 0.985049 0.067523 0.237886
H101  H     H_    0.791147 0.969247 0.433359 0.238697
H102  H     H_    0.200525 0.979084 0.567015 0.238032
H103  H     H_    0.197590 0.984463 0.432516 0.238002
H104  H     H_    0.799362 0.979412 0.567087 0.238493
H105  H     H_    0.760139 0.452000 0.028562 0.213738
H106  H     H_    0.282834 0.877407 0.791797 0.222030
H107  H     H_    0.247324 0.451131 0.971278 0.213468
H108  H     H_    0.247993 0.450971 0.027945 0.213697
H109  H     H_    0.759745 0.451865 0.971893 0.213993
H110  H     H_    0.268925 0.454018 0.528463 0.214394
H111  H     H_    0.749355 0.451119 0.471249 0.213555
H112  H     H_    0.750088 0.450955 0.527893 0.213827
H113  H     H_    0.268739 0.453942 0.471779 0.214601
H114  H     H_    0.256052 0.951401 0.028671 0.213692
H115  H     H_    0.743317 0.951338 0.971279 0.213289
H116  H     H_    0.743945 0.951129 0.027978 0.213652
H117  H     H_    0.716221 0.877334 0.208756 0.221689
H118  H     H_    0.255462 0.951260 0.971992 0.213819
H119  H     H_    0.742084 0.951533 0.528813 0.212719
H120  H     H_    0.244019 0.951433 0.471367 0.213728
H121  H     H_    0.244555 0.951283 0.528019 0.214005
H122  H     H_    0.741285 0.951448 0.472169 0.213296
H123  H     H_    0.775223 0.778461 0.205055 0.179087
H124  H     H_    0.223501 0.778456 0.794727 0.177764
H125  H     H_    0.304364 0.778510 0.271007 0.178782
H126  H     H_    0.695443 0.778468 0.729389 0.179100
H127  H     H_    0.276446 0.778531 0.705318 0.178607
H128  H     H_    0.701066 0.877343 0.778793 0.228870
H129  H     H_    0.724447 0.778503 0.295341 0.178376
H130  H     H_    0.804544 0.778494 0.770558 0.178311
H131  H     H_    0.195711 0.778454 0.229024 0.179825
H132  H     H_    0.273928 0.278385 0.204302 0.178168
H133  H     H_    0.730360 0.278404 0.797016 0.179630
H134  H     H_    0.803834 0.278554 0.271796 0.178943
H135  H     H_    0.195717 0.278495 0.728866 0.179053
H136  H     H_    0.769479 0.278401 0.702801 0.180057
H137  H     H_    0.225887 0.278548 0.295615 0.178892
H138  H     H_    0.304204 0.278473 0.771146 0.179184
H139  H     H_    0.299204 0.877380 0.221529 0.228841
H140  H     H_    0.696090 0.278429 0.228226 0.178199
H141  H     H_    0.775420 0.721421 0.205223 0.176497
H142  H     H_    0.223363 0.721418 0.794568 0.176389
H143  H     H_    0.304210 0.721481 0.271182 0.177475
H144  H     H_    0.695607 0.721439 0.729201 0.177607
H145  H     H_    0.276692 0.721494 0.705438 0.176432
H146  H     H_    0.724225 0.721457 0.295225 0.176586
H147  H     H_    0.804372 0.721465 0.770730 0.177505
H148  H     H_    0.195897 0.721425 0.228843 0.177769
H149  H     H_    0.274084 0.221358 0.204528 0.176747
H150  H     H_    0.284897 0.377335 0.290582 0.224223
H151  H     H_    0.730170 0.221431 0.796901 0.177095
H152  H     H_    0.803715 0.221508 0.271998 0.177347
H153  H     H_    0.195860 0.221465 0.728657 0.177627
H154  H     H_    0.769697 0.221425 0.702939 0.177705
H155  H     H_    0.225625 0.221525 0.295570 0.176893
H156  H     H_    0.304006 0.221443 0.771292 0.177607
H157  H     H_    0.696316 0.221381 0.228080 0.177030
H158  H     H_    0.798605 0.622132 0.278693 0.211229
H159  H     H_    0.202121 0.622136 0.720489 0.210384
H160  H     H_    0.215713 0.622130 0.290510 0.209928
O1    O     O_3   0.750000 0.499980 0.250000 -0.546620
O2    O     O_R   0.331980 0.518160 0.768200 -0.599974
O3    O     O_R   0.168020 0.981820 0.731860 -0.611645
O4    O     O_R   0.668020 0.981820 0.768140 -0.613256
O5    O     O_R   0.331980 0.981820 0.231860 -0.614507
O6    O     O_R   0.331980 0.981820 0.768140 -0.611021
O7    O     O_R   0.668020 0.981820 0.231860 -0.602453
O8    O     O_2   0.912802 0.443624 0.287138 -0.300393
O9    O     O_2   0.948997 0.418572 0.246578 -0.120897
O10   O     O_3   0.969892 0.412482 0.303884 -0.449590
O11   O     O_2   0.087147 0.442088 0.715328 -0.298072
O12   O     O_2   0.051014 0.418897 0.757023 -0.120697
O13   O     O_R   0.331980 0.518160 0.231800 -0.600816
O14   O     O_3   0.030025 0.410189 0.700064 -0.449577
O15   O     O_2   0.036116 0.406528 0.279700 -0.144193
O16   O     O_2   0.018743 0.420026 0.226890 -0.103697
O17   O     O_3   0.085009 0.433114 0.246143 -0.533755
O18   O     O_2   0.963695 0.405412 0.724310 -0.145023
O19   O     O_2   0.981227 0.421103 0.776487 -0.103476
O20   O     O_3   0.914931 0.433422 0.756815 -0.535403
O21   O     O_2   0.412611 0.445565 0.789799 -0.298936
O22   O     O_2   0.449212 0.418376 0.750902 -0.121469
O23   O     O_3   0.469575 0.415472 0.808607 -0.449310
O24   O     O_R   0.668020 0.518160 0.768200 -0.604963
O25   O     O_2   0.577305 0.433520 0.250813 -0.248787
O26   O     O_2   0.514046 0.416731 0.261304 -0.086518
O27   O     O_3   0.540404 0.409909 0.205854 -0.462964
O28   O     O_2   0.536067 0.408401 0.785289 -0.145244
O29   O     O_2   0.519080 0.418677 0.731680 -0.104038
O30   O     O_3   0.585213 0.432944 0.750470 -0.535294
O31   O     O_2   0.469121 0.418992 0.194071 -0.160898
O32   O     O_2   0.442145 0.422826 0.245997 -0.158917
O33   O     O_3   0.409959 0.451473 0.200744 -0.548890
O34   O     O_2   0.412821 0.943910 0.287690 -0.300152
O35   O     O_R   0.168020 0.518160 0.731800 -0.600100
O36   O     O_2   0.448458 0.918790 0.246855 -0.122757
O37   O     O_3   0.470032 0.912612 0.303991 -0.449229
O38   O     O_2   0.587314 0.944842 0.711118 -0.300584
O39   O     O_2   0.551012 0.918536 0.750814 -0.122412
O40   O     O_3   0.530318 0.914186 0.693276 -0.450565
O41   O     O_2   0.536939 0.906917 0.280325 -0.185570
O42   O     O_2   0.517974 0.919778 0.227536 -0.092218
O43   O     O_3   0.584363 0.933576 0.245070 -0.541182
O44   O     O_2   0.463663 0.907771 0.716459 -0.147382
O45   O     O_2   0.481059 0.918976 0.769793 -0.104371
O46   O     O_R   0.831980 0.518160 0.268200 -0.599753
O47   O     O_3   0.414827 0.932975 0.751088 -0.535553
O48   O     O_2   0.922638 0.933510 0.748663 -0.249772
O49   O     O_2   0.985887 0.916824 0.738013 -0.086486
O50   O     O_3   0.959537 0.909475 0.793408 -0.462792
O51   O     O_2   0.087428 0.954817 0.199896 -0.288375
O52   O     O_2   0.050275 0.920054 0.231819 -0.129584
O53   O     O_3   0.030484 0.929809 0.174716 -0.445965
O54   O     O_2   0.030761 0.918574 0.805429 -0.165091
O55   O     O_2   0.057727 0.922691 0.753516 -0.155112
O56   O     O_3   0.090001 0.951033 0.798922 -0.550452
O57   O     O_R   0.831980 0.518160 0.731800 -0.605194
O58   O     O_2   0.964092 0.917743 0.196119 -0.146765
O59   O     O_2   0.980464 0.916471 0.250800 -0.104975
O60   O     O_3   0.914560 0.934421 0.234913 -0.535153
O61   O     O_2   0.837151 0.501523 0.847429 -0.257652
O62   O     O_2   0.852705 0.473402 0.894856 -0.212952
O63   O     O_3   0.817557 0.443566 0.851881 -0.499365
O64   O     O_2   0.162119 0.490725 0.150609 -0.242254
O65   O     O_2   0.154278 0.459230 0.103957 -0.219911
O66   O     O_3   0.193442 0.436219 0.148670 -0.507040
O67   O     O_2   0.178468 0.449241 0.855006 -0.230529
O68   O     O_R   0.168020 0.518160 0.268200 -0.604595
O69   O     O_2   0.145696 0.479276 0.894419 -0.205944
O70   O     O_3   0.162874 0.506990 0.843196 -0.524289
O71   O     O_2   0.825035 0.452801 0.145082 -0.228334
O72   O     O_2   0.855973 0.485023 0.106348 -0.204105
O73   O     O_3   0.835925 0.511128 0.157715 -0.529697
O74   O     O_2   0.334572 0.511754 0.345131 -0.269985
O75   O     O_2   0.357039 0.488252 0.393169 -0.205333
O76   O     O_3   0.327140 0.452136 0.352204 -0.491223
O77   O     O_2   0.662278 0.488102 0.650172 -0.238406
O78   O     O_2   0.656414 0.455985 0.603782 -0.221223
O79   O     O_R   0.168020 0.018160 0.231800 -0.599243
O80   O     O_3   0.696267 0.434738 0.648901 -0.507774
O81   O     O_2   0.679364 0.448403 0.355013 -0.229724
O82   O     O_2   0.646094 0.477909 0.394528 -0.205152
O83   O     O_3   0.662633 0.505963 0.343349 -0.522009
O84   O     O_2   0.330325 0.458779 0.645074 -0.223243
O85   O     O_2   0.357662 0.494699 0.607678 -0.203102
O86   O     O_3   0.333393 0.517321 0.659433 -0.540905
O87   O     O_2   0.337755 0.995030 0.848622 -0.246977
O88   O     O_2   0.348754 0.964790 0.895633 -0.217190
O89   O     O_3   0.310975 0.938977 0.851612 -0.504439
O90   O     O_R   0.831980 0.018160 0.768200 -0.603212
O91   O     O_2   0.662281 0.997493 0.151933 -0.245701
O92   O     O_2   0.649226 0.968288 0.104450 -0.216095
O93   O     O_3   0.686022 0.940262 0.147893 -0.502349
O94   O     O_2   0.675028 0.952534 0.855174 -0.228417
O95   O     O_2   0.644272 0.984938 0.893875 -0.204464
O96   O     O_3   0.664080 0.010792 0.842339 -0.529314
O97   O     O_2   0.323793 0.951424 0.144932 -0.228774
O98   O     O_2   0.355258 0.982955 0.105922 -0.205036
O99   O     O_3   0.336414 0.009552 0.157327 -0.528070
O100  O     O_2   0.835704 0.975506 0.351819 -0.223018
O101  O     O_R   0.831980 0.018160 0.231800 -0.605835
O102  O     O_2   0.831394 0.941107 0.396745 -0.225038
O103  O     O_3   0.789343 0.928856 0.349626 -0.517239
O104  O     O_2   0.162245 0.995674 0.651466 -0.244454
O105  O     O_2   0.150715 0.965602 0.604387 -0.212542
O106  O     O_3   0.188328 0.939337 0.648275 -0.501226
O107  O     O_2   0.177263 0.950433 0.355021 -0.229839
O108  O     O_2   0.145102 0.981230 0.394201 -0.203777
O109  O     O_3   0.163280 0.008413 0.342913 -0.526161
O110  O     O_2   0.814946 0.943839 0.645221 -0.234685
O111  O     O_2   0.850795 0.969683 0.604735 -0.206661
O112  O     O_3   0.250000 0.499980 0.750000 -0.547037
O113  O     O_R   0.168020 0.018160 0.768200 -0.602235
O114  O     O_3   0.838649 0.999976 0.655476 -0.512540
O115  O     O_2   0.831433 0.710246 0.266102 -0.198417
O116  O     O_2   0.797793 0.702525 0.314485 -0.253523
O117  O     O_3   0.846557 0.661229 0.298316 -0.449553
O118  O     O_2   0.169218 0.710514 0.732323 -0.199222
O119  O     O_2   0.203878 0.702150 0.684564 -0.255028
O120  O     O_3   0.154428 0.661248 0.700371 -0.450616
O121  O     O_2   0.230718 0.710557 0.317668 -0.203756
O122  O     O_2   0.172561 0.702069 0.289890 -0.247864
O123  O     O_3   0.192846 0.661231 0.330730 -0.457691
O124  O     O_R   0.668020 0.018160 0.731800 -0.601111
O125  O     O_2   0.769403 0.710797 0.682509 -0.203060
O126  O     O_2   0.827677 0.701729 0.709925 -0.248962
O127  O     O_3   0.806586 0.661253 0.668986 -0.453434
O128  O     O_2   0.330900 0.710530 0.767587 -0.199010
O129  O     O_2   0.296279 0.702186 0.815372 -0.254468
O130  O     O_3   0.345684 0.661279 0.799548 -0.450330
O131  O     O_2   0.668181 0.710156 0.234427 -0.200125
O132  O     O_2   0.701773 0.702570 0.186004 -0.255069
O133  O     O_3   0.653095 0.661165 0.202133 -0.450549
O134  O     O_2   0.730600 0.710788 0.817448 -0.203753
O135  O     O_R   0.331980 0.018160 0.268200 -0.600000
O136  O     O_2   0.672330 0.701747 0.790006 -0.248979
O137  O     O_3   0.693338 0.661257 0.830942 -0.456553
O138  O     O_2   0.269401 0.710526 0.182341 -0.203250
O139  O     O_2   0.327543 0.702115 0.210155 -0.248976
O140  O     O_3   0.307313 0.661229 0.169326 -0.454098
O141  O     O_2   0.330952 0.210826 0.265893 -0.199379
O142  O     O_2   0.298528 0.201760 0.314618 -0.254586
O143  O     O_3   0.347510 0.161313 0.296822 -0.450721
O144  O     O_2   0.668176 0.211100 0.738507 -0.199866
O145  O     O_2   0.695855 0.200959 0.687983 -0.253365
O146  O     O_R   0.331980 0.018160 0.731800 -0.605163
O147  O     O_3   0.648354 0.161143 0.709671 -0.450935
O148  O     O_2   0.730705 0.210083 0.318039 -0.202676
O149  O     O_2   0.672825 0.202680 0.289553 -0.249263
O150  O     O_3   0.691646 0.161156 0.330182 -0.450108
O151  O     O_2   0.269680 0.210633 0.682441 -0.203337
O152  O     O_2   0.327703 0.202018 0.710365 -0.248561
O153  O     O_3   0.307451 0.161264 0.669411 -0.455139
O154  O     O_2   0.831919 0.211023 0.761088 -0.199160
O155  O     O_2   0.804146 0.201371 0.811673 -0.254813
O156  O     O_3   0.851528 0.161279 0.790370 -0.451000
O157  O     O_R   0.668020 0.018160 0.268200 -0.611810
O158  O     O_2   0.169087 0.211076 0.234010 -0.199304
O159  O     O_2   0.201173 0.201210 0.185289 -0.254842
O160  O     O_3   0.151971 0.161239 0.203796 -0.451531
O161  O     O_2   0.230195 0.210558 0.817536 -0.203382
O162  O     O_2   0.172192 0.202029 0.789546 -0.248761
O163  O     O_3   0.192298 0.161210 0.830467 -0.454945
O164  O     O_2   0.769486 0.210093 0.182052 -0.203615
O165  O     O_2   0.827307 0.202761 0.210633 -0.248941
O166  O     O_3   0.808618 0.161212 0.169974 -0.455620
O167  O     O_R   0.728510 0.481800 0.319270 -0.589099
O168  O     O_R   0.271490 0.481800 0.680730 -0.594232
O169  O     O_R   0.271490 0.481800 0.319270 -0.588976
O170  O     O_R   0.728510 0.481800 0.680730 -0.580533
O171  O     O_R   0.228510 0.481800 0.819270 -0.589949
O172  O     O_3   0.250000 0.499980 0.250000 -0.545009
O173  O     O_R   0.771490 0.481800 0.180730 -0.591954
O174  O     O_R   0.771490 0.481800 0.819270 -0.585732
O175  O     O_R   0.228510 0.481800 0.180730 -0.582326
O176  O     O_R   0.228510 0.981800 0.319270 -0.590717
O177  O     O_R   0.771490 0.981800 0.680730 -0.586861
O178  O     O_R   0.771490 0.981800 0.319270 -0.578266
O179  O     O_R   0.228510 0.981800 0.680730 -0.583472
O180  O     O_R   0.728510 0.981800 0.819270 -0.591846
O181  O     O_R   0.271490 0.981800 0.180730 -0.591010
O182  O     O_R   0.271490 0.981800 0.819270 -0.583427
O183  O     O_3   0.750000 0.499980 0.750000 -0.545452
O184  O     O_R   0.728510 0.981800 0.180730 -0.583105
O185  O     O_R   0.728520 0.430690 0.268150 -0.629777
O186  O     O_R   0.271480 0.430690 0.731850 -0.631947
O187  O     O_R   0.271480 0.430690 0.268150 -0.637662
O188  O     O_R   0.728520 0.430690 0.731850 -0.634869
O189  O     O_R   0.228520 0.430690 0.768150 -0.629512
O190  O     O_R   0.771480 0.430690 0.231850 -0.630650
O191  O     O_R   0.771480 0.430690 0.768150 -0.635858
O192  O     O_R   0.228520 0.430690 0.231850 -0.633975
O193  O     O_R   0.228520 0.930690 0.268150 -0.630266
O194  O     O_3   0.250000 0.999980 0.250000 -0.546968
O195  O     O_R   0.771480 0.930690 0.731850 -0.628785
O196  O     O_R   0.771480 0.930690 0.268150 -0.633569
O197  O     O_R   0.228520 0.930690 0.731850 -0.636636
O198  O     O_R   0.728520 0.930690 0.768150 -0.631132
O199  O     O_R   0.271480 0.930690 0.231850 -0.630169
O200  O     O_R   0.271480 0.930690 0.768150 -0.634451
O201  O     O_R   0.728520 0.930690 0.231850 -0.637075
O202  O     O_R   0.728490 0.569280 0.231810 -0.633762
O203  O     O_R   0.271510 0.569280 0.768190 -0.634114
O204  O     O_R   0.271510 0.569280 0.231810 -0.631516
O205  O     O_3   0.750000 0.999980 0.750000 -0.546764
O206  O     O_R   0.728490 0.569280 0.768190 -0.633739
O207  O     O_R   0.228490 0.569280 0.731810 -0.635334
O208  O     O_R   0.771510 0.569280 0.268190 -0.633694
O209  O     O_R   0.771510 0.569280 0.731810 -0.631151
O210  O     O_R   0.228490 0.569280 0.268190 -0.634763
O211  O     O_R   0.228490 0.069280 0.231810 -0.634769
O212  O     O_R   0.771510 0.069280 0.768190 -0.633516
O213  O     O_R   0.771510 0.069280 0.231810 -0.633832
O214  O     O_R   0.228490 0.069280 0.768190 -0.632670
O215  O     O_R   0.728490 0.069280 0.731810 -0.632426
O216  O     O_3   0.750000 0.999980 0.250000 -0.546090
O217  O     O_R   0.271510 0.069280 0.268190 -0.634324
O218  O     O_R   0.271510 0.069280 0.731810 -0.632613
O219  O     O_R   0.728490 0.069280 0.268190 -0.628724
O220  O     O_R   0.771490 0.518130 0.319280 -0.577869
O221  O     O_R   0.228510 0.518130 0.680720 -0.582803
O222  O     O_R   0.228510 0.518130 0.319280 -0.581665
O223  O     O_R   0.771490 0.518130 0.680720 -0.574951
O224  O     O_R   0.271490 0.518130 0.819280 -0.578576
O225  O     O_R   0.728510 0.518130 0.180720 -0.580952
O226  O     O_R   0.728510 0.518130 0.819280 -0.577944
O227  O     O_3   0.250000 0.999980 0.750000 -0.545429
O228  O     O_R   0.271490 0.518130 0.180720 -0.575009
O229  O     O_R   0.271490 0.018130 0.319280 -0.578998
O230  O     O_R   0.728510 0.018130 0.680720 -0.575540
O231  O     O_R   0.728510 0.018130 0.319280 -0.573563
O232  O     O_R   0.271490 0.018130 0.680720 -0.576396
O233  O     O_R   0.771490 0.018130 0.819280 -0.580317
O234  O     O_R   0.228510 0.018130 0.180720 -0.579044
O235  O     O_R   0.228510 0.018130 0.819280 -0.575450
O236  O     O_R   0.771490 0.018130 0.180720 -0.576569
O237  O     O_R   0.668020 0.481820 0.268140 -0.612529
O238  O     O_R   0.668020 0.518160 0.231800 -0.602241
O239  O     O_R   0.331980 0.481820 0.731860 -0.610662
O240  O     O_R   0.331980 0.481820 0.268140 -0.616649
O241  O     O_R   0.668020 0.481820 0.731860 -0.610729
O242  O     O_R   0.168020 0.481820 0.768140 -0.615487
O243  O     O_R   0.831980 0.481820 0.231860 -0.613825
O244  O     O_R   0.831980 0.481820 0.768140 -0.613165
O245  O     O_R   0.168020 0.481820 0.231860 -0.610571
O246  O     O_R   0.168020 0.981820 0.268140 -0.617021
O247  O     O_R   0.831980 0.981820 0.731860 -0.614102
O248  O     O_R   0.831980 0.981820 0.268140 -0.609858
S1    S     S_3+6 0.951416 0.435696 0.276728 0.153263
S2    S     S_3+6 0.548658 0.936572 0.721185 0.152288
S3    S     S_3+6 0.539462 0.930834 0.255175 0.170908
S4    S     S_3+6 0.460216 0.930950 0.742177 0.182603
S5    S     S_3+6 0.961274 0.931863 0.761628 0.174012
S6    S     S_3+6 0.048551 0.944694 0.207340 0.155610
S7    S     S_3+6 0.049570 0.939885 0.782929 0.149324
S8    S     S_3+6 0.960107 0.934460 0.226370 0.183548
S9    S     S_3+6 0.823797 0.477616 0.870137 0.112848
S10   S     S_3+6 0.181037 0.468340 0.129097 0.112839
S11   S     S_3+6 0.175225 0.480600 0.869934 0.120055
S12   S     S_3+6 0.048544 0.434629 0.726127 0.154147
S13   S     S_3+6 0.826065 0.484447 0.130542 0.119765
S14   S     S_3+6 0.326986 0.487284 0.369059 0.115948
S15   S     S_3+6 0.682480 0.466225 0.628978 0.113328
S16   S     S_3+6 0.675550 0.479685 0.370010 0.121807
S17   S     S_3+6 0.327565 0.490728 0.631386 0.118165
S18   S     S_3+6 0.321022 0.971969 0.870641 0.113495
S19   S     S_3+6 0.677627 0.974036 0.129456 0.116716
S20   S     S_3+6 0.674072 0.984238 0.869594 0.119799
S21   S     S_3+6 0.325553 0.982999 0.130293 0.119803
S22   S     S_3+6 0.809508 0.956610 0.371368 0.114302
S23   S     S_3+6 0.039627 0.430785 0.254989 0.184740
S24   S     S_3+6 0.178637 0.972496 0.629357 0.118713
S25   S     S_3+6 0.174778 0.981910 0.369808 0.120700
S26   S     S_3+6 0.822153 0.974358 0.629539 0.122452
S27   S     S_3+6 0.813741 0.686420 0.286700 0.104931
S28   S     S_3+6 0.187182 0.686397 0.712246 0.103580
S29   S     S_3+6 0.206226 0.686390 0.303174 0.102930
S30   S     S_3+6 0.793725 0.686374 0.696746 0.103913
S31   S     S_3+6 0.312938 0.686421 0.787685 0.104055
S32   S     S_3+6 0.685885 0.686391 0.213771 0.103376
S33   S     S_3+6 0.706252 0.686376 0.803195 0.102751
S34   S     S_3+6 0.960289 0.430687 0.748000 0.183442
S35   S     S_3+6 0.293898 0.686394 0.196862 0.103583
S36   S     S_3+6 0.314070 0.186400 0.286260 0.103773
S37   S     S_3+6 0.682890 0.186211 0.717545 0.104289
S38   S     S_3+6 0.705966 0.186405 0.303035 0.104750
S39   S     S_3+6 0.294042 0.186409 0.696968 0.103409
S40   S     S_3+6 0.817092 0.186343 0.782248 0.103856
S41   S     S_3+6 0.185667 0.186301 0.213901 0.103431
S42   S     S_3+6 0.205801 0.186374 0.802957 0.103338
S43   S     S_3+6 0.794212 0.186447 0.197096 0.102932
S44   S     S_3+6 0.451346 0.437140 0.780092 0.153892
S45   S     S_3+6 0.538671 0.431990 0.237837 0.174334
S46   S     S_3+6 0.539757 0.431121 0.759187 0.183942
S47   S     S_3+6 0.450351 0.440183 0.216693 0.150041
S48   S     S_3+6 0.451301 0.935890 0.277000 0.152644
Zn1   Zn    Zn3+2 0.780700 0.525930 0.275940 1.083686
Zn2   Zn    Zn3+2 0.719300 0.025930 0.724060 1.083206
Zn3   Zn    Zn3+2 0.719300 0.025930 0.275940 1.075960
Zn4   Zn    Zn3+2 0.280700 0.025930 0.724060 1.078585
Zn5   Zn    Zn3+2 0.780700 0.025930 0.775940 1.077848
Zn6   Zn    Zn3+2 0.219300 0.025930 0.224060 1.082660
Zn7   Zn    Zn3+2 0.219300 0.025930 0.775940 1.078931
Zn8   Zn    Zn3+2 0.780700 0.025930 0.224060 1.076920
Zn9   Zn    Zn3+2 0.719300 0.474020 0.275940 1.069779
Zn10  Zn    Zn3+2 0.280700 0.474020 0.724060 1.073312
Zn11  Zn    Zn3+2 0.280700 0.474020 0.275940 1.057525
Zn12  Zn    Zn3+2 0.219300 0.525930 0.724060 1.082776
Zn13  Zn    Zn3+2 0.719300 0.474020 0.724060 1.060199
Zn14  Zn    Zn3+2 0.219300 0.474020 0.775940 1.071857
Zn15  Zn    Zn3+2 0.780700 0.474020 0.224060 1.069594
Zn16  Zn    Zn3+2 0.780700 0.474020 0.775940 1.057924
Zn17  Zn    Zn3+2 0.219300 0.474020 0.224060 1.058510
Zn18  Zn    Zn3+2 0.219300 0.974020 0.275940 1.070459
Zn19  Zn    Zn3+2 0.780700 0.974020 0.724060 1.068699
Zn20  Zn    Zn3+2 0.780700 0.974020 0.275940 1.062024
Zn21  Zn    Zn3+2 0.219300 0.974020 0.724060 1.057481
Zn22  Zn    Zn3+2 0.719300 0.974020 0.775940 1.069361
Zn23  Zn    Zn3+2 0.219300 0.525930 0.275940 1.079298
Zn24  Zn    Zn3+2 0.280700 0.974020 0.224060 1.071851
Zn25  Zn    Zn3+2 0.280700 0.974020 0.775940 1.057404
Zn26  Zn    Zn3+2 0.719300 0.974020 0.224060 1.061388
Zn27  Zn    Zn3+2 0.780700 0.525930 0.724060 1.079266
Zn28  Zn    Zn3+2 0.280700 0.525930 0.775940 1.083083
Zn29  Zn    Zn3+2 0.719300 0.525930 0.224060 1.078127
Zn30  Zn    Zn3+2 0.719300 0.525930 0.775940 1.077913
Zn31  Zn    Zn3+2 0.280700 0.525930 0.224060 1.081399
Zn32  Zn    Zn3+2 0.280700 0.025930 0.275940 1.082412

loop_
_geom_bond_atom_site_label_1
_geom_bond_atom_site_label_2
_ccdc_geom_bond_type
C129  S15   S    
C41   C111  T    
O172  Zn23  S    
O100  S22   D    
C15   F36   S    
C390  C429  A    
O8    S1    D    
C62   O230  A    
C157  H148  S    
C200  C218  A    
C390  S39   S    
H45   O96   S    
O192  Zn17  S    
H29   O47   S    
O240  Zn11  S    
C88   H82   S    
C183  F45   S    
O10   S1    S    
C369  H137  S    
C172  C273  S    
C146  C361  A    
C308  C348  A    
C362  C368  A    
H42   O86   S    
C54   C216  S    
O136  S33   D    
O133  S32   S    
C365  C375  A    
C399  C414  A    
O67   S11   D    
C354  H123  S    
O232  Zn4   S    
C3    C431  S    
C67   C220  S    
C86   C110  S    
O118  S28   D    
O246  Zn18  S    
C336  C343  A    
C150  C167  A    
C147  C164  A    
H40   O80   S    
C208  C227  A    
C14   F116  S    
H44   O93   S    
H67   O163  S    
C128  C145  A    
O13   Zn31  S    
C49   C120  T    
C402  H6    S    
C70   C117  S    
C75   C122  S    
C123  S9    S    
C90   C355  A    
C18   C71   S    
C249  C353  S    
C244  C245  A    
O41   S3    D    
O189  Zn14  S    
C242  C265  A    
O123  S29   S    
C68   O7    A    
C388  S38   S    
C322  F95   S    
C356  C368  A    
C16   F114  S    
C327  C341  A    
C125  C213  A    
H41   O83   S    
O157  Zn3   S    
C261  C278  A    
C360  H129  S    
C412  C419  A    
C59   C211  S    
C133  C151  A    
C124  H145  S    
O29   S46   D    
H65   O156  S    
C204  F66   S    
C125  S10   S    
O193  Zn18  S    
C315  C350  A    
C7    F123  S    
C63   C226  S    
C392  S41   S    
O18   S34   D    
C254  C345  S    
H56   O130  S    
O4    Zn22  S    
C15   C85   S    
O16   S23   D    
C379  C423  A    
C54   O222  A    
O164  S43   D    
C198  C216  A    
C140  C229  A    
C11   C82   S    
C92   S7    S    
O242  Zn14  S    
C148  C165  A    
C34   C105  T    
C256  C274  A    
O228  Zn31  S    
C16   F37   S    
C50   C121  T    
C196  F58   S    
C223  O240  A    
C378  O242  A    
O122  S29   D    
C57   O146  A    
O216  Zn20  S    
O5    Zn24  S    
C296  C417  S    
C296  O217  A    
H21   O23   S    
O57   Zn27  S    
C98   H70   S    
C32   C85   S    
C78   C89   S    
O205  Zn19  S    
C92   H86   S    
O134  S33   D    
C224  C301  A    
C432  F117  S    
C36   C106  T    
C165  C183  A    
O61   S9    D    
O244  Zn16  S    
C166  C184  A    
C17   F126  S    
O221  Zn12  S    
C162  C256  S    
C381  S30   S    
C304  C349  A    
C34   C68   S    
H26   O37   S    
O106  S24   S    
C19   F128  S    
C40   C110  T    
C379  S28   S    
O90   Zn5   S    
C102  H78   S    
C231  C259  A    
C379  C396  A    
C124  C268  A    
C316  H57   S    
O69   S11   D    
C3    F63   S    
C139  C228  A    
O229  Zn32  S    
C1    O237  A    
C313  C330  A    
O211  Zn6   S    
C19   F19   S    
C97   H74   S    
C152  C170  A    
O226  Zn30  S    
C306  C345  A    
C17   F17   S    
O179  Zn21  S    
C46   O5    A    
C387  C427  A    
C123  C141  A    
C92   C94   S    
C327  F100  S    
C27   F27   S    
C53   O168  A    
C255  C347  S    
C259  C276  A    
O45   S4    D    
C255  O197  A    
C59   O174  A    
C192  F54   S    
C326  C339  A    
C1    C51   S    
C133  S19   S    
C364  H133  S    
C56   O224  A    
C33   F16   S    
C104  H76   S    
C203  C220  A    
C26   F26   S    
C336  F108  S    
O185  Zn9   S    
O188  Zn13  S    
C87   C89   S    
O113  Zn7   S    
C187  F49   S    
C131  C149  A    
C124  C359  A    
O126  S30   D    
O190  Zn15  S    
O128  S31   D    
H60   O140  S    
O6    Zn25  S    
O60   S8    S    
C377  C421  A    
C246  C371  A    
C265  C283  A    
C63   O178  A    
C266  C284  A    
C384  S33   S    
C247  C270  A    
C284  C285  A    
C84   C114  S    
C326  F99   S    
C177  C195  A    
O97   S21   D    
C313  H24   S    
C244  C272  A    
C310  C351  A    
C33   F33   S    
O208  Zn1   S    
C182  C199  A    
C398  C416  A    
C93   H87   S    
C288  H120  S    
O84   S17   D    
O32   S47   D    
O14   S12   S    
O222  Zn23  S    
C244  F88   S    
C315  H46   S    
O237  Zn9   S    
C329  F102  S    
C76   C100  S    
C103  S44   S    
O95   S20   D    
C209  F71   S    
O140  S35   S    
O105  S24   D    
C383  C401  A    
C250  O192  A    
O74   S14   D    
O213  Zn8   S    
C87   H81   S    
O73   S13   S    
C55   O170  A    
C29   C82   S    
C205  F67   S    
C399  H4    S    
C5    F85   S    
C136  C153  A    
C62   O177  A    
C127  C215  A    
O115  S27   D    
C178  C196  A    
C386  C426  A    
O46   Zn1   S    
O168  Zn10  S    
O205  Zn22  S    
C21   C74   S    
C66   C225  S    
C386  S36   S    
C104  S45   S    
C338  C357  S    
C20   C73   S    
C171  C265  S    
O183  Zn27  S    
O135  Zn32  S    
O132  S32   D    
C430  C432  S    
C129  C147  A    
O77   S15   D    
C320  F93   S    
C292  O208  A    
C28   F28   S    
O227  Zn25  S    
O28   S46   D    
C305  H106  S    
C39   C109  T    
C74   C121  S    
C310  C328  A    
C44   C116  T    
C236  C263  A    
C8    C10   S    
O161  S42   D    
C250  C350  S    
C128  S14   S    
C330  F103  S    
H34   O63   S    
C238  C261  A    
O191  Zn16  S    
C273  C291  A    
H59   O137  S    
C306  C324  A    
C346  C354  A    
O34   S48   D    
O36   S48   D    
C26   F8    S    
C30   F12   S    
C202  C219  A    
O130  S31   S    
C260  C277  A    
C395  H158  S    
C249  O189  A    
C204  C221  A    
C27   C29   S    
C66   O181  A    
O144  S37   D    
C126  C143  A    
O87   S18   D    
C285  H116  S    
C138  S24   S    
C23   C76   S    
C44   C400  S    
C403  C415  A    
O205  Zn2   S    
O198  Zn22  S    
C281  H112  S    
C252  C348  S    
O89   S18   S    
O184  Zn26  S    
C190  H152  S    
C235  H156  S    
H63   O150  S    
C88   S4    S    
C406  C419  A    
C72   C115  S    
C55   O223  A    
C26   C78   S    
O39   S2    D    
C4    C74   S    
C404  C417  A    
C241  F84   S    
C54   O169  A    
C387  S37   S    
C366  H135  S    
O234  Zn6   S    
C69   O184  A    
O205  Zn5   S    
C409  H14   S    
C168  C363  A    
O180  Zn22  S    
C272  C289  A    
C176  F38   S    
C157  C279  A    
C193  F55   S    
C161  C178  A    
C412  H16   S    
O220  Zn1   S    
C65   O180  A    
C7    F107  S    
C236  C237  A    
C156  H103  S    
O108  S25   D    
C253  O195  A    
C130  C218  A    
C233  F77   S    
C36   C57   S    
C186  F48   S    
O209  Zn27  S    
C9    F112  S    
C140  C158  A    
O78   S15   D    
C380  C424  A    
O80   S15   S    
C42   C114  T    
C60   O175  A    
C245  F89   S    
O17   S23   S    
C11   F110  S    
C67   O235  A    
C134  C222  A    
C22   C25   S    
C96   C98   S    
C389  O46   A    
O75   S14   D    
C393  C410  A    
O148  S38   D    
C209  C228  A    
C210  F72   S    
C304  C321  A    
C60   O228  A    
O49   S5    D    
C125  C142  A    
C282  H113  S    
C140  S26   S    
C411  O245  A    
C89   S48   S    
O216  Zn26  S    
C303  H84   S    
C7    C77   S    
C62   C229  S    
C234  C264  A    
O23   S44   S    
C397  H160  S    
C12   F34   S    
C201  C366  A    
C93   C95   S    
O154  S40   D    
C297  C418  S    
H52   O117  S    
C283  C286  A    
C407  H11   S    
C127  C144  A    
C431  F41   S    
O86   S17   S    
C52   O220  A    
O92   S19   D    
C8    F118  S    
C305  C347  A    
C101  C356  A    
O194  Zn32  S    
C97   S34   S    
O117  S27   S    
C26   C28   S    
O81   S16   D    
C71   C431  S    
C314  C331  A    
O214  Zn7   S    
O223  Zn27  S    
H62   O147  S    
C72   C432  S    
O141  S36   D    
O76   S14   S    
C307  H128  S    
C192  C209  A    
C81   C105  S    
C316  C333  A    
O12   S12   D    
C91   H80   S    
C102  S47   S    
C53   O221  A    
H64   O153  S    
C79   C257  A    
C386  C404  A    
C332  F105  S    
O236  Zn8   S    
C35   C38   S    
C280  C281  A    
C315  C332  A    
O204  Zn31  S    
C27   C80   S    
C136  S21   S    
O37   S48   S    
C366  C376  A    
C303  C320  A    
O3    Zn21  S    
C291  H122  S    
C298  C419  S    
C195  F57   S    
C302  C347  A    
C145  C163  A    
C300  C318  A    
C294  O210  A    
C5    F125  S    
C160  C259  S    
C31   C84   S    
C25   F7    S    
C409  C417  A    
O238  Zn29  S    
C132  C220  A    
C84   C95   S    
C112  O2    A    
C170  C187  A    
C331  F104  S    
C393  C429  A    
C246  C323  A    
C86   C93   S    
C401  H5    S    
C318  F91   S    
C322  C338  A    
O163  S42   S    
C401  C413  A    
O72   S13   D    
C369  C373  A    
C79   C354  A    
C400  O57   A    
H61   O143  S    
C88   C91   S    
C257  C421  S    
C381  C398  A    
C313  C353  A    
O70   S11   S    
C187  C205  A    
H25   O33   S    
C21   F4    S    
C184  F46   S    
C321  F94   S    
O68   Zn23  S    
C346  C360  A    
C128  C216  A    
C337  C346  S    
C14   F35   S    
O183  Zn30  S    
O151  S39   D    
C355  C357  A    
C318  C337  A    
C422  O79   A    
C159  C176  A    
C312  C427  S    
H49   O106  S    
O27   S45   S    
C253  O198  A    
C309  H150  S    
C403  H7    S    
C30   F30   S    
C23   F23   S    
O71   S13   D    
C299  O214  A    
C45   C117  T    
H58   O133  S    
O216  Zn3   S    
C163  C181  A    
C248  O185  A    
O175  Zn17  S    
O149  S38   D    
C241  C266  A    
O51   S6    D    
C201  H153  S    
O183  Zn13  S    
O202  Zn29  S    
O203  Zn28  S    
C101  H143  S    
C239  C242  A    
O2    Zn28  S    
C298  O213  A    
C6    C76   S    
C232  F76   S    
C331  C342  A    
C178  F40   S    
C388  C428  A    
O155  S40   D    
C80   C108  S    
O20   S34   S    
C183  C200  A    
C151  C169  A    
C142  H89   S    
C131  S17   S    
C408  H12   S    
C95   S6    S    
C299  O218  A    
C201  C335  A    
O227  Zn7   S    
O82   S16   D    
O235  Zn7   S    
C202  F64   S    
C392  C409  A    
O142  S36   D    
C193  C210  A    
C189  F51   S    
C94   S5    S    
C179  H151  S    
C82   C88   S    
C390  C407  A    
C297  O215  A    
C240  C241  A    
H38   O73   S    
C175  C193  A    
C250  O187  A    
C14   C16   S    
C82   C106  S    
C138  C227  A    
C3    C73   S    
C224  C369  A    
C385  C403  A    
C358  C372  A    
H27   O40   S    
C6    F96   S    
C2    O247  A    
O147  S37   S    
C29   F11   S    
C158  C175  A    
C32   F15   S    
C224  H155  S    
H66   O160  S    
C79   H141  S    
O21   S44   D    
C339  C368  S    
C127  S13   S    
C47   C378  S    
C198  F60   S    
C69   C221  S    
C64   C227  S    
C394  S43   S    
C174  C192  A    
C135  C360  A    
C138  C155  A    
C53   C219  S    
O152  S39   D    
C136  C225  A    
O186  Zn10  S    
C406  H10   S    
H36   O66   S    
C295  C416  S    
C274  C277  A    
C388  C406  A    
C303  C348  A    
O1    Zn9   S    
O212  Zn5   S    
C199  C217  A    
C64   O179  A    
C14   C84   S    
C270  C287  A    
H18   O14   S    
C77   C120  S    
O124  Zn2   S    
C301  C426  S    
O112  Zn10  S    
O121  S29   D    
C55   C217  S    
C293  O207  A    
H33   O60   S    
C325  F98   S    
O66   S10   S    
C69   O236  A    
C188  C206  A    
O207  Zn12  S    
C274  H105  S    
C113  C358  A    
C171  C188  A    
C385  S35   S    
C367  C374  A    
C324  C337  A    
C410  C420  A    
C169  C186  A    
C37   C107  T    
C145  H92   S    
C85   C109  S    
O200  Zn25  S    
C66   O234  A    
O96   S20   S    
C72   C96   S    
O112  Zn14  S    
O199  Zn24  S    
O102  S22   D    
C402  C416  A    
H19   O17   S    
C317  C336  A    
C48   C334  S    
C391  C408  A    
O216  Zn8   S    
O139  S35   D    
O172  Zn17  S    
C24   C39   S    
C248  O190  A    
C391  S40   S    
C234  C238  A    
O239  Zn10  S    
O137  S33   S    
C30   C83   S    
O170  Zn13  S    
C335  C429  S    
C264  C282  A    
C65   C222  S    
C13   C40   S    
C129  C217  A    
C361  C372  A    
C233  C256  A    
O33   S47   S    
C47   C118  T    
C324  F97   S    
O156  S40   S    
C333  C344  A    
C394  C412  A    
C411  O68   A    
C163  C264  S    
C133  C221  A    
C156  C174  A    
C132  C150  A    
C203  F65   S    
C294  O204  A    
C255  O200  A    
C358  H126  S    
C381  C425  A    
O83   S16   S    
C243  C273  A    
C45   C389  S    
C380  S29   S    
C37   C46   S    
H43   O89   S    
C58   C215  S    
C91   S2    S    
C309  C350  A    
H53   O120  S    
C4    F74   S    
C357  C359  A    
C170  C266  S    
C232  C258  A    
C314  H35   S    
C49   C223  S    
C112  O239  A    
C16   C86   S    
C371  H140  S    
C247  F90   S    
C126  C214  A    
C77   C102  S    
C190  C365  A    
C190  C323  A    
C2    O90   A    
O1    Zn29  S    
C311  H13   S    
H47   O99   S    
C367  H136  S    
C24   O3    A    
C248  C352  S    
C58   O225  A    
O171  Zn14  S    
O227  Zn21  S    
C240  F83   S    
C432  F52   S    
C208  F70   S    
C135  C257  A    
C61   C228  S    
O94   S20   D    
O48   S5    D    
C319  C338  A    
C100  H77   S    
C52   O167  A    
C310  H2    S    
C271  C288  A    
C100  S46   S    
C58   O173  A    
C4    C6    S    
C382  C423  A    
C305  C322  A    
C142  C160  A    
C356  H125  S    
O104  S24   D    
C239  C269  A    
C321  C340  A    
O65   S10   D    
C276  H108  S    
C113  C290  A    
C83   C94   S    
C394  C428  A    
C20   F20   S    
C100  C103  S    
C284  H115  S    
O11   S12   D    
C365  H134  S    
C5    C75   S    
C90   C268  A    
C35   O4    A    
O127  S30   S    
C343  C375  S    
C245  C271  A    
O7    Zn26  S    
C364  C374  A    
C18   F18   S    
C149  H96   S    
C239  F82   S    
O9    S1    D    
C12   C15   S    
C212  C312  A    
C383  C421  A    
C143  H90   S    
C134  C152  A    
C206  C225  A    
O153  S39   S    
C280  H111  S    
O218  Zn4   S    
O129  S31   D    
O217  Zn32  S    
C341  C373  S    
C18   C20   S    
C73   C116  S    
C430  F1    S    
O54   S7    D    
C81   C87   S    
C430  F120  S    
O169  Zn11  S    
O103  S22   S    
C400  O244  A    
C393  S42   S    
O165  S43   D    
O55   S7    D    
O162  S42   D    
O231  Zn3   S    
C230  C260  A    
C316  C353  A    
C22   F5    S    
C371  C375  A    
C21   C23   S    
O26   S45   D    
O79   Zn6   S    
C75   C104  S    
H31   O53   S    
C151  H98   S    
C83   C111  S    
C380  C397  A    
C387  C405  A    
C212  C367  A    
C334  O24   A    
C309  C327  A    
C246  H157  S    
C238  F81   S    
C5    C7    S    
C27   F9    S    
C113  H144  S    
C11   F24   S    
C262  C280  A    
C134  S20   S    
O62   S9    D    
O88   S18   D    
C258  C275  A    
C8    F111  S    
C235  C335  A    
C298  O219  A    
C96   H72   S    
O91   S19   D    
C370  H138  S    
C94   H83   S    
C311  C352  A    
C294  C415  S    
C48   C119  T    
O247  Zn19  S    
H20   O20   S    
C235  C370  A    
O52   S6    D    
C141  C159  A    
C308  H139  S    
C253  C349  S    
C172  C189  A    
O40   S2    S    
C234  F78   S    
C10   C81   S    
C52   C218  S    
C398  H3    S    
C377  S27   S    
C150  H97   S    
C302  C319  A    
C206  F68   S    
C1    O238  A    
C377  C395  A    
C80   C91   S    
O64   S10   D    
C28   C81   S    
O63   S9    S    
O111  S26   D    
C135  H146  S    
O146  Zn4   S    
C269  C286  A    
C93   S8    S    
O195  Zn19  S    
O241  Zn13  S    
C71   C99   S    
C189  C207  A    
C205  C222  A    
C207  F69   S    
C383  S32   S    
C431  F121  S    
C13   O101  A    
C173  C191  A    
C137  C154  A    
C155  H102  S    
O119  S28   D    
H22   O27   S    
O245  Zn17  S    
O107  S25   D    
C188  F50   S    
C65   O233  A    
C157  C362  A    
C195  C213  A    
C10   F13   S    
C164  C182  A    
C9    F2    S    
H48   O103  S    
C311  C329  A    
C42   C422  S    
O248  Zn20  S    
C57   O6    A    
C12   C83   S    
C23   F6    S    
C85   C92   S    
C407  C420  A    
C297  O212  A    
O1    Zn1   S    
C51   C122  T    
O176  Zn18  S    
H37   O70   S    
C78   C107  S    
C405  C418  A    
C307  C325  A    
C176  C194  A    
C146  H147  S    
H28   O43   S    
C332  C341  A    
C33   C86   S    
H51   O114  S    
C333  F106  S    
C304  H95   S    
H32   O56   S    
C167  C185  A    
C293  C414  S    
C277  H109  S    
C143  C161  A    
C164  C263  S    
O98   S21   D    
C31   F31   S    
C159  C260  S    
O227  Zn4   S    
C28   F10   S    
O25   S45   D    
C130  S16   S    
O47   S4    S    
O85   S17   D    
C319  F92   S    
C191  F53   S    
C96   S23   S    
C18   F127  S    
O30   S46   S    
C306  H117  S    
C359  H127  S    
C242  F86   S    
C317  C352  A    
C292  O202  A    
O112  Zn28  S    
C182  F44   S    
C99   S12   S    
C70   C430  S    
O125  S30   D    
O38   S2    D    
C243  F87   S    
C24   O113  A    
C230  C233  A    
C25   C77   S    
O22   S44   D    
C268  C423  S    
C252  O193  A    
C287  H119  S    
C46   O135  A    
C153  H100  S    
C161  C258  S    
H17   O10   S    
C154  H101  S    
C43   C411  S    
O206  Zn30  S    
C90   H142  S    
O131  S32   D    
C293  O203  A    
C396  H159  S    
C210  C229  A    
C95   H85   S    
C317  H68   S    
C275  H107  S    
O24   Zn30  S    
C131  C219  A    
C328  F101  S    
C334  O241  A    
C166  C261  S    
C395  C413  A    
O194  Zn18  S    
O19   S34   D    
O58   S8    D    
H39   O76   S    
C329  C343  A    
C254  O196  A    
C180  C197  A    
O210  Zn23  S    
C396  C414  A    
C194  C211  A    
C180  F42   S    
C251  O188  A    
C397  C415  A    
C314  C351  A    
O15   S23   D    
H50   O109  S    
H55   O127  S    
C123  C211  A    
C103  H75   S    
O138  S35   D    
H54   O123  S    
C31   C33   S    
C378  O35   A    
O101  Zn8   S    
C391  C427  A    
C344  C376  S    
C382  C399  A    
C61   O229  A    
O35   Zn12  S    
C197  C215  A    
O225  Zn29  S    
C404  H8    S    
O178  Zn20  S    
C299  C420  S    
C155  C173  A    
C38   C108  T    
O53   S6    S    
C289  H121  S    
C384  C425  A    
C340  C372  S    
O99   S21   S    
H69   O166  S    
O194  Zn6   S    
O233  Zn5   S    
C8    C78   S    
C240  C267  A    
C19   C72   S    
C223  O13   A    
C22   C75   S    
C43   C115  T    
C181  C198  A    
O224  Zn28  S    
C97   C99   S    
C252  O199  A    
C22   F22   S    
C61   O176  A    
C132  S18   S    
C68   O157  A    
C236  F79   S    
H30   O50   S    
C200  F62   S    
C169  C267  S    
O150  S38   S    
C76   C119  S    
C184  C202  A    
C168  H149  S    
C130  C148  A    
C64   O232  A    
H23   O30   S    
C308  C326  A    
C158  H104  S    
O172  Zn11  S    
C296  O211  A    
C342  C374  S    
C179  C312  A    
C185  F47   S    
C21   F21   S    
O181  Zn24  S    
C4    F124  S    
O110  S26   D    
C385  C424  A    
C99   H71   S    
C231  F75   S    
O109  S25   S    
O187  Zn11  S    
C179  C364  A    
C12   F115  S    
C9    C80   S    
C300  H1    S    
C249  O186  A    
O56   S7    S    
O243  Zn15  S    
C60   C213  S    
C422  O246  A    
C320  C339  A    
C154  C172  A    
C137  C226  A    
C13   O248  A    
C194  F56   S    
C363  H132  S    
C177  F39   S    
C98   S1    S    
C175  C270  S    
O43   S3    S    
C361  H130  S    
C389  O243  A    
C237  F80   S    
C278  H110  S    
C160  C177  A    
C153  C171  A    
C50   C112  S    
C196  C214  A    
C197  F59   S    
O174  Zn16  S    
O114  S26   S    
C147  H93   S    
O50   S5    S    
C101  C279  A    
C102  C104  S    
C9    C11   S    
C31   F14   S    
C267  C285  A    
C15   F113  S    
O201  Zn26  S    
C290  C425  S    
C292  C413  S    
C307  C349  A    
C362  H131  S    
O160  S41   S    
O167  Zn9   S    
C275  C276  A    
O172  Zn31  S    
C73   C97   S    
C126  S11   S    
C295  O206  A    
C6    F122  S    
O93   S19   S    
C287  C291  A    
C295  O209  A    
O59   S8    D    
C254  O201  A    
C148  H94   S    
C185  C203  A    
C186  C204  A    
C29   F29   S    
O166  S43   S    
O31   S47   D    
C89   H79   S    
C251  O191  A    
O182  Zn25  S    
O219  Zn3   S    
C71   C118  S    
C144  C162  A    
C237  C262  A    
C165  C262  S    
C162  C180  A    
C149  C166  A    
C167  C269  S    
C392  C426  A    
C59   O226  A    
O177  Zn19  S    
C181  F43   S    
C173  C272  S    
C328  C342  A    
C410  H15   S    
C302  H73   S    
C405  H9    S    
C174  C271  S    
C323  C428  S    
C32   F32   S    
C230  F73   S    
O145  S37   D    
C25   F25   S    
C56   C214  S    
C263  C281  A    
C139  S25   S    
O42   S3    D    
C288  C289  A    
O196  Zn20  S    
O194  Zn24  S    
C382  S31   S    
O230  Zn2   S    
O197  Zn21  S    
O173  Zn15  S    
C283  H114  S    
C325  C340  A    
C30   C32   S    
O215  Zn2   S    
C146  C290  A    
C10   F109  S    
C384  C402  A    
C168  C301  A    
C251  C351  S    
C139  C156  A    
O44   S4    D    
O158  S41   D    
C199  F61   S    
C87   S3    S    
C17   C19   S    
C363  C373  A    
O143  S36   S    
O1    Zn15  S    
C20   F3    S    
O120  S28   S    
C191  C208  A    
C141  H88   S    
C408  C418  A    
C35   O124  A    
C144  H91   S    
C63   O231  A    
C3    F119  S    
C279  C424  S    
C56   O171  A    
C70   C98   S    
O183  Zn16  S    
C67   O182  A    
C286  H118  S    
O159  S41   D    
O116  S27   D    
C278  C282  A    
C212  H154  S    
C231  C232  A    
C2    C41   S    
C355  H124  S    
C330  C344  A    
C17   C70   S    
C137  S22   S    
C243  C247  A    
C370  C376  A    
C300  C345  A    
O112  Zn12  S    
C207  C226  A    
C74   C103  S    
C152  H99   S    
