data_mof_unit_51487.cif
_audit_creation_date              2012-12-10T20:25:44-0500
_audit_creation_method            fapswitch 2.2
_symmetry_space_group_name_H-M    P1
_symmetry_Int_Tables_number       1
_space_group_crystal_system       triclinic
_cell_length_a                    8.61496
_cell_length_b                    10.675535
_cell_length_c                    9.865421
_cell_angle_alpha                 89.927418
_cell_angle_beta                  98.431634
_cell_angle_gamma                 90.123157
_cell_volume                      897.506744382

loop_
_atom_site_label
_atom_site_type_symbol
_atom_type_description
_atom_site_fract_x
_atom_site_fract_y
_atom_site_fract_z
_atom_type_partial_charge
C1    C     C_R   0.504832 0.259942 0.500714 0.869421
C2    C     C_R   0.428269 0.405469 0.919753 0.217730
C3    C     C_3   0.258388 0.371835 0.893383 -0.511157
C4    C     C_R   0.201825 0.493266 0.464317 0.916594
C5    C     C_3   0.259398 0.370872 0.047302 -0.495261
C6    C     C_R   0.505117 0.740036 0.500599 0.880486
C7    C     C_R   0.798441 0.496097 0.535123 0.960447
C8    C     C_2   0.039224 0.470271 0.445655 -0.197825
C9    C     C_2   0.963238 0.497881 0.551086 -0.439986
C10   C     C_R   0.527462 0.063696 0.626750 0.143842
C11   C     C_R   0.530038 0.128604 0.504671 -0.101475
C12   C     C_R   0.563124 0.935476 0.387752 -0.228403
C13   C     C_R   0.562917 0.065055 0.387802 -0.222842
C14   C     C_1   0.970060 0.409307 0.318800 0.227526
C15   C     C_R   0.530493 0.871422 0.504582 -0.103191
C16   C     C_R   0.527836 0.935934 0.626745 0.125368
C17   C     C_3   0.413800 0.928183 0.727054 -0.474634
C18   C     C_3   0.413069 0.070149 0.726769 -0.491300
C19   C     C_R   0.428628 0.405325 0.062361 0.214784
C20   C     C_R   0.582718 0.586892 0.082459 -0.113833
C21   C     C_R   0.582695 0.586927 0.938467 -0.129736
H1    H     H_    0.184936 0.447903 0.841030 0.219321
H2    H     H_    0.647072 0.658465 0.144919 0.141005
H3    H     H_    0.646962 0.658564 0.892300 0.144506
H4    H     H_    0.467613 0.887380 0.826644 0.201634
H5    H     H_    0.298338 0.110752 0.681341 0.199165
H6    H     H_    0.237880 0.277817 0.846085 0.199785
H7    H     H_    0.186000 0.446001 0.083059 0.227376
H8    H     H_    0.241240 0.276060 0.089039 0.205077
H9    H     H_    0.022452 0.534521 0.647817 0.163983
H10   H     H_    0.577456 0.114302 0.294377 0.175335
H11   H     H_    0.577744 0.886576 0.294306 0.166704
H12   H     H_    0.299401 0.886281 0.682286 0.205140
H13   H     H_    0.466093 0.111456 0.826305 0.205488
N1    N     N_R   0.498950 0.499140 0.142680 -0.106544
N2    N     N_R   0.498950 0.499180 0.857030 -0.106477
N3    N     N_1   0.915343 0.360783 0.218117 -0.220806
O1    O     O_R   0.500020 0.316790 0.614690 -0.617498
O2    O     O_R   0.500000 0.316760 0.385350 -0.625311
O3    O     O_R   0.271760 0.500010 0.587850 -0.620776
O4    O     O_R   0.271740 0.499970 0.358500 -0.622262
O5    O     O_R   0.500000 0.683240 0.614650 -0.621853
O6    O     O_R   0.499980 0.683210 0.385310 -0.627417
O7    O     O_R   0.728260 0.500030 0.641500 -0.621799
O8    O     O_R   0.728240 0.499990 0.412150 -0.603603
Zn1   Zn    Zn3+2 0.500010 0.500020 0.653130 0.942628
Zn2   Zn    Zn3+2 0.499990 0.499980 0.346870 0.950641

loop_
_geom_bond_atom_site_label_1
_geom_bond_atom_site_label_2
_ccdc_geom_bond_type
C20   H2    S    
N2    Zn1   S    
C5    C19   S    
C5    H7    S    
C11   C13   A    
C18   H5    S    
C12   C15   A    
C4    C8    S    
C17   H4    S    
C3    H6    S    
C2    C3    S    
O4    Zn2   S    
N1    Zn2   S    
C21   N2    A    
C10   C16   A    
C7    O7    A    
C20   C21   A    
C14   N3    T    
O3    Zn1   S    
C18   H13   S    
C17   H12   S    
C1    O1    A    
C10   C18   S    
C9    H9    S    
O7    Zn1   S    
C19   N1    A    
C17   C18   S    
C5    H8    S    
C6    O6    A    
O8    Zn2   S    
C6    O5    A    
O1    Zn1   S    
C10   C11   A    
C1    O2    A    
C15   C16   A    
C7    O8    A    
C12   C13   A    
O2    Zn2   S    
O5    Zn1   S    
C21   H3    S    
C2    N2    A    
C7    C9    S    
C8    C9    D    
C3    H1    S    
C8    C14   S    
C6    C15   S    
C2    C19   A    
C20   N1    A    
O6    Zn2   S    
C13   H10   S    
C4    O4    A    
C12   H11   S    
C4    O3    A    
C16   C17   S    
C3    C5    S    
C1    C11   S    
