data_mof_unit_46749.cif
_audit_creation_date              2013-03-05T16:42:43-0500
_audit_creation_method            fapswitch 2.2
_symmetry_space_group_name_H-M    P1
_symmetry_Int_Tables_number       1
_space_group_crystal_system       triclinic
_cell_length_a                    14.144355
_cell_length_b                    10.767044
_cell_length_c                    9.92696
_cell_angle_alpha                 91.264701
_cell_angle_beta                  89.847752
_cell_angle_gamma                 90.308028
_cell_volume                      1511.41045834

loop_
_atom_site_label
_atom_site_type_symbol
_atom_site_description
_atom_site_fract_x
_atom_site_fract_y
_atom_site_fract_z
_atom_type_partial_charge
O1    O     O_R   0.500010 0.316790 0.614690 -0.590537
O2    O     O_R   0.500000 0.316760 0.385350 -0.606240
C1    C     C_R   0.500568 0.260297 0.498613 0.869901
O3    O     O_R   0.373720 0.500020 0.614700 -0.580769
O4    O     O_R   0.373710 0.499980 0.385350 -0.602070
C2    C     C_R   0.329301 0.499938 0.499995 0.884364
Zn1   Zn    Zn3+2 0.500010 0.500020 0.653130 1.038431
Zn2   Zn    Zn3+2 0.499990 0.499980 0.346870 0.977646
O5    O     O_R   0.500000 0.683240 0.614650 -0.557717
O6    O     O_R   0.499990 0.683210 0.385310 -0.649891
O7    O     O_R   0.626290 0.500020 0.614650 -0.560014
O8    O     O_R   0.626280 0.499980 0.385300 -0.535226
C3    C     C_R   0.500797 0.739967 0.501042 0.893183
C4    C     C_R   0.670684 0.498797 0.499844 0.882741
C5    C     C_1   0.227810 0.499195 0.499054 -0.186199
C6    C     C_1   0.142537 0.498385 0.497354 -0.028984
C7    C     C_1   0.042618 0.497243 0.496612 -0.001874
C8    C     C_1   0.957344 0.496302 0.497126 0.003548
C9    C     C_1   0.857448 0.495780 0.498384 -0.018599
C10   C     C_1   0.772174 0.496450 0.499505 -0.171921
C11   C     C_R   0.528656 0.067297 0.613354 -0.013800
C12   C     C_R   0.509212 0.128802 0.495416 -0.104215
C13   C     C_R   0.502556 0.061293 0.373866 -0.197431
H1    H     H_    0.492388 0.106555 0.278609 0.188418
C14   C     C_R   0.501535 0.932942 0.376483 -0.243913
H2    H     H_    0.489948 0.882297 0.282477 0.155913
C15   C     C_R   0.508729 0.872105 0.500346 -0.097878
C16   C     C_R   0.529900 0.941102 0.617491 0.068693
C17   C     C_3   0.493687 0.939338 0.760937 0.774813
C18   C     C_3   0.490706 0.082912 0.752396 -0.018132
H3    H     H_    0.419214 0.125462 0.753010 0.106223
C19   C     C_R   0.419845 0.472455 0.070728 0.106346
N1    N     N_R   0.499420 0.499140 0.142800 -0.158843
C20   C     C_R   0.581786 0.516076 0.072296 0.368036
C21   C     C_R   0.582454 0.510906 0.928143 0.412927
N2    N     N_R   0.499420 0.499180 0.857150 -0.177625
C22   C     C_R   0.419793 0.471678 0.928911 0.175843
C23   C     C_3   0.327897 0.538403 0.924788 0.261559
C24   C     C_3   0.329318 0.542112 0.078389 -0.575384
H4    H     H_    0.334278 0.629857 0.875201 0.104527
H5    H     H_    0.338553 0.637500 0.121800 0.162507
H6    H     H_    0.272054 0.486670 0.125537 0.237359
O9    O     O_3   0.256404 0.458816 0.873453 -0.564941
C25   C     C_3   0.171924 0.526408 0.860098 0.116551
H7    H     H_    0.177108 0.587520 0.771650 0.144180
H8    H     H_    0.155855 0.584282 0.951806 0.133044
C26   C     C_3   0.090302 0.436041 0.838011 -0.803813
H9    H     H_    0.078388 0.381266 0.930078 0.250365
H10   H     H_    0.025340 0.488698 0.815237 0.210523
H11   H     H_    0.105969 0.371464 0.752201 0.267476
O10   O     O_3   0.405812 0.874211 0.762113 -0.641395
C27   C     C_3   0.346220 0.908042 0.871402 0.028834
H12   H     H_    0.355927 0.005041 0.909207 0.134609
H13   H     H_    0.358313 0.844144 0.955851 0.135270
C28   C     C_3   0.243849 0.894733 0.826868 -0.821159
H14   H     H_    0.230362 0.799368 0.786809 0.240796
H15   H     H_    0.195957 0.913315 0.913732 0.212772
H16   H     H_    0.228648 0.962101 0.746705 0.259037
O11   O     O_3   0.565279 0.888207 0.843294 -0.589770
C29   C     C_3   0.550127 0.909020 0.983191 0.125393
H17   H     H_    0.526961 0.820020 0.027346 0.100483
H18   H     H_    0.496103 0.980004 0.008658 0.126349
C30   C     C_3   0.642205 0.951838 0.050551 -0.770739
H19   H     H_    0.652069 0.053404 0.042664 0.297366
H20   H     H_    0.640379 0.931953 0.159563 0.187114
H21   H     H_    0.704072 0.905239 0.003271 0.259927
N3    N     N_R   0.558306 0.149089 0.839402 0.221437
O12   O     O_R   0.648645 0.145612 0.813862 -0.431314
O13   O     O_R   0.527593 0.216997 0.940031 -0.481170
O14   O     O_3   0.665448 0.536311 0.140959 -0.575259
C31   C     C_3   0.686138 0.664488 0.140201 0.118825
H22   H     H_    0.627274 0.718541 0.186790 0.144381
H23   H     H_    0.698985 0.695156 0.035630 0.185988
C32   C     C_3   0.775316 0.692387 0.220952 -0.814211
H24   H     H_    0.801371 0.787199 0.198545 0.207310
H25   H     H_    0.759584 0.689477 0.330166 0.245822
H26   H     H_    0.831559 0.624370 0.194998 0.260819
O15   O     O_3   0.666547 0.529869 0.860749 -0.599012
C33   C     C_3   0.724695 0.423718 0.870285 0.240097
H27   H     H_    0.715045 0.364285 0.778617 0.197030
H28   H     H_    0.710212 0.365407 0.959709 0.174488
C34   C     C_3   0.827568 0.464554 0.876604 -0.881447
H29   H     H_    0.840883 0.518720 0.971094 0.266470
H30   H     H_    0.873803 0.381500 0.874439 0.222472
H31   H     H_    0.845026 0.523325 0.789409 0.263284

loop_
_geom_bond_atom_site_label_1
_geom_bond_atom_site_label_2
_geom_bond_distance
_ccdc_geom_bond_type
C28   H14   1.108663 S    
C30   H20   1.107960 S    
Zn1   N2    2.025513 S    
C9    C10   1.206238 T    
C26   H10   1.108700 S    
C27   H12   1.109898 S    
Zn1   O7    1.825546 S    
C17   C18   1.550868 S    
C32   H25   1.107271 S    
C29   C30   1.529848 S    
C16   C17   1.512501 S    
C8    C9    1.412954 S    
C18   H3    1.112333 S    
O7    C4    1.299592 A    
C5    C6    1.206288 T    
C29   H18   1.108455 S    
C20   C21   1.430866 A    
C19   C24   1.488328 S    
O5    C3    1.294349 A    
C31   C32   1.521361 S    
C2    C5    1.435551 S    
C21   N2    1.375073 A    
C25   H8    1.115402 S    
C6    C7    1.413310 S    
C32   H26   1.110133 S    
C13   H1    1.083597 S    
O14   C31   1.409410 S    
C24   H6    1.112012 S    
C20   O14   1.381062 S    
C18   N3    1.462122 S    
C27   C28   1.520195 S    
C30   H21   1.109016 S    
O11   C29   1.417742 S    
C11   C12   1.386637 A    
O3    Zn1   1.827564 S    
C27   H13   1.110349 S    
N1    C20   1.370902 A    
C26   H11   1.110259 S    
C23   C24   1.524612 S    
C32   H24   1.110389 S    
O10   C27   1.414622 S    
C4    C10   1.435861 S    
O3    C2    1.301945 A    
C33   H28   1.116435 S    
O15   C33   1.416685 S    
C14   H2    1.082799 S    
N3    O12   1.302606 A    
C29   H17   1.110027 S    
N3    O13   1.300027 A    
O9    C25   1.410488 S    
C22   C23   1.489615 S    
O4    Zn2   1.825545 S    
C26   H9    1.110596 S    
Zn2   O8    1.827566 S    
C7    C8    1.206139 T    
C19   C22   1.407658 A    
C11   C16   1.360476 A    
O8    C4    1.300801 A    
C34   H30   1.110479 S    
C28   H15   1.110479 S    
C25   H7    1.110812 S    
C31   H23   1.110463 S    
C17   O10   1.423959 S    
Zn1   O5    2.017642 S    
N2    C22   1.365685 A    
O1    Zn1   2.001125 S    
O2    Zn2   2.017641 S    
C30   H19   1.106149 S    
O6    C3    1.289371 A    
C33   C34   1.518845 S    
C25   C26   1.519033 S    
C14   C15   1.410048 A    
C34   H31   1.109945 S    
C11   C18   1.486047 S    
C21   O15   1.379585 S    
C19   N1    1.361244 A    
O2    C1    1.290006 A    
C23   O9    1.410929 S    
C23   H4    1.113682 S    
O4    C2    1.298458 A    
Zn2   N1    2.025653 S    
C13   C14   1.382775 A    
C33   H27   1.109150 S    
C31   H22   1.112254 S    
C24   H5    1.112164 S    
Zn2   O6    2.001125 S    
C34   H29   1.109527 S    
C28   H16   1.110715 S    
C15   C16   1.398283 A    
C17   O11   1.423777 S    
C12   C13   1.397967 A    
C3    C15   1.426724 S    
C1    C12   1.421384 S    
O1    C1    1.291074 A    
