data_mof_unit_56712.cif
_audit_creation_date              2012-12-11T15:54:39-0500
_audit_creation_method            fapswitch 2.2
_symmetry_space_group_name_H-M    P1
_symmetry_Int_Tables_number       1
_space_group_crystal_system       triclinic
_cell_length_a                    6.915686
_cell_length_b                    14.582386
_cell_length_c                    16.049556
_cell_angle_alpha                 90.086409
_cell_angle_beta                  90.013381
_cell_angle_gamma                 89.955449
_cell_volume                      1618.55045366

loop_
_atom_site_label
_atom_site_type_symbol
_atom_type_description
_atom_site_fract_x
_atom_site_fract_y
_atom_site_fract_z
_atom_type_partial_charge
O1    O     O_R   0.638180 0.333920 0.163320 -0.542210
O2    O     O_R   0.361820 0.666080 0.836680 -0.542209
O3    O     O_R   0.308470 0.344960 0.336080 -0.543892
O4    O     O_R   0.691530 0.655040 0.663920 -0.543891
O5    O     O_R   0.138140 0.166110 0.336680 -0.536773
O6    O     O_R   0.861860 0.833890 0.663320 -0.536773
C1    C     C_R   0.477543 0.367374 0.364958 0.665514
C2    C     C_R   0.522457 0.632626 0.635042 0.665517
O7    O     O_R   0.308460 0.344950 0.163930 -0.510825
O8    O     O_R   0.691540 0.655050 0.836070 -0.510828
O9    O     O_R   0.138140 0.166100 0.163310 -0.542730
O10   O     O_R   0.861860 0.833900 0.836690 -0.542727
C3    C     C_R   0.477148 0.367919 0.135547 0.744247
C4    C     C_R   0.522851 0.632081 0.864452 0.744237
O11   O     O_R   0.638180 0.333930 0.336700 -0.546128
O12   O     O_R   0.361820 0.666070 0.663300 -0.546127
O13   O     O_3   0.471670 0.191340 0.250000 -0.371584
O14   O     O_3   0.528330 0.808660 0.750000 -0.371591
V1    V     V_3+5 0.196830 0.260900 0.250000 1.429809
V2    V     V_3+5 0.803170 0.739100 0.750000 1.429803
O15   O     O_R   0.808420 0.155070 0.163920 -0.544997
O16   O     O_R   0.191580 0.844930 0.836080 -0.545002
C5    C     C_R   0.977556 0.132616 0.135089 0.680682
C6    C     C_R   0.022444 0.867384 0.864911 0.680684
O17   O     O_R   0.808420 0.155080 0.336070 -0.544151
O18   O     O_R   0.191580 0.844920 0.663930 -0.544155
C7    C     C_R   0.977217 0.133360 0.365020 0.690125
C8    C     C_R   0.022782 0.866641 0.634980 0.690130
V3    V     V_3+5 0.696830 0.239130 0.250000 1.391923
V4    V     V_3+5 0.303170 0.760870 0.750000 1.391897
O19   O     O_3   0.971850 0.308690 0.250010 -0.366552
O20   O     O_3   0.028150 0.691310 0.749990 -0.366550
C9    C     C_R   0.773910 0.160735 0.521869 -0.289132
C10   C     C_R   0.226077 0.839261 0.478129 -0.289120
C11   C     C_R   0.670173 0.175811 0.595549 0.311649
C12   C     C_R   0.329815 0.824185 0.404451 0.311619
C13   C     C_R   0.680223 0.111208 0.659966 0.312316
C14   C     C_R   0.319785 0.888793 0.340036 0.312331
C15   C     C_R   0.799779 0.034464 0.651090 -0.285446
C16   C     C_R   0.200232 0.965538 0.348913 -0.285448
C17   C     C_R   0.898966 0.015838 0.575712 0.029297
C18   C     C_R   0.101037 0.984163 0.424289 0.029300
C19   C     C_R   0.885610 0.080317 0.509555 0.034003
C20   C     C_R   0.114388 0.919682 0.490445 0.033995
C21   C     C_R   0.012808 0.935236 0.566279 -0.130804
C22   C     C_R   0.987192 0.064764 0.433722 -0.130809
H1    H     H_    0.767018 0.213918 0.475216 0.137291
H2    H     H_    0.232958 0.786076 0.524781 0.137291
H3    H     H_    0.811308 0.989510 0.704248 0.136183
H4    H     H_    0.188710 0.010494 0.295755 0.136174
C23   C     C_R   0.179776 0.975462 0.966840 -0.161928
C24   C     C_R   0.820224 0.024539 0.033159 -0.161920
H5    H     H_    0.320739 0.957635 0.942309 0.117454
H6    H     H_    0.679261 0.042366 0.057690 0.117453
C25   C     C_R   0.168723 0.038775 0.032312 -0.159600
C26   C     C_R   0.831276 0.961225 0.967687 -0.159600
H7    H     H_    0.301710 0.067927 0.056110 0.118233
H8    H     H_    0.698290 0.932073 0.943889 0.118238
C27   C     C_R   0.988786 0.064239 0.066330 -0.047689
C28   C     C_R   0.011214 0.935761 0.933670 -0.047691
C29   C     C_R   0.319819 0.470018 0.471344 -0.159395
C30   C     C_R   0.680182 0.529980 0.528657 -0.159400
H9    H     H_    0.178564 0.447782 0.450438 0.114666
H10   H     H_    0.821436 0.552216 0.549563 0.114667
C31   C     C_R   0.330985 0.533433 0.536719 -0.151800
C32   C     C_R   0.669015 0.466565 0.463283 -0.151793
H11   H     H_    0.197767 0.558353 0.564027 0.116153
H12   H     H_    0.802233 0.441645 0.435974 0.116150
C33   C     C_R   0.511326 0.564228 0.566314 -0.058196
C34   C     C_R   0.488674 0.435770 0.433688 -0.058192
C35   C     C_R   0.327756 0.493229 0.046295 0.440095
C36   C     C_R   0.672242 0.506768 0.953702 0.440092
C37   C     C_R   0.341384 0.554453 0.979165 -0.286677
C38   C     C_R   0.658613 0.445544 0.020832 -0.286681
H13   H     H_    0.216600 0.596315 0.964302 0.191298
H14   H     H_    0.783397 0.403680 0.035694 0.191303
C39   C     C_R   0.513023 0.563375 0.932972 -0.226610
C40   C     C_R   0.486975 0.436623 0.067026 -0.226611
N1    N     N_2   0.429881 0.876886 0.265819 -0.515169
H15   H     H_    0.367154 0.905456 0.213589 0.242311
C41   C     C_3   0.631416 0.902124 0.273918 -0.504560
H16   H     H_    0.708160 0.887374 0.214613 0.185815
H17   H     H_    0.702061 0.862121 0.324318 0.222308
H18   H     H_    0.644576 0.976580 0.287783 0.191388
N2    N     N_2   0.570133 0.123116 0.734184 -0.515187
H19   H     H_    0.632932 0.094606 0.786421 0.242327
C42   C     C_3   0.368660 0.097787 0.726114 -0.504652
H20   H     H_    0.291909 0.112538 0.785419 0.185828
H21   H     H_    0.355646 0.023320 0.712286 0.191441
H22   H     H_    0.297930 0.137726 0.675699 0.222299
N3    N     N_2   0.555216 0.256271 0.604487 -0.503712
H23   H     H_    0.504090 0.282189 0.548934 0.249075
C43   C     C_3   0.639966 0.326547 0.656642 -0.519771
H24   H     H_    0.775468 0.352627 0.627988 0.182480
H25   H     H_    0.672053 0.299377 0.719729 0.211551
H26   H     H_    0.536627 0.384381 0.663445 0.195089
N4    N     N_2   0.444749 0.743718 0.395508 -0.503760
H27   H     H_    0.495882 0.717800 0.451058 0.249091
C44   C     C_3   0.359967 0.673446 0.343361 -0.519814
H28   H     H_    0.224478 0.647372 0.372027 0.182495
H29   H     H_    0.463288 0.615602 0.336542 0.195080
H30   H     H_    0.327856 0.700623 0.280284 0.211572
O21   O     O_3   0.154959 0.487402 0.089295 -0.536705
C45   C     C_3   0.152489 0.556207 0.151325 0.117525
H31   H     H_    0.175052 0.625652 0.124037 0.105347
H32   H     H_    0.266420 0.542710 0.198842 0.095561
C46   C     C_3   0.956791 0.556106 0.194652 -0.689767
H33   H     H_    0.929602 0.488383 0.223761 0.232910
H34   H     H_    0.954227 0.609608 0.243963 0.164977
H35   H     H_    0.840314 0.570829 0.148924 0.219603
O22   O     O_3   0.845040 0.512594 0.910703 -0.536706
C47   C     C_3   0.847488 0.443805 0.848659 0.117522
H36   H     H_    0.733584 0.457330 0.801138 0.095578
H37   H     H_    0.824871 0.374356 0.875930 0.105336
C48   C     C_3   0.043200 0.443888 0.805345 -0.689793
H38   H     H_    0.159647 0.429131 0.851075 0.219605
H39   H     H_    0.045744 0.390403 0.756019 0.164986
H40   H     H_    0.070448 0.511615 0.776257 0.232917

loop_
_geom_bond_atom_site_label_1
_geom_bond_atom_site_label_2
_ccdc_geom_bond_type
C29   C34   A    
C32   H12   S    
C42   H20   S    
C43   H24   S    
C25   C27   A    
O13   V3    S    
O22   C47   S    
O4    C2    A    
V1    O19   S    
C1    C34   S    
C45   H32   S    
N4    H27   S    
C15   C17   A    
C32   C34   A    
N2    H19   S    
C5    C27   S    
O9    V1    S    
C2    C33   S    
C38   H14   S    
C13   N2    S    
C11   C13   A    
O3    C1    A    
C16   H4    S    
C14   N1    S    
O12   V4    S    
C48   H38   S    
C18   C22   A    
C4    C39   S    
O9    C5    A    
C29   H9    S    
O7    C3    A    
C43   H25   S    
C45   H31   S    
C30   H10   S    
N4    C44   S    
O5    C7    A    
O7    V1    S    
O6    C8    A    
O8    V2    S    
C31   H11   S    
C46   H33   S    
O3    V1    S    
C12   N4    S    
O14   V4    S    
V4    O20   S    
C23   C25   A    
C1    O11   A    
C36   O22   S    
C2    O12   A    
C17   C19   A    
C18   C20   A    
C47   H37   S    
C47   H36   S    
C41   H17   S    
C24   H6    S    
O11   V3    S    
N2    C42   S    
O17   V3    S    
C8    C21   S    
C30   C32   A    
C9    C19   A    
C10   C20   A    
C36   C38   A    
O8    C4    A    
N3    H23   S    
N1    C41   S    
O13   V1    S    
C48   H39   S    
O15   V3    S    
C41   H16   S    
C26   C28   A    
C30   C33   A    
C23   H5    S    
C36   C39   A    
C24   C27   A    
N3    C43   S    
C44   H28   S    
C6    C28   S    
C48   H40   S    
O10   V2    S    
O1    V3    S    
C45   C46   S    
C7    C22   S    
C15   H3    S    
O18   V4    S    
C43   H26   S    
C25   H7    S    
C9    H1    S    
C46   H35   S    
O16   C6    A    
O1    C3    A    
C37   H13   S    
C12   C14   A    
C41   H18   S    
C20   C21   A    
C35   C37   A    
V2    O20   S    
C35   O21   S    
C3    C40   S    
C37   C39   A    
O16   V4    S    
C44   H29   S    
O5    V1    S    
O17   C7    A    
O6    V2    S    
O10   C6    A    
O18   C8    A    
O2    V4    S    
O15   C5    A    
V3    O19   S    
C14   C16   A    
C46   H34   S    
C31   C33   A    
C16   C18   A    
C9    C11   A    
C10   C12   A    
C26   H8    S    
O14   V2    S    
C47   C48   S    
O2    C4    A    
C19   C22   A    
N1    H15   S    
O4    V2    S    
C29   C31   A    
C44   H30   S    
C10   H2    S    
C13   C15   A    
C38   C40   A    
C42   H22   S    
O21   C45   S    
C42   H21   S    
C17   C21   A    
C23   C28   A    
C35   C40   A    
C24   C26   A    
C11   N3    S    
