data_mof_unit_6295.cif
_audit_creation_date              2012-12-11T16:52:17-0500
_audit_creation_method            fapswitch 2.2
_symmetry_space_group_name_H-M    P1
_symmetry_Int_Tables_number       1
_space_group_crystal_system       orthorhombic
_cell_length_a                    7.199338
_cell_length_b                    26.106045
_cell_length_c                    28.755621
_cell_angle_alpha                 90.0
_cell_angle_beta                  90.0
_cell_angle_gamma                 90.0
_cell_volume                      5404.51089752

loop_
_atom_site_label
_atom_site_type_symbol
_atom_type_description
_atom_site_fract_x
_atom_site_fract_y
_atom_site_fract_z
_atom_type_partial_charge
O1    O     O_R   0.601030 0.796770 0.202460 -0.536514
O2    O     O_R   0.398970 0.203230 0.797540 -0.536514
O3    O     O_R   0.398970 0.203230 0.702460 -0.536514
O4    O     O_R   0.601030 0.796770 0.297540 -0.536514
O5    O     O_R   0.101030 0.703230 0.297540 -0.536514
O6    O     O_R   0.898970 0.296770 0.702460 -0.536514
O7    O     O_R   0.898970 0.296770 0.797540 -0.536514
O8    O     O_R   0.101030 0.703230 0.202460 -0.536514
O9    O     O_R   0.271290 0.802910 0.297210 -0.541163
O10   O     O_R   0.728710 0.197090 0.702790 -0.541163
O11   O     O_R   0.728710 0.197090 0.797210 -0.541163
O12   O     O_R   0.271290 0.802910 0.202790 -0.541163
O13   O     O_R   0.771290 0.697090 0.202790 -0.541163
O14   O     O_R   0.228710 0.302910 0.797210 -0.541163
O15   O     O_R   0.228710 0.302910 0.702790 -0.541163
O16   O     O_R   0.771290 0.697090 0.297210 -0.541163
C1    C     C_R   0.440004 0.815283 0.312619 0.701295
C2    C     C_R   0.559996 0.184717 0.687381 0.701295
C3    C     C_R   0.559996 0.184717 0.812619 0.701295
C4    C     C_R   0.440004 0.815283 0.187381 0.701295
C5    C     C_R   0.940004 0.684717 0.187381 0.701295
C6    C     C_R   0.059996 0.315283 0.812619 0.701295
C7    C     C_R   0.059996 0.315283 0.687381 0.701295
C8    C     C_R   0.940004 0.684717 0.312619 0.701295
O17   O     O_3   0.434520 0.717290 0.250000 -0.374694
O18   O     O_3   0.565480 0.282710 0.750000 -0.374694
O19   O     O_3   0.934520 0.782710 0.250000 -0.374694
O20   O     O_3   0.065480 0.217290 0.750000 -0.374694
V1    V     V_3+5 0.159680 0.756060 0.250000 1.393173
V2    V     V_3+5 0.840320 0.243940 0.750000 1.393173
V3    V     V_3+5 0.659680 0.743940 0.250000 1.393173
V4    V     V_3+5 0.340320 0.256060 0.750000 1.393173
C9    C     C_R   0.888345 0.358502 0.622137 -0.156635
C10   C     C_R   0.111655 0.641498 0.377863 -0.156635
C11   C     C_R   0.111655 0.641498 0.122137 -0.156635
C12   C     C_R   0.888345 0.358502 0.877863 -0.156635
C13   C     C_R   0.388345 0.141498 0.877863 -0.156635
C14   C     C_R   0.611655 0.858502 0.122137 -0.156635
C15   C     C_R   0.611654 0.858502 0.377863 -0.156635
C16   C     C_R   0.388345 0.141498 0.622137 -0.156636
H1    H     H_    0.769977 0.333783 0.628192 0.137830
H2    H     H_    0.230023 0.666217 0.371808 0.137830
H3    H     H_    0.230023 0.666217 0.128192 0.137830
H4    H     H_    0.769977 0.333783 0.871808 0.137830
H5    H     H_    0.269977 0.166217 0.871808 0.137830
H6    H     H_    0.730023 0.833783 0.128192 0.137830
H7    H     H_    0.730023 0.833783 0.371808 0.137829
H8    H     H_    0.269977 0.166217 0.628192 0.137830
C17   C     C_R   0.878595 0.394205 0.585966 -0.195549
C18   C     C_R   0.121405 0.605795 0.414034 -0.195549
C19   C     C_R   0.121405 0.605795 0.085966 -0.195549
C20   C     C_R   0.878595 0.394205 0.914034 -0.195549
C21   C     C_R   0.378596 0.105795 0.914034 -0.195549
C22   C     C_R   0.621404 0.894205 0.085966 -0.195549
C23   C     C_R   0.621404 0.894205 0.414034 -0.195549
C24   C     C_R   0.378595 0.105795 0.585966 -0.195549
H9    H     H_    0.753668 0.395668 0.565020 0.148477
H10   H     H_    0.246332 0.604331 0.434980 0.148476
H11   H     H_    0.246332 0.604331 0.065020 0.148477
H12   H     H_    0.753668 0.395669 0.934980 0.148477
H13   H     H_    0.253669 0.104332 0.934980 0.148476
H14   H     H_    0.746331 0.895668 0.065020 0.148476
H15   H     H_    0.746331 0.895668 0.434980 0.148476
H16   H     H_    0.253669 0.104332 0.565020 0.148476
C25   C     C_R   0.028645 0.427020 0.576329 -0.013443
C26   C     C_R   0.971355 0.572979 0.423670 -0.013443
C27   C     C_R   0.971355 0.572979 0.076329 -0.013443
C28   C     C_R   0.028645 0.427020 0.923670 -0.013443
C29   C     C_R   0.528645 0.072980 0.923670 -0.013444
C30   C     C_R   0.471355 0.927020 0.076329 -0.013444
C31   C     C_R   0.471355 0.927020 0.423671 -0.013444
C32   C     C_R   0.528645 0.072980 0.576329 -0.013443
C33   C     C_R   0.189080 0.423878 0.604696 0.416721
C34   C     C_R   0.810920 0.576122 0.395304 0.416720
C35   C     C_R   0.810920 0.576122 0.104696 0.416720
C36   C     C_R   0.189080 0.423878 0.895304 0.416720
C37   C     C_R   0.689080 0.076122 0.895304 0.416721
C38   C     C_R   0.310920 0.923878 0.104696 0.416720
C39   C     C_R   0.310920 0.923878 0.395304 0.416720
C40   C     C_R   0.689080 0.076122 0.604696 0.416720
C41   C     C_R   0.200045 0.386730 0.640019 -0.244277
C42   C     C_R   0.799955 0.613270 0.359981 -0.244278
C43   C     C_R   0.799955 0.613270 0.140019 -0.244277
C44   C     C_R   0.200045 0.386730 0.859981 -0.244278
C45   C     C_R   0.700045 0.113270 0.859981 -0.244277
C46   C     C_R   0.299955 0.886730 0.140019 -0.244277
C47   C     C_R   0.299955 0.886730 0.359980 -0.244277
C48   C     C_R   0.700045 0.113270 0.640019 -0.244277
H17   H     H_    0.325365 0.384551 0.660776 0.142454
H18   H     H_    0.674635 0.615449 0.339224 0.142454
H19   H     H_    0.674635 0.615449 0.160776 0.142454
H20   H     H_    0.325365 0.384551 0.839224 0.142453
H21   H     H_    0.825364 0.115449 0.839223 0.142454
H22   H     H_    0.174636 0.884551 0.160776 0.142454
H23   H     H_    0.174636 0.884551 0.339223 0.142454
H24   H     H_    0.825364 0.115449 0.660776 0.142454
C49   C     C_R   0.049653 0.353958 0.649399 -0.108036
C50   C     C_R   0.950347 0.646042 0.350601 -0.108036
C51   C     C_R   0.950346 0.646042 0.149399 -0.108036
C52   C     C_R   0.049653 0.353958 0.850601 -0.108036
C53   C     C_R   0.549653 0.146042 0.850601 -0.108036
C54   C     C_R   0.450347 0.853958 0.149399 -0.108036
C55   C     C_R   0.450346 0.853958 0.350601 -0.108036
C56   C     C_R   0.549654 0.146042 0.649399 -0.108036
C57   C     C_R   0.163641 0.472046 0.506317 -0.092812
C58   C     C_R   0.836359 0.527954 0.493683 -0.092812
C59   C     C_R   0.836359 0.527954 0.006317 -0.092813
C60   C     C_R   0.163641 0.472046 0.993683 -0.092813
C61   C     C_R   0.663641 0.027954 0.993683 -0.092812
C62   C     C_R   0.336359 0.972046 0.006317 -0.092812
C63   C     C_R   0.336359 0.972046 0.493683 -0.092813
C64   C     C_R   0.663641 0.027954 0.506317 -0.092813
C65   C     C_R   0.149428 0.507285 0.469789 -0.209753
C66   C     C_R   0.850572 0.492714 0.530211 -0.209754
C67   C     C_R   0.850572 0.492714 0.969789 -0.209753
C68   C     C_R   0.149428 0.507286 0.030211 -0.209753
C69   C     C_R   0.649428 0.992714 0.030211 -0.209754
C70   C     C_R   0.350572 0.007286 0.969789 -0.209753
C71   C     C_R   0.350572 0.007286 0.530211 -0.209754
C72   C     C_R   0.649428 0.992714 0.469789 -0.209754
H25   H     H_    0.266394 0.512084 0.446609 0.148016
H26   H     H_    0.733606 0.487916 0.553390 0.148016
H27   H     H_    0.733606 0.487916 0.946609 0.148015
H28   H     H_    0.266394 0.512084 0.053390 0.148015
H29   H     H_    0.766394 0.987915 0.053390 0.148016
H30   H     H_    0.233606 0.012084 0.946609 0.148015
H31   H     H_    0.233606 0.012084 0.553390 0.148016
H32   H     H_    0.766394 0.987915 0.446609 0.148016
C73   C     C_R   0.985328 0.535491 0.462788 0.100143
C74   C     C_R   0.014672 0.464509 0.537211 0.100142
C75   C     C_R   0.014672 0.464509 0.962788 0.100143
C76   C     C_R   0.985328 0.535491 0.037211 0.100143
C77   C     C_R   0.485328 0.964509 0.037211 0.100142
C78   C     C_R   0.514672 0.035491 0.962789 0.100142
C79   C     C_R   0.514672 0.035491 0.537211 0.100142
C80   C     C_R   0.485328 0.964509 0.462788 0.100142
O21   O     O_3   0.337346 0.456660 0.597988 -0.567361
C81   C     C_3   0.309934 0.500461 0.625951 0.091148
H33   H     H_    0.307641 0.489982 0.663520 0.113265
H34   H     H_    0.177739 0.520258 0.616741 0.123353
C82   C     C_3   0.468835 0.537824 0.618079 -0.725824
H35   H     H_    0.474803 0.549037 0.580840 0.222065
H36   H     H_    0.447169 0.572715 0.639486 0.176399
H37   H     H_    0.602577 0.519828 0.628266 0.217291
O22   O     O_3   0.662654 0.543340 0.402012 -0.567361
C83   C     C_3   0.690065 0.499539 0.374048 0.091149
H38   H     H_    0.822261 0.479742 0.383258 0.123353
H39   H     H_    0.692358 0.510018 0.336479 0.113265
C84   C     C_3   0.531165 0.462176 0.381920 -0.725825
H40   H     H_    0.397422 0.480172 0.371734 0.217291
H41   H     H_    0.552830 0.427285 0.360513 0.176399
H42   H     H_    0.525197 0.450962 0.419159 0.222065
O23   O     O_3   0.662654 0.543340 0.097988 -0.567362
C85   C     C_3   0.690065 0.499539 0.125952 0.091148
H43   H     H_    0.692358 0.510018 0.163520 0.113265
H44   H     H_    0.822260 0.479742 0.116741 0.123353
C86   C     C_3   0.531164 0.462176 0.118079 -0.725823
H45   H     H_    0.525196 0.450963 0.080840 0.222064
H46   H     H_    0.552829 0.427285 0.139486 0.176399
H47   H     H_    0.397422 0.480173 0.128266 0.217290
O24   O     O_3   0.337346 0.456660 0.902012 -0.567361
C87   C     C_3   0.309935 0.500461 0.874048 0.091149
H48   H     H_    0.177740 0.520258 0.883258 0.123353
H49   H     H_    0.307643 0.489982 0.836479 0.113265
C88   C     C_3   0.468836 0.537824 0.881920 -0.725822
H50   H     H_    0.602578 0.519827 0.871734 0.217290
H51   H     H_    0.447171 0.572715 0.860513 0.176398
H52   H     H_    0.474803 0.549037 0.919159 0.222064
O25   O     O_3   0.837346 0.043340 0.902012 -0.567361
C89   C     C_3   0.809932 0.999538 0.874049 0.091148
H53   H     H_    0.807638 0.010017 0.836480 0.113265
H54   H     H_    0.677737 0.979742 0.883259 0.123353
C90   C     C_3   0.968832 0.962175 0.881921 -0.725825
H55   H     H_    0.974800 0.950962 0.919160 0.222065
H56   H     H_    0.947165 0.927284 0.860515 0.176399
H57   H     H_    0.102574 0.980171 0.871734 0.217291
O26   O     O_3   0.162654 0.956660 0.097988 -0.567361
C91   C     C_3   0.190068 0.000462 0.125951 0.091148
H58   H     H_    0.322263 0.020258 0.116741 0.123353
H59   H     H_    0.192361 0.989983 0.163520 0.113266
C92   C     C_3   0.031168 0.037824 0.118079 -0.725825
H60   H     H_    0.897425 0.019829 0.128266 0.217291
H61   H     H_    0.052835 0.072716 0.139485 0.176399
H62   H     H_    0.025200 0.049038 0.080840 0.222065
O27   O     O_3   0.162654 0.956660 0.402012 -0.567361
C93   C     C_3   0.190068 0.000462 0.374049 0.091149
H63   H     H_    0.192362 0.989983 0.336480 0.113265
H64   H     H_    0.322263 0.020258 0.383260 0.123353
C94   C     C_3   0.031169 0.037824 0.381921 -0.725825
H65   H     H_    0.025200 0.049037 0.419160 0.222064
H66   H     H_    0.052836 0.072716 0.360515 0.176400
H67   H     H_    0.897426 0.019829 0.371734 0.217291
O28   O     O_3   0.837346 0.043340 0.597988 -0.567361
C95   C     C_3   0.809932 0.999538 0.625951 0.091149
H68   H     H_    0.677737 0.979742 0.616740 0.123353
H69   H     H_    0.807638 0.010017 0.663520 0.113265
C96   C     C_3   0.968832 0.962175 0.618079 -0.725823
H70   H     H_    0.102574 0.980171 0.628266 0.217291
H71   H     H_    0.947165 0.927284 0.639485 0.176398
H72   H     H_    0.974801 0.950962 0.580840 0.222064
H73   H     H_    0.290551 0.450161 0.509938 0.143676
H74   H     H_    0.709449 0.549839 0.490062 0.143676
H75   H     H_    0.709449 0.549839 0.009938 0.143676
H76   H     H_    0.290551 0.450161 0.990062 0.143676
H77   H     H_    0.790551 0.049839 0.990062 0.143675
H78   H     H_    0.209449 0.950161 0.009938 0.143675
H79   H     H_    0.209449 0.950161 0.490062 0.143676
H80   H     H_    0.790551 0.049839 0.509938 0.143676

loop_
_geom_bond_atom_site_label_1
_geom_bond_atom_site_label_2
_ccdc_geom_bond_type
O17   V3    S    
C58   C73   A    
C95   H69   S    
C16   C56   A    
C48   H24   S    
O18   V4    S    
C29   C78   S    
O12   V1    S    
O19   V1    S    
C38   O26   S    
C42   C50   A    
O25   C89   S    
C34   O22   S    
C29   C37   A    
C27   C76   S    
C10   H2    S    
C84   H40   S    
C60   C68   A    
C69   C77   A    
C36   C44   A    
C39   C47   A    
C25   C74   S    
C61   C69   A    
O15   V4    S    
C67   C75   A    
C90   H55   S    
O16   V3    S    
C40   O28   S    
O11   C3    A    
C88   H50   S    
C17   C25   A    
C58   C66   A    
O7    C6    A    
C8    C50   S    
O8    V1    S    
C63   C71   A    
C46   H22   S    
C87   H48   S    
C84   H41   S    
C5    C51   S    
C63   C80   A    
C90   H57   S    
C95   C96   S    
C30   C38   A    
C89   H53   S    
C9    C17   A    
C26   C34   A    
O1    V3    S    
C25   C33   A    
O3    C2    A    
O2    V4    S    
C96   H71   S    
O10   V2    S    
C60   C75   A    
C20   H12   S    
C10   C50   A    
C21   H13   S    
C86   H45   S    
C15   C23   A    
O11   V2    S    
C24   C32   A    
C47   H23   S    
C30   C77   S    
C24   H16   S    
C11   H3    S    
C87   H49   S    
C12   C20   A    
O9    V1    S    
O4    V3    S    
C26   C73   S    
C41   H17   S    
C38   C46   A    
O15   C7    A    
C95   H68   S    
C61   C78   A    
C37   C45   A    
C14   C22   A    
O16   C8    A    
O7    V2    S    
C43   C51   A    
C40   C48   A    
C93   H64   S    
C66   C74   A    
C62   C70   A    
C36   O24   S    
C96   H70   S    
C45   H21   S    
C34   C42   A    
C11   C51   A    
C33   O21   S    
C33   C41   A    
C48   C56   A    
O22   C83   S    
C19   H11   S    
C83   H39   S    
C90   H56   S    
C10   C18   A    
C67   H27   S    
C44   C52   A    
C91   H58   S    
C6    C52   S    
C20   C28   A    
C64   H80   S    
C85   C86   S    
C12   C52   A    
C84   H42   S    
C31   C80   S    
C64   C72   A    
C32   C79   S    
C19   C27   A    
C22   H14   S    
C16   C24   A    
C21   C29   A    
C92   H60   S    
C71   C79   A    
C31   C39   A    
C32   C40   A    
C23   H15   S    
C72   C80   A    
C18   H10   S    
C86   H46   S    
C94   H67   S    
C59   H75   S    
C58   H74   S    
C83   C84   S    
C35   O23   S    
C44   H20   S    
C57   H73   S    
C22   C30   A    
O12   C4    A    
O8    C5    A    
O13   C5    A    
O3    V4    S    
C62   H78   S    
C2    C56   S    
C61   H77   S    
C18   C26   A    
C59   C67   A    
C85   H43   S    
C65   C73   A    
C93   H63   S    
C47   C55   A    
O4    C1    A    
O9    C1    A    
C88   H52   S    
C7    C49   S    
O28   C95   S    
C86   H47   S    
C96   H72   S    
C11   C19   A    
C82   H37   S    
C27   C35   A    
C64   C79   A    
C13   H5    S    
C46   C54   A    
O5    V1    S    
C63   H79   S    
C45   C53   A    
C15   H7    S    
C83   H38   S    
C92   H62   S    
C57   C65   A    
C16   H8    S    
C37   O25   S    
O1    C4    A    
C39   O27   S    
O6    V2    S    
O2    C3    A    
C87   C88   S    
C85   H44   S    
O13   V3    S    
O14   V4    S    
C59   C76   A    
C81   C82   S    
C70   C78   A    
C17   H9    S    
C91   H59   S    
C72   H32   S    
C15   C55   A    
C57   C74   A    
C81   H34   S    
C28   C75   S    
C28   C36   A    
C65   H25   S    
C43   H19   S    
O21   C81   S    
C42   H18   S    
C9    H1    S    
O14   C6    A    
C93   C94   S    
C82   H36   S    
C1    C55   S    
C13   C21   A    
C14   C54   A    
O24   C87   S    
C82   H35   S    
C13   C53   A    
C3    C53   S    
C35   C43   A    
O27   C93   S    
O5    C8    A    
C89   H54   S    
O10   C2    A    
O6    C7    A    
O20   V2    S    
C41   C49   A    
C9    C49   A    
C94   H65   S    
C60   H76   S    
C14   H6    S    
C91   C92   S    
C12   H4    S    
C81   H33   S    
C66   H26   S    
C92   H61   S    
C4    C54   S    
C88   H51   S    
O26   C91   S    
C62   C77   A    
C70   H30   S    
C94   H66   S    
O23   C85   S    
C68   H28   S    
C69   H29   S    
C23   C31   A    
C68   C76   A    
C89   C90   S    
C71   H31   S    
