data_mof_unit_53427.cif
_audit_creation_date              2012-12-10T17:48:21-0500
_audit_creation_method            fapswitch 2.2
_symmetry_space_group_name_H-M    P1
_symmetry_Int_Tables_number       1
_space_group_crystal_system       triclinic
_cell_length_a                    13.829286
_cell_length_b                    14.769331
_cell_length_c                    14.600403
_cell_angle_alpha                 114.978621
_cell_angle_beta                  105.949009
_cell_angle_gamma                 73.219851
_cell_volume                      2547.62143266

loop_
_atom_site_label
_atom_site_type_symbol
_atom_type_description
_atom_site_fract_x
_atom_site_fract_y
_atom_site_fract_z
_atom_type_partial_charge
C1    C     C_R   0.516931 0.118276 0.688652 0.844396
C2    C     C_R   0.482514 0.881874 0.311697 0.818504
C3    C     C_R   0.527804 0.359973 0.922654 -0.030288
C4    C     C_R   0.499314 0.641948 0.075878 -0.016744
C5    C     C_R   0.585010 0.320945 0.999251 0.037737
C6    C     C_R   0.438852 0.679109 0.998763 0.031637
C7    C     C_R   0.506626 0.467316 0.947013 0.077064
C8    C     C_R   0.528893 0.534405 0.051000 0.081092
C9    C     C_R   0.573605 0.491572 0.126871 -0.176286
C10   C     C_R   0.466299 0.509761 0.870577 -0.181841
C11   C     C_R   0.606187 0.387140 0.100607 -0.210371
C12   C     C_R   0.428027 0.613406 0.896384 -0.216317
C13   C     C_R   0.301788 0.318610 0.366390 -0.322022
C14   C     C_R   0.697931 0.682579 0.635492 -0.327215
C15   C     C_R   0.336668 0.230450 0.388155 0.008820
C16   C     C_R   0.662986 0.770531 0.613145 -0.012476
C17   C     C_R   0.500683 0.273419 0.465343 0.600380
C18   C     C_R   0.499946 0.725845 0.534449 0.583402
C19   C     C_R   0.462509 0.373554 0.462692 -0.121464
C20   C     C_R   0.537923 0.626649 0.538166 -0.100587
C21   C     C_R   0.364073 0.390716 0.403895 0.118722
C22   C     C_R   0.635972 0.610047 0.597702 0.109049
C23   C     C_R   0.686640 0.987334 0.503932 0.798388
C24   C     C_R   0.313281 0.012131 0.495146 0.774837
C25   C     C_R   0.518612 0.455056 0.512190 0.061813
C26   C     C_R   0.481096 0.545869 0.489879 0.077973
C27   C     C_R   0.390078 0.551217 0.417413 -0.202262
C28   C     C_R   0.609194 0.450163 0.585302 -0.224345
C29   C     C_R   0.330133 0.477846 0.379802 -0.207617
C30   C     C_R   0.669266 0.523532 0.622906 -0.200310
C31   C     C_1   0.207807 0.017000 0.489378 -0.188876
C32   C     C_1   0.791872 0.981045 0.507038 -0.178324
C33   C     C_2   0.012655 0.026476 0.478228 -0.164261
C34   C     C_2   0.986682 0.969303 0.514122 -0.163234
C35   C     C_1   0.880860 0.975153 0.510277 0.002181
C36   C     C_1   0.118600 0.021753 0.483865 -0.007814
C37   C     C_R   0.532260 0.184901 0.798352 -0.259213
C38   C     C_R   0.469856 0.815205 0.202569 -0.270941
C39   C     C_R   0.616657 0.215726 0.974940 -0.275938
C40   C     C_R   0.390569 0.781815 0.024747 -0.289092
C41   C     C_R   0.591939 0.147278 0.875030 0.397898
C42   C     C_R   0.398324 0.847766 0.127361 0.398753
C43   C     C_R   0.490395 0.289819 0.825868 0.337972
C44   C     C_R   0.527701 0.714838 0.174038 0.342199
Cu1   Cu    Cu3+1 0.526370 0.916390 0.524860 0.969236
Cu2   Cu    Cu3+1 0.473630 0.083610 0.475140 0.982523
H1    H     H_    0.044604 0.918668 0.547267 0.152165
H2    H     H_    0.954805 0.077295 0.445267 0.152067
H3    H     H_    0.225434 0.331530 0.322694 0.150907
H4    H     H_    0.773790 0.670426 0.680337 0.154475
H5    H     H_    0.363414 0.611336 0.387718 0.198679
H6    H     H_    0.635420 0.390138 0.615131 0.197461
H7    H     H_    0.644109 0.357771 0.160922 0.142385
H8    H     H_    0.390236 0.642264 0.835775 0.154628
H9    H     H_    0.662688 0.186376 0.033327 0.159263
H10   H     H_    0.341523 0.809509 0.966186 0.167548
H11   H     H_    0.581898 0.536397 0.207855 0.207805
H12   H     H_    0.463150 0.464329 0.789848 0.204245
H13   H     H_    0.257746 0.488050 0.328929 0.143441
H14   H     H_    0.741240 0.513758 0.674459 0.144067
H15   H     H_    0.712931 0.824238 0.639485 0.173004
H16   H     H_    0.285941 0.177933 0.363314 0.146684
N1    N     N_R   0.433980 0.209250 0.437830 -0.204904
N2    N     N_R   0.566020 0.790750 0.562170 -0.220092
O1    O     O_R   0.534760 0.019630 0.662610 -0.579951
O2    O     O_R   0.465240 0.980370 0.337390 -0.566216
O3    O     O_R   0.490220 0.160840 0.620610 -0.514366
O4    O     O_R   0.509780 0.839160 0.379390 -0.527284
O5    O     O_R   0.663260 0.919400 0.523940 -0.589538
O6    O     O_R   0.336740 0.080600 0.476060 -0.603899
O7    O     O_R   0.618720 0.060610 0.481950 -0.531399
O8    O     O_R   0.381280 0.939390 0.518050 -0.549072
O9    O     O_3   0.613519 0.689597 0.241216 -0.614264
C45   C     C_3   0.695992 0.729037 0.242200 0.084259
H17   H     H_    0.747664 0.739493 0.317615 0.170752
H18   H     H_    0.671460 0.805587 0.236317 0.107012
C46   C     C_3   0.756736 0.654019 0.157193 -0.359259
H19   H     H_    0.782025 0.578614 0.164971 0.231021
H20   H     H_    0.707090 0.644408 0.080915 0.219625
C47   C     C_3   0.850574 0.692010 0.162784 -0.916894
H21   H     H_    0.826678 0.766631 0.153422 0.257610
H22   H     H_    0.892921 0.636320 0.100339 0.257441
H23   H     H_    0.902733 0.700504 0.237665 0.257116
O10   O     O_3   0.408511 0.321542 0.759253 -0.607323
C48   C     C_3   0.314993 0.336925 0.790938 0.058815
H24   H     H_    0.263361 0.404543 0.776532 0.165676
H25   H     H_    0.322970 0.354205 0.874625 0.128506
C49   C     C_3   0.264392 0.244355 0.727282 -0.338500
H26   H     H_    0.254241 0.230047 0.644474 0.240830
H27   H     H_    0.314407 0.175998 0.741397 0.187443
C50   C     C_3   0.159926 0.261228 0.754303 -0.924037
H28   H     H_    0.168299 0.274393 0.836602 0.255812
H29   H     H_    0.125644 0.192694 0.706928 0.265412
H30   H     H_    0.107434 0.327864 0.738634 0.254881
O11   O     O_3   0.339142 0.945194 0.152002 -0.596846
C51   C     C_3   0.252492 0.949518 0.188829 0.102642
H31   H     H_    0.229359 0.029029 0.241628 0.156856
H32   H     H_    0.268749 0.900866 0.234737 0.109379
C52   C     C_3   0.162348 0.922241 0.100452 -0.377942
H33   H     H_    0.147217 0.970907 0.055196 0.230247
H34   H     H_    0.181698 0.841252 0.048987 0.214277
C53   C     C_3   0.065483 0.937816 0.140630 -0.906160
H35   H     H_    0.078638 0.888968 0.185249 0.259688
H36   H     H_    0.001746 0.916893 0.075064 0.259438
H37   H     H_    0.042747 0.018856 0.190475 0.253126
O12   O     O_3   0.631627 0.044352 0.852530 -0.593451
C54   C     C_3   0.559212 0.997179 0.859191 0.105335
H38   H     H_    0.567904 0.918661 0.800253 0.167032
H39   H     H_    0.477710 0.035205 0.841627 0.107677
C55   C     C_3   0.581198 0.989879 0.964742 -0.395096
H40   H     H_    0.663052 0.954056 0.982015 0.230088
H41   H     H_    0.566420 0.067467 0.024270 0.220608
C56   C     C_3   0.513593 0.926768 0.968923 -0.889708
H42   H     H_    0.431396 0.962936 0.955044 0.259636
H43   H     H_    0.532590 0.922186 0.046031 0.271788
H44   H     H_    0.526740 0.848245 0.910492 0.251581
O13   O     O_3   0.395471 0.761541 0.515025 -0.622525
C57   C     C_3   0.357977 0.813524 0.609275 0.088290
H45   H     H_    0.288479 0.870818 0.597296 0.179932
H46   H     H_    0.412933 0.857057 0.673117 0.114395
C58   C     C_3   0.325814 0.741374 0.641053 -0.396604
H47   H     H_    0.273892 0.696154 0.575663 0.241318
H48   H     H_    0.394505 0.688426 0.663004 0.217740
C59   C     C_3   0.270132 0.800703 0.732474 -0.944886
H49   H     H_    0.321403 0.844757 0.799650 0.255337
H50   H     H_    0.246911 0.746890 0.753298 0.255582
H51   H     H_    0.200054 0.853836 0.712945 0.258937
O14   O     O_3   0.604517 0.236881 0.490048 -0.607016
C60   C     C_3   0.657947 0.227544 0.414964 0.017282
H52   H     H_    0.740083 0.226133 0.450952 0.166404
H53   H     H_    0.632917 0.293709 0.390290 0.138031
C61   C     C_3   0.650590 0.128571 0.320364 -0.306412
H54   H     H_    0.686814 0.061820 0.342823 0.228265
H55   H     H_    0.568882 0.124775 0.285550 0.222879
C62   C     C_3   0.706078 0.122016 0.240091 -0.967920
H56   H     H_    0.704181 0.047573 0.175200 0.259511
H57   H     H_    0.787590 0.127820 0.273664 0.258484
H58   H     H_    0.668063 0.184164 0.210645 0.252007

loop_
_geom_bond_atom_site_label_1
_geom_bond_atom_site_label_2
_ccdc_geom_bond_type
C7    C10   A    
C62   H58   S    
O9    C45   S    
C23   O5    A    
O11   C51   S    
C4    C8    A    
O14   C60   S    
C24   O6    A    
C7    C8    A    
C39   C41   A    
Cu1   Cu2   S    
C25   C28   A    
C3    C43   A    
C26   C27   A    
C45   H18   S    
C19   C21   A    
Cu2   O2    S    
C3    C7    A    
C6    C12   A    
C48   C49   S    
C27   C29   A    
O12   C54   S    
C51   C52   S    
C33   C36   S    
C53   H37   S    
C34   C35   S    
C55   H40   S    
C58   C59   S    
C1    O3    A    
C57   H45   S    
C39   H9    S    
C29   H13   S    
C8    C9    A    
C40   H10   S    
C45   C46   S    
C51   H32   S    
C1    O1    A    
C54   H38   S    
C56   H44   S    
C18   C20   A    
C11   H7    S    
C1    C37   S    
C60   C61   S    
C40   C42   A    
Cu1   O8    S    
C43   O10   S    
C54   H39   S    
C53   H35   S    
C47   H23   S    
C27   H5    S    
C55   H41   S    
C46   H20   S    
Cu2   O6    S    
C45   H17   S    
C48   H25   S    
Cu1   O5    S    
C42   O11   S    
C32   C35   T    
C23   O7    A    
C62   H56   S    
C6    C40   A    
O10   C48   S    
C4    C6    A    
C41   O12   S    
C50   H28   S    
C61   H54   S    
C4    C44   A    
C3    C5    A    
C25   C26   A    
C46   H19   S    
C21   C29   A    
C30   H14   S    
C57   C58   S    
C37   C43   A    
C38   C44   A    
C50   H29   S    
C2    C38   S    
C52   H33   S    
C55   C56   S    
C49   C50   S    
C51   H31   S    
Cu1   O4    S    
C33   C34   D    
C58   H47   S    
C13   C21   A    
C53   H36   S    
C9    C11   A    
C18   O13   S    
Cu2   O7    S    
C10   C12   A    
C59   H51   S    
C13   H3    S    
C47   H22   S    
C52   H34   S    
C49   H27   S    
C13   C15   A    
Cu1   O1    S    
C54   C55   S    
C14   C16   A    
C16   H15   S    
C24   O8    A    
C59   H50   S    
C56   H42   S    
C46   C47   S    
C62   H57   S    
C22   C30   A    
C10   H12   S    
C20   C22   A    
C47   H21   S    
C2    O2    A    
C48   H24   S    
C17   O14   S    
C5    C11   A    
Cu1   N2    S    
C2    O4    A    
Cu2   N1    S    
C23   C32   S    
C14   C22   A    
C5    C39   A    
C60   H52   S    
C24   C31   S    
Cu2   O3    S    
O13   C57   S    
C17   N1    A    
C50   H30   S    
C28   H6    S    
C18   N2    A    
C14   H4    S    
C20   C26   A    
C61   C62   S    
C28   C30   A    
C17   C19   A    
C15   H16   S    
C9    H11   S    
C37   C41   A    
C44   O9    S    
C19   C25   A    
C57   H46   S    
C58   H48   S    
C38   C42   A    
C52   C53   S    
C49   H26   S    
C61   H55   S    
C33   H2    S    
C15   N1    A    
C31   C36   T    
C34   H1    S    
C16   N2    A    
C60   H53   S    
C12   H8    S    
C59   H49   S    
C56   H43   S    
