data_mof_unit_41652.cif
_audit_creation_date              2012-10-26T21:11:07-0400
_audit_creation_method            fapswitch 2.2
_symmetry_space_group_name_H-M    P1
_symmetry_Int_Tables_number       1
_space_group_crystal_system       triclinic
_cell_length_a                    10.888866
_cell_length_b                    10.921252
_cell_length_c                    13.116388
_cell_angle_alpha                 90.750149
_cell_angle_beta                  90.263112
_cell_angle_gamma                 90.417651
_cell_volume                      1559.60925065

loop_
_atom_site_label
_atom_site_type_symbol
_atom_type_description
_atom_site_fract_x
_atom_site_fract_y
_atom_site_fract_z
_atom_type_partial_charge
C1    C     C_R   0.495228 0.259472 0.499079 0.557427
C2    C     C_R   0.678919 0.867984 0.721015 0.036605
C3    C     C_R   0.445084 0.113755 0.307846 0.008680
C4    C     C_R   0.554927 0.886245 0.692151 0.008682
C5    C     C_R   0.539631 0.140716 0.239085 -0.076493
C6    C     C_R   0.460385 0.859288 0.760920 -0.076495
C7    C     C_R   0.512267 0.186109 0.142701 -0.117057
C8    C     C_R   0.487757 0.813896 0.857303 -0.117060
C9    C     C_R   0.390370 0.204422 0.113895 -0.134775
C10   C     C_R   0.609656 0.795578 0.886100 -0.134771
C11   C     C_R   0.483625 0.932074 0.410190 -0.161702
C12   C     C_R   0.504772 0.740528 0.500921 0.557424
C13   C     C_R   0.516373 0.067925 0.589810 -0.161694
C14   C     C_R   0.504487 0.872985 0.502436 -0.007506
C15   C     C_R   0.495512 0.127015 0.497565 -0.007502
C16   C     C_R   0.259598 0.504480 0.499559 0.558840
C17   C     C_R   0.740402 0.495519 0.500442 0.558836
C18   C     C_R   0.522526 0.941545 0.593262 -0.053156
C19   C     C_R   0.477476 0.058454 0.406738 -0.053161
C20   C     C_1   0.499999 0.500232 0.173567 0.133717
C21   C     C_1   0.500001 0.499768 0.826433 0.133716
C22   C     C_1   0.500003 0.500160 0.050684 -0.068258
C23   C     C_R   0.872848 0.495408 0.501573 0.018170
C24   C     C_1   0.499997 0.499840 0.949316 -0.068258
C25   C     C_R   0.230278 0.773207 0.250455 -0.094413
C26   C     C_R   0.769718 0.226791 0.749545 -0.094408
C27   C     C_R   0.177373 0.715470 0.333880 -0.081301
C28   C     C_R   0.822625 0.284529 0.666121 -0.081295
C29   C     C_R   0.119591 0.600515 0.322298 0.017281
C30   C     C_R   0.880408 0.399484 0.677704 0.017280
C31   C     C_R   0.115078 0.543155 0.224142 0.078671
C32   C     C_R   0.884919 0.456844 0.775861 0.078671
C33   C     C_R   0.169551 0.603321 0.141296 -0.103219
C34   C     C_R   0.127152 0.504592 0.498428 0.018175
C35   C     C_R   0.830445 0.396677 0.858705 -0.103220
C36   C     C_R   0.226750 0.717160 0.154533 -0.130267
C37   C     C_R   0.773246 0.282837 0.845467 -0.130270
C38   C     C_R   0.933250 0.541318 0.416218 -0.092942
C39   C     C_R   0.066749 0.458682 0.583783 -0.092935
C40   C     C_2   0.056217 0.421455 0.204811 0.553922
C41   C     C_2   0.943780 0.578544 0.795193 0.553916
C42   C     C_2   0.218803 0.101784 0.349071 0.227036
C43   C     C_2   0.781206 0.898213 0.650912 0.227039
C44   C     C_R   0.939644 0.453755 0.586721 0.009224
C45   C     C_R   0.060355 0.546245 0.413280 0.009222
C46   C     C_R   0.295340 0.177607 0.181357 -0.066403
C47   C     C_R   0.704680 0.822391 0.818631 -0.066400
C48   C     C_R   0.321094 0.132014 0.278975 0.036608
Cu1   Cu    Cu3+1 0.499990 0.499990 0.592680 1.006815
Cu2   Cu    Cu3+1 0.500010 0.500010 0.407320 1.006818
H1    H     H_    0.268301 0.762142 0.090074 0.113754
H2    H     H_    0.726550 0.137982 0.740095 0.117902
H3    H     H_    0.180536 0.760937 0.407787 0.121402
H4    H     H_    0.819462 0.239062 0.592214 0.121406
H5    H     H_    0.168877 0.561898 0.065820 0.176401
H6    H     H_    0.831117 0.438098 0.934181 0.176404
H7    H     H_    0.881245 0.575249 0.351863 0.133585
H8    H     H_    0.118755 0.424750 0.648138 0.133587
H9    H     H_    0.369392 0.239372 0.039008 0.126219
H10   H     H_    0.630641 0.760628 0.960984 0.126223
H11   H     H_    0.201569 0.191875 0.156819 0.180128
H12   H     H_    0.731694 0.237855 0.909925 0.113753
H13   H     H_    0.798453 0.808121 0.843162 0.180135
H14   H     H_    0.987226 0.300691 0.101166 0.338480
H15   H     H_    0.012761 0.699310 0.898842 0.338476
H16   H     H_    0.237354 0.075441 0.427040 0.111224
H17   H     H_    0.762652 0.924526 0.572936 0.111226
H18   H     H_    0.634620 0.125789 0.260130 0.131130
H19   H     H_    0.365393 0.874217 0.739884 0.131129
H20   H     H_    0.585652 0.206850 0.090129 0.113734
H21   H     H_    0.414376 0.793160 0.909880 0.113734
H22   H     H_    0.470308 0.879590 0.340255 0.132239
H23   H     H_    0.529691 0.120409 0.659745 0.132238
H24   H     H_    0.273446 0.862017 0.259904 0.117892
N1    N     N_1   0.500030 0.500030 0.268070 -0.169072
N2    N     N_1   0.499970 0.499970 0.731930 -0.169073
O1    O     O_R   0.499980 0.319630 0.578260 -0.507946
O2    O     O_R   0.026643 0.385041 0.104947 -0.713676
O3    O     O_2   0.965239 0.647880 0.725013 -0.481914
O4    O     O_R   0.973344 0.614960 0.895060 -0.713678
O5    O     O_2   0.112098 0.104477 0.320250 -0.471818
O6    O     O_2   0.887911 0.895553 0.679735 -0.471836
O7    O     O_R   0.500020 0.680370 0.421740 -0.507946
O8    O     O_R   0.500000 0.319650 0.421740 -0.483677
O9    O     O_R   0.500000 0.680350 0.578260 -0.483679
O10   O     O_R   0.319630 0.500000 0.578260 -0.501652
O11   O     O_R   0.680370 0.500000 0.421740 -0.501652
O12   O     O_R   0.319650 0.500020 0.421740 -0.485351
O13   O     O_R   0.680350 0.499980 0.578260 -0.485356
O14   O     O_2   0.034769 0.352116 0.274992 -0.481889

loop_
_geom_bond_atom_site_label_1
_geom_bond_atom_site_label_2
_ccdc_geom_bond_type
C33   H5    S    
C6    H19   S    
C27   C29   A    
C1    O1    A    
C14   C18   A    
C10   H10   S    
C41   O4    S    
C37   H12   S    
Cu2   O8    S    
C1    O8    A    
C15   C19   A    
C21   N2    T    
C11   C19   A    
C17   C23   S    
C12   O9    A    
C35   C37   A    
C47   H13   S    
C11   C14   A    
C3    C48   A    
C33   C36   A    
C31   C40   S    
C25   H24   S    
C38   C45   A    
C16   C34   S    
C32   C41   S    
C31   C33   A    
C3    C19   S    
C1    C15   S    
Cu2   O12   S    
C4    C18   S    
C9    C46   A    
H15   O4    S    
C16   O10   A    
C30   C44   S    
C42   O5    D    
C7    H20   S    
C5    H18   S    
Cu2   O7    S    
C46   C48   A    
C46   H11   S    
C34   C39   A    
C32   C35   A    
Cu1   O9    S    
C17   O13   A    
C4    C6    A    
Cu1   O13   S    
C5    C7    A    
C28   H4    S    
C11   H22   S    
C6    C8    A    
C39   H8    S    
C23   C44   A    
C12   O7    A    
C29   C45   S    
C9    H9    S    
C2    C4    A    
C26   H2    S    
C38   H7    S    
C2    C43   S    
Cu1   N2    S    
C34   C45   A    
C42   C48   S    
C36   H1    S    
Cu2   O11   S    
C13   C18   A    
C8    C10   A    
C13   H23   S    
C13   C15   A    
C40   O2    S    
C20   C22   S    
C42   H16   S    
C7    C9    A    
C8    H21   S    
C35   H6    S    
C17   O11   A    
H14   O2    S    
Cu1   O10   S    
C12   C14   S    
C3    C5    A    
C41   O3    D    
C27   H3    S    
C26   C37   A    
C39   C44   A    
C2    C47   A    
C25   C27   A    
C23   C38   A    
C26   C28   A    
C28   C30   A    
C29   C31   A    
Cu2   N1    S    
C30   C32   A    
Cu1   O1    S    
C22   C24   T    
C25   C36   A    
C20   N1    T    
C43   H17   S    
Cu1   Cu2   S    
C21   C24   S    
C10   C47   A    
C16   O12   A    
C43   O6    D    
C40   O14   D    
