data_mof_unit_16308.cif
_audit_creation_date              2012-12-10T17:30:26-0500
_audit_creation_method            fapswitch 2.2
_symmetry_space_group_name_H-M    P1
_symmetry_Int_Tables_number       1
_space_group_crystal_system       triclinic
_cell_length_a                    12.020319
_cell_length_b                    12.839702
_cell_length_c                    14.784764
_cell_angle_alpha                 91.463485
_cell_angle_beta                  86.280837
_cell_angle_gamma                 93.164225
_cell_volume                      2273.01140733

loop_
_atom_site_label
_atom_site_type_symbol
_atom_type_description
_atom_site_fract_x
_atom_site_fract_y
_atom_site_fract_z
_atom_type_partial_charge
C1    C     C_R   0.521995 0.699965 0.504081 0.903277
C2    C     C_R   0.378555 0.135503 0.443693 0.192629
C3    C     C_R   0.460424 0.866082 0.469410 -0.327276
C4    C     C_R   0.538628 0.133834 0.537653 -0.323774
C5    C     C_R   0.455903 0.972522 0.481379 0.070656
C6    C     C_R   0.539020 0.026264 0.531182 0.074257
C7    C     C_R   0.957220 0.399072 0.418091 -0.313225
C8    C     C_R   0.042631 0.598880 0.584195 -0.312205
C9    C     C_R   0.841577 0.411877 0.421137 0.357289
C10   C     C_R   0.159411 0.594154 0.573381 0.355032
C11   C     C_R   0.857224 0.540233 0.538982 -0.103453
C12   C     C_R   0.477778 0.299661 0.497483 0.896370
C13   C     C_R   0.141658 0.452797 0.467657 -0.100269
C14   C     C_R   0.974402 0.532720 0.533525 0.050464
C15   C     C_R   0.024525 0.460112 0.473484 0.052117
C16   C     C_R   0.500831 0.501529 0.674470 0.873956
C17   C     C_R   0.499661 0.501363 0.325474 0.880097
C18   C     C_R   0.401435 0.521864 0.182902 0.130213
C19   C     C_R   0.604591 0.510641 0.816839 0.110291
C20   C     C_R   0.501081 0.522410 0.228925 -0.091410
C21   C     C_R   0.505057 0.519750 0.771902 -0.086189
C22   C     C_R   0.603510 0.552608 0.183984 -0.288149
C23   C     C_R   0.713534 0.581980 0.943899 0.136149
C24   C     C_R   0.409800 0.556445 0.818958 -0.292014
C25   C     C_R   0.610175 0.570111 0.091033 0.079076
C26   C     C_R   0.408173 0.577014 0.911840 0.080124
C27   C     C_R   0.509189 0.576533 0.048240 -0.033742
C28   C     C_R   0.509935 0.574823 0.954279 -0.030565
C29   C     C_R   0.405720 0.570625 0.098705 0.002573
C30   C     C_R   0.610980 0.558090 0.903503 -0.010524
C31   C     C_R   0.714095 0.580464 0.039748 0.199957
C32   C     C_R   0.307963 0.599237 0.963355 0.196645
C33   C     C_3   0.304770 0.442603 0.205874 -0.430505
C34   C     C_R   0.308972 0.601777 0.059143 0.135301
C35   C     C_3   0.340923 0.331985 0.184790 -0.877430
C36   C     C_3   0.692803 0.434585 0.782667 -0.400254
C37   C     C_3   0.642651 0.323471 0.769159 -0.833589
C38   C     C_3   0.822681 0.582583 0.087099 -0.949166
C39   C     C_3   0.201317 0.613042 0.916037 -0.948615
C40   C     C_3   0.816629 0.618883 0.885002 -0.423446
C41   C     C_3   0.849494 0.733770 0.903902 -0.850224
C42   C     C_3   0.213722 0.645028 0.119634 -0.420902
C43   C     C_3   0.206546 0.762391 0.107855 -0.847504
C44   C     C_3   0.302200 0.194042 0.387742 -0.926508
C45   C     C_R   0.463019 0.187852 0.492543 -0.117479
C46   C     C_3   0.680023 0.799756 0.631890 -0.910237
C47   C     C_3   0.713132 0.030415 0.622289 -0.941479
C48   C     C_3   0.272234 0.965474 0.402974 -0.938455
C49   C     C_3   0.226904 0.679515 0.619662 -0.845002
C50   C     C_3   0.777623 0.352643 0.350161 -0.837219
C51   C     C_R   0.535157 0.811156 0.514032 -0.109019
C52   C     C_R   0.620265 0.971507 0.573882 0.218996
C53   C     C_R   0.370689 0.025840 0.443073 0.217659
C54   C     C_R   0.612537 0.861494 0.570725 0.186529
H1    H     H_    0.995494 0.344693 0.369783 0.144479
H2    H     H_    0.411878 0.313886 0.225090 0.254546
H3    H     H_    0.269714 0.275228 0.200485 0.248835
H4    H     H_    0.270529 0.450034 0.276681 0.225739
H5    H     H_    0.232829 0.452192 0.164261 0.205402
H6    H     H_    0.584363 0.318476 0.713955 0.255527
H7    H     H_    0.710622 0.270138 0.750841 0.240864
H8    H     H_    0.597419 0.296385 0.832905 0.254323
H9    H     H_    0.739348 0.461974 0.719817 0.222972
H10   H     H_    0.756555 0.427679 0.832806 0.200223
H11   H     H_    0.826677 0.509836 0.125513 0.234668
H12   H     H_    0.005257 0.657506 0.628801 0.145150
H13   H     H_    0.898656 0.586937 0.040849 0.249427
H14   H     H_    0.827201 0.650976 0.134472 0.243914
H15   H     H_    0.178220 0.540419 0.877708 0.238589
H16   H     H_    0.127890 0.629153 0.962018 0.252396
H17   H     H_    0.214367 0.678921 0.868602 0.241149
H18   H     H_    0.779196 0.782872 0.890883 0.258745
H19   H     H_    0.872293 0.747733 0.974790 0.269882
H20   H     H_    0.922646 0.758230 0.858094 0.242480
H21   H     H_    0.887656 0.569195 0.893754 0.201447
H22   H     H_    0.800676 0.613910 0.811944 0.203204
H23   H     H_    0.678338 0.555831 0.220879 0.183314
H24   H     H_    0.285779 0.804000 0.126050 0.257781
H25   H     H_    0.190618 0.781211 0.037254 0.268200
H26   H     H_    0.137351 0.791304 0.153484 0.246060
H27   H     H_    0.133001 0.602690 0.107071 0.201411
H28   H     H_    0.226706 0.634981 0.192483 0.210117
H29   H     H_    0.292641 0.153539 0.321265 0.241956
H30   H     H_    0.219162 0.199273 0.424558 0.245695
H31   H     H_    0.335967 0.273259 0.370573 0.252143
H32   H     H_    0.678953 0.836197 0.700851 0.241411
H33   H     H_    0.644903 0.719164 0.642711 0.238684
H34   H     H_    0.335008 0.562952 0.783436 0.184049
H35   H     H_    0.767437 0.796880 0.603078 0.241409
H36   H     H_    0.777854 0.980131 0.644094 0.254363
H37   H     H_    0.757973 0.087368 0.575723 0.242783
H38   H     H_    0.677342 0.072143 0.683167 0.239048
H39   H     H_    0.201339 0.014138 0.391875 0.254416
H40   H     H_    0.299576 0.928207 0.337264 0.240048
H41   H     H_    0.237610 0.904696 0.450682 0.239565
H42   H     H_    0.176155 0.718784 0.674602 0.194985
H43   H     H_    0.298249 0.650293 0.651940 0.262737
H44   H     H_    0.255384 0.740061 0.569932 0.244536
H45   H     H_    0.598448 0.177911 0.577167 0.186876
H46   H     H_    0.830939 0.297871 0.310163 0.193387
H47   H     H_    0.707386 0.303718 0.379837 0.263174
H48   H     H_    0.750180 0.407152 0.300511 0.239268
H49   H     H_    0.404227 0.823465 0.425591 0.186163
H50   H     H_    0.180279 0.395731 0.422573 0.130914
H51   H     H_    0.818040 0.594913 0.586270 0.129579
H52   H     H_    0.367131 0.323472 0.111622 0.267824
N1    N     N_R   0.207800 0.519350 0.516680 -0.098175
N2    N     N_R   0.792200 0.480650 0.483320 -0.096662
O1    O     O_R   0.421700 0.658830 0.504450 -0.626051
O2    O     O_R   0.578300 0.341170 0.495550 -0.627708
O3    O     O_R   0.609310 0.646410 0.493750 -0.608404
O4    O     O_R   0.390690 0.353590 0.506250 -0.605131
O5    O     O_R   0.406180 0.506230 0.637500 -0.630105
O6    O     O_R   0.593820 0.493770 0.362500 -0.623834
O7    O     O_R   0.593800 0.493820 0.626800 -0.622476
O8    O     O_R   0.406200 0.506180 0.373200 -0.626348
Zn1   Zn    Zn3+2 0.374730 0.508290 0.507150 0.934487
Zn2   Zn    Zn3+2 0.625270 0.491710 0.492850 0.934719

loop_
_geom_bond_atom_site_label_1
_geom_bond_atom_site_label_2
_ccdc_geom_bond_type
C25   C31   A    
C26   C32   A    
C33   H4    S    
C48   H41   S    
C27   C29   A    
C47   H38   S    
C34   C42   S    
C7    H1    S    
C13   N1    A    
C44   H29   S    
C16   O5    A    
O2    Zn2   S    
C12   O2    A    
C37   H8    S    
O1    Zn1   S    
C46   H35   S    
C43   H24   S    
C8    H12   S    
C16   C21   S    
C48   H40   S    
O3    Zn2   S    
C5    C53   A    
C36   C37   S    
C19   C21   A    
C24   C26   A    
C19   C36   S    
O4    Zn1   S    
C11   C14   A    
C43   H25   S    
C23   C40   S    
C17   C20   S    
O8    Zn1   S    
C32   C39   S    
C1    O1    A    
C49   H44   S    
C2    C44   S    
C22   C25   A    
C42   H28   S    
C11   H51   S    
C36   H9    S    
C11   N2    A    
C7    C15   A    
C41   H20   S    
C33   H5    S    
C10   N1    A    
C42   H27   S    
C52   C54   A    
C17   O6    A    
C4    C45   A    
C2    C45   A    
C48   C53   S    
C48   H39   S    
C23   C30   A    
N2    Zn2   S    
C4    C6    A    
C3    C51   A    
C44   H30   S    
C43   H26   S    
C41   H19   S    
C29   C34   A    
C40   H22   S    
C9    N2    A    
C32   C34   A    
C1    C51   S    
C38   H11   S    
O7    Zn2   S    
C46   C54   S    
C39   H15   S    
C18   C29   A    
C13   H50   S    
C24   H34   S    
O6    Zn2   S    
C41   H18   S    
O5    Zn1   S    
C40   C41   S    
C20   C22   A    
C50   H48   S    
C13   C15   A    
C47   H36   S    
C21   C24   A    
C42   C43   S    
C44   H31   S    
C16   O7    A    
C12   O4    A    
C46   H33   S    
C3    H49   S    
C7    C9    A    
C8    C14   A    
C35   H2    S    
C47   H37   S    
C9    C50   S    
C22   H23   S    
C38   H14   S    
C12   C45   S    
C3    C5    A    
C2    C53   A    
C37   H7    S    
C40   H21   S    
C47   C52   S    
C25   C27   A    
C26   C28   A    
C31   C38   S    
C35   H3    S    
C51   C54   A    
C28   C30   A    
C35   H52   S    
C1    O3    A    
C19   C30   A    
C5    C6    A    
C33   C35   S    
C39   H16   S    
C18   C20   A    
C49   H42   S    
C18   C33   S    
C50   H46   S    
C37   H6    S    
C49   H43   S    
C38   H13   S    
C50   H47   S    
C8    C10   A    
C4    H45   S    
C27   C28   A    
C39   H17   S    
C14   C15   A    
C6    C52   A    
C36   H10   S    
C10   C49   S    
N1    Zn1   S    
C17   O8    A    
C23   C31   A    
C46   H32   S    
