data_mof_unit_51551.cif
_audit_creation_date              2012-12-10T18:44:30-0500
_audit_creation_method            fapswitch 2.2
_symmetry_space_group_name_H-M    P1
_symmetry_Int_Tables_number       1
_space_group_crystal_system       triclinic
_cell_length_a                    12.988567
_cell_length_b                    19.430215
_cell_length_c                    18.139446
_cell_angle_alpha                 90.159375
_cell_angle_beta                  96.426308
_cell_angle_gamma                 90.12645
_cell_volume                      4549.06715711

loop_
_atom_site_label
_atom_site_type_symbol
_atom_type_description
_atom_site_fract_x
_atom_site_fract_y
_atom_site_fract_z
_atom_type_partial_charge
C1    C     C_R   0.500308 0.367489 0.499901 0.788993
C2    C     C_R   0.499764 0.632529 0.500095 0.819253
C3    C     C_R   0.497247 0.852444 0.501320 0.016721
C4    C     C_R   0.500818 0.147629 0.497333 0.015063
C5    C     C_R   0.487652 0.816562 0.567588 0.470595
C6    C     C_R   0.510286 0.183896 0.431295 0.468230
C7    C     C_R   0.490712 0.744204 0.566812 -0.295437
C8    C     C_R   0.507544 0.256175 0.432574 -0.307417
C9    C     C_R   0.498521 0.708134 0.500482 -0.082010
C10   C     C_R   0.500814 0.291918 0.499224 -0.090331
C11   C     C_R   0.417369 0.965118 0.527042 -0.114749
C12   C     C_R   0.580194 0.034961 0.470984 -0.115332
C13   C     C_R   0.418529 0.036771 0.526269 -0.201960
C14   C     C_R   0.579047 0.963311 0.471774 -0.200570
C15   C     C_R   0.499734 0.072038 0.497962 0.145836
C16   C     C_R   0.497913 0.928041 0.500167 0.145497
C17   C     C_R   0.561582 0.456004 0.726919 -0.064188
C18   C     C_R   0.582590 0.525647 0.285071 -0.085031
C19   C     C_R   0.562434 0.456545 0.804551 0.343752
C20   C     C_R   0.585498 0.523472 0.207696 0.347969
C21   C     C_R   0.497423 0.502553 0.838210 -0.044697
C22   C     C_R   0.498646 0.498975 0.161198 -0.043772
C23   C     C_R   0.300383 0.497462 0.486041 0.848384
C24   C     C_R   0.699672 0.501816 0.513996 0.874049
C25   C     C_R   0.437055 0.549421 0.792525 0.287011
C26   C     C_R   0.413135 0.473752 0.194681 0.272778
C27   C     C_R   0.437940 0.545551 0.714726 -0.049097
C28   C     C_R   0.417559 0.472890 0.272795 -0.066475
C29   C     C_R   0.516647 0.562108 0.962873 -0.322030
C30   C     C_R   0.473318 0.440877 0.035926 -0.313593
C31   C     C_R   0.515205 0.562529 0.040354 0.480421
C32   C     C_R   0.469250 0.441465 0.958071 0.472926
C33   C     C_R   0.496273 0.500886 0.078157 0.008886
C34   C     C_R   0.493951 0.502019 0.920763 0.021675
C35   C     C_R   0.812519 0.505433 0.522309 -0.226211
C36   C     C_R   0.187720 0.491172 0.478090 -0.233901
C37   C     C_R   0.023602 0.455856 0.410562 0.395149
C38   C     C_R   0.976476 0.540794 0.589140 0.373210
C39   C     C_R   0.132156 0.458077 0.416420 0.412638
C40   C     C_R   0.868513 0.533846 0.586252 0.382951
C41   C     C_R   0.135559 0.517372 0.535196 -0.288792
C42   C     C_R   0.864139 0.481424 0.463831 -0.300779
C43   C     C_R   0.028242 0.513481 0.531407 -0.055252
C44   C     C_R   0.971713 0.483430 0.468266 -0.066703
C45   C     C_R   0.505590 0.744726 0.434754 -0.185323
C46   C     C_R   0.493943 0.255031 0.564770 -0.186366
C47   C     C_R   0.505758 0.816267 0.435346 -0.251103
C48   C     C_R   0.493042 0.183471 0.563646 -0.249289
Cu1   Cu    Cu3+1 0.499970 0.500000 0.573360 0.950824
Cu2   Cu    Cu3+1 0.500030 0.500000 0.426640 0.939746
H1    H     H_    0.819711 0.459963 0.415069 0.210442
H2    H     H_    0.179344 0.541687 0.582684 0.216981
H3    H     H_    0.610310 0.420131 0.701202 0.146038
H4    H     H_    0.647663 0.547196 0.319983 0.160917
H5    H     H_    0.388024 0.578532 0.678669 0.137432
H6    H     H_    0.354647 0.450418 0.298556 0.195043
H7    H     H_    0.536094 0.609120 0.935622 0.181145
H8    H     H_    0.458297 0.393055 0.063390 0.203101
H9    H     H_    0.511900 0.718134 0.382897 0.164693
H10   H     H_    0.488363 0.281407 0.616852 0.167623
H11   H     H_    0.511821 0.843613 0.384028 0.156972
H12   H     H_    0.487109 0.155848 0.614810 0.159294
H13   H     H_    0.488274 0.716152 0.618039 0.143979
H14   H     H_    0.509457 0.284410 0.381421 0.155913
H15   H     H_    0.353274 0.938565 0.547938 0.134302
H16   H     H_    0.644352 0.061497 0.450165 0.133506
H17   H     H_    0.355621 0.064749 0.546961 0.133075
H18   H     H_    0.642029 0.935342 0.451168 0.135111
N1    N     N_R   0.499990 0.500020 0.683620 -0.205905
N2    N     N_R   0.500010 0.499980 0.316380 -0.212273
O1    O     O_R   0.499960 0.400180 0.561970 -0.586105
O2    O     O_R   0.500040 0.599820 0.438030 -0.580450
O3    O     O_R   0.500010 0.400190 0.438070 -0.586936
O4    O     O_R   0.499990 0.599810 0.561930 -0.584069
O5    O     O_R   0.348980 0.499990 0.551890 -0.590697
O6    O     O_R   0.651020 0.500010 0.448110 -0.604557
O7    O     O_R   0.349030 0.499990 0.427990 -0.554463
O8    O     O_R   0.650970 0.500010 0.572010 -0.541958
O9    O     O_3   0.623194 0.409730 0.846816 -0.534890
C49   C     C_3   0.718218 0.441288 0.873642 0.052561
H19   H     H_    0.709828 0.496501 0.889136 0.126443
H20   H     H_    0.772685 0.437601 0.830750 0.127390
C50   C     C_3   0.764940 0.403492 0.942700 -0.747489
H21   H     H_    0.776831 0.348422 0.929538 0.252027
H22   H     H_    0.840796 0.426892 0.963478 0.187471
H23   H     H_    0.712331 0.407249 0.986805 0.248729
O10   O     O_3   0.672193 0.546757 0.177457 -0.535832
C51   C     C_3   0.749435 0.495540 0.187068 0.061252
H24   H     H_    0.718842 0.444330 0.166866 0.129496
H25   H     H_    0.780912 0.491690 0.246562 0.171405
C52   C     C_3   0.837766 0.514721 0.142627 -0.737590
H26   H     H_    0.871688 0.564980 0.162055 0.252891
H27   H     H_    0.898989 0.474726 0.149955 0.205151
H28   H     H_    0.808759 0.518421 0.082790 0.240222
O11   O     O_3   0.370928 0.593979 0.823991 -0.568369
C53   C     C_3   0.393081 0.662721 0.805648 0.057695
H29   H     H_    0.364073 0.673722 0.746962 0.117224
H30   H     H_    0.477849 0.673855 0.814925 0.134285
C54   C     C_3   0.338559 0.711264 0.854351 -0.787791
H31   H     H_    0.367677 0.703054 0.913472 0.240416
H32   H     H_    0.354036 0.765417 0.839592 0.200085
H33   H     H_    0.253671 0.701896 0.846322 0.252981
O12   O     O_3   0.328466 0.446626 0.150856 -0.582127
C55   C     C_3   0.239807 0.486866 0.158453 0.084731
H34   H     H_    0.256254 0.542954 0.153822 0.121038
H35   H     H_    0.210193 0.476523 0.212552 0.191045
C56   C     C_3   0.155236 0.467863 0.096845 -0.785573
H36   H     H_    0.134787 0.412560 0.100766 0.252026
H37   H     H_    0.085094 0.499333 0.101910 0.202294
H38   H     H_    0.182495 0.477700 0.041915 0.239658
O13   O     O_3   0.538074 0.623127 0.078833 -0.535035
C57   C     C_3   0.444425 0.655039 0.092235 0.070315
H39   H     H_    0.398516 0.621671 0.126184 0.126620
H40   H     H_    0.396720 0.667561 0.039181 0.133903
C58   C     C_3   0.468903 0.721595 0.134947 -0.765099
H41   H     H_    0.513549 0.756770 0.102212 0.249522
H42   H     H_    0.395772 0.747286 0.145762 0.192243
H43   H     H_    0.515232 0.710409 0.188816 0.252348
O14   O     O_3   0.444715 0.381523 0.918890 -0.537530
C59   C     C_3   0.336377 0.379347 0.899937 0.063513
H44   H     H_    0.308199 0.426007 0.868223 0.153039
H45   H     H_    0.295815 0.374980 0.950710 0.151217
C60   C     C_3   0.308849 0.316747 0.851161 -0.759233
H46   H     H_    0.334417 0.269046 0.881398 0.250891
H47   H     H_    0.223692 0.314373 0.835927 0.194225
H48   H     H_    0.347524 0.320214 0.799676 0.252036
O15   O     O_3   0.816824 0.562326 0.641617 -0.563680
C61   C     C_3   0.825424 0.517523 0.703002 -0.256152
H49   H     H_    0.905996 0.516054 0.730939 0.190033
H50   H     H_    0.798511 0.464531 0.686988 0.136375
H51   H     H_    0.775145 0.537245 0.743849 0.160995
O16   O     O_3   0.182064 0.429254 0.360380 -0.574790
C62   C     C_3   0.221488 0.364158 0.383755 -0.331449
H52   H     H_    0.241701 0.335437 0.334459 0.194853
H53   H     H_    0.164653 0.332507 0.410545 0.123889
H54   H     H_    0.293186 0.369576 0.422587 0.171433
O17   O     O_3   0.968419 0.432165 0.345546 -0.567549
C63   C     C_3   0.943880 0.361719 0.352771 0.076022
H55   H     H_    0.926915 0.347670 0.409828 0.118749
H56   H     H_    0.008907 0.329692 0.337576 0.171923
C64   C     C_3   0.848658 0.344214 0.299201 -0.845635
H57   H     H_    0.863305 0.356219 0.241452 0.253508
H58   H     H_    0.830470 0.288535 0.302898 0.203341
H59   H     H_    0.780918 0.374310 0.313274 0.230062
O18   O     O_3   0.031667 0.571874 0.649993 -0.581491
C65   C     C_3   0.034500 0.643503 0.637483 0.078100
H60   H     H_    0.955782 0.666177 0.637013 0.181675
H61   H     H_    0.065500 0.655478 0.584045 0.126147
C66   C     C_3   0.105490 0.677051 0.699720 -0.793600
H62   H     H_    0.184474 0.655089 0.701199 0.250292
H63   H     H_    0.109572 0.733397 0.690348 0.192393
H64   H     H_    0.075612 0.667656 0.753838 0.258388
O19   O     O_3   0.486126 0.853493 0.633170 -0.577721
C67   C     C_3   0.403925 0.831407 0.672366 0.038373
H65   H     H_    0.427939 0.785407 0.706113 0.142729
H66   H     H_    0.332216 0.819444 0.634603 0.126024
C68   C     C_3   0.378199 0.888360 0.724940 -0.779396
H67   H     H_    0.354903 0.935639 0.693133 0.242587
H68   H     H_    0.313250 0.871833 0.755774 0.194928
H69   H     H_    0.446822 0.900025 0.765284 0.255502
O20   O     O_3   0.511468 0.147619 0.365317 -0.580368
C69   C     C_3   0.596483 0.168128 0.328097 0.041136
H70   H     H_    0.668286 0.175985 0.367161 0.125088
H71   H     H_    0.577758 0.216248 0.296458 0.153495
C70   C     C_3   0.618375 0.112243 0.273128 -0.772837
H72   H     H_    0.549169 0.103899 0.232248 0.256616
H73   H     H_    0.684564 0.127914 0.243090 0.197178
H74   H     H_    0.638078 0.063315 0.302884 0.240704

loop_
_geom_bond_atom_site_label_1
_geom_bond_atom_site_label_2
_ccdc_geom_bond_type
C18   N2    A    
C38   C40   A    
O10   C51   S    
C61   H51   S    
C17   N1    A    
C68   H67   S    
O11   C53   S    
C41   C43   A    
O13   C57   S    
C61   H49   S    
C55   H35   S    
O20   C69   S    
C28   H6    S    
C60   H46   S    
C9    C45   A    
C70   H72   S    
C19   C21   A    
C65   H60   S    
C64   H58   S    
C13   H17   S    
C27   H5    S    
C60   H47   S    
C39   O16   S    
C58   H41   S    
C69   C70   S    
C53   C54   S    
Cu1   O8    S    
Cu1   Cu2   S    
C35   C42   A    
Cu2   O2    S    
C55   H34   S    
C50   H21   S    
O16   C62   S    
C58   H42   S    
C53   H30   S    
C10   C46   A    
C62   H54   S    
C56   H36   S    
C12   C15   A    
C41   H2    S    
C65   H61   S    
C27   N1    A    
C59   C60   S    
C42   H1    S    
C70   H73   S    
C37   O17   S    
C56   H37   S    
C36   C41   A    
C42   C44   A    
C49   C50   S    
C2    O2    A    
C57   H40   S    
C57   H39   S    
C59   H45   S    
O18   C65   S    
C69   H71   S    
C45   C47   A    
C37   C39   A    
C46   C48   A    
C24   C35   S    
C29   H7    S    
C67   C68   S    
C4    C6    A    
Cu2   O3    S    
C23   O5    A    
C52   H26   S    
C5    C7    A    
C24   O6    A    
C60   H48   S    
C6    C8    A    
C21   C34   S    
C40   O15   S    
C12   H16   S    
C29   C34   A    
C32   C34   A    
C68   H68   S    
C43   C44   A    
C38   O18   S    
Cu2   O6    S    
C26   O12   S    
C52   H27   S    
C65   C66   S    
C11   C16   A    
C48   H12   S    
C54   H31   S    
C51   C52   S    
C58   H43   S    
C53   H29   S    
C54   H33   S    
C31   C33   A    
C67   H65   S    
C1    O1    A    
C23   O7    A    
C19   O9    S    
C7    H13   S    
Cu1   O5    S    
C6    O20   S    
C63   H56   S    
C8    H14   S    
C24   O8    A    
C50   H22   S    
C51   H25   S    
C25   O11   S    
C70   H74   S    
C13   C15   A    
Cu1   O1    S    
C62   H52   S    
C56   H38   S    
C14   C16   A    
C66   H64   S    
C20   C22   A    
C32   O14   S    
O15   C61   S    
Cu2   O7    S    
C17   H3    S    
C59   H44   S    
C69   H70   S    
C4    C48   A    
C7    C9    A    
C22   C33   S    
C21   C25   A    
C45   H9    S    
C14   H18   S    
C30   C33   A    
C46   H10   S    
C67   H66   S    
C36   C39   A    
C28   N2    A    
C1    C10   S    
C12   C14   A    
C49   H19   S    
C3    C5    A    
C63   C64   S    
C61   H50   S    
C47   H11   S    
O14   C59   S    
C64   H59   S    
C68   H69   S    
C25   C27   A    
O17   C63   S    
C26   C28   A    
C1    O3    A    
C37   C44   A    
C66   H63   S    
C35   C40   A    
Cu2   N2    S    
C38   C43   A    
C29   C31   A    
C66   H62   S    
C52   H28   S    
C30   C32   A    
C20   O10   S    
C11   C13   A    
C4    C15   S    
C5    O19   S    
C30   H8    S    
C3    C47   A    
C17   C19   A    
C49   H20   S    
C18   C20   A    
C55   C56   S    
C63   H55   S    
C18   H4    S    
O9    C49   S    
C50   H23   S    
C51   H24   S    
C8    C10   A    
C23   C36   S    
C22   C26   A    
O12   C55   S    
C62   H53   S    
C31   O13   S    
Cu1   O4    S    
Cu1   N1    S    
C2    O4    A    
O19   C67   S    
C64   H57   S    
C2    C9    S    
C54   H32   S    
C57   C58   S    
C3    C16   S    
C11   H15   S    
