data_mof_unit_42516.cif
_audit_creation_date              2012-12-10T17:02:56-0500
_audit_creation_method            fapswitch 2.2
_symmetry_space_group_name_H-M    P1
_symmetry_Int_Tables_number       1
_space_group_crystal_system       triclinic
_cell_length_a                    10.038394
_cell_length_b                    11.041582
_cell_length_c                    13.284299
_cell_angle_alpha                 97.381729
_cell_angle_beta                  80.628589
_cell_angle_gamma                 113.266241
_cell_volume                      1331.28817099

loop_
_atom_site_label
_atom_site_type_symbol
_atom_type_description
_atom_site_fract_x
_atom_site_fract_y
_atom_site_fract_z
_atom_type_partial_charge
C1    C     C_R   0.558976 0.747341 0.509766 0.802127
C2    C     C_R   0.475018 0.449558 0.951101 0.002872
C3    C     C_R   0.464394 0.517322 0.870461 -0.088471
C4    C     C_R   0.563344 0.521876 0.028554 -0.067663
C5    C     C_R   0.675829 0.644537 0.007138 -0.117983
C6    C     C_R   0.663512 0.716211 0.930211 0.351550
C7    C     C_R   0.552267 0.656061 0.865834 0.152776
C8    C     C_R   0.536046 0.480319 0.129332 0.417199
C9    C     C_R   0.757069 0.666587 0.173951 0.068921
C10   C     C_R   0.370747 0.442962 0.795245 -0.123937
C11   C     C_2   0.593419 0.891762 0.522042 -0.037953
C12   C     C_R   0.420152 0.477962 0.688968 0.791092
C13   C     C_2   0.485641 0.931087 0.509216 -0.183976
C14   C     C_2   0.404252 0.109666 0.490269 0.236066
C15   C     C_2   0.502363 0.069992 0.518446 -0.178050
C16   C     C_2   0.943132 0.515601 0.481893 0.336471
C17   C     C_2   0.081371 0.514257 0.513904 0.176693
C18   C     C_R   0.440488 0.253267 0.493223 0.724479
C19   C     C_R   0.579784 0.521515 0.310473 0.875349
C20   C     C_R   0.788741 0.698273 0.070556 0.165563
C21   C     C_R   0.630412 0.553678 0.202588 -0.197218
C22   C     C_R   0.272016 0.310819 0.811734 0.105542
C23   C     C_R   0.295308 0.245098 0.885797 -0.275534
C24   C     C_R   0.404737 0.310066 0.948733 0.414489
Cu1   Cu    Cu3+1 0.362000 0.479240 0.482530 0.927502
Cu2   Cu    Cu3+1 0.638000 0.520760 0.517470 0.940191
H1    H     H_    0.381299 0.859084 0.489131 0.217214
H2    H     H_    0.109538 0.382768 0.397077 0.201046
H3    H     H_    0.233575 0.139809 0.890148 0.146387
H4    H     H_    0.599978 0.143158 0.546902 0.142566
N1    N     N_2   0.845330 0.551960 0.543750 -0.023722
N2    N     N_2   0.154690 0.448120 0.456210 -0.324463
O1    O     O_R   0.426290 0.668220 0.490680 -0.618136
O2    O     O_R   0.659360 0.703290 0.520190 -0.578289
O3    O     O_R   0.326580 0.473880 0.629020 -0.600781
O4    O     O_R   0.559660 0.508940 0.658530 -0.575987
O5    O     O_R   0.340640 0.296710 0.479810 -0.570110
O6    O     O_R   0.573710 0.331780 0.509320 -0.588226
O7    O     O_R   0.440340 0.491060 0.341470 -0.515639
O8    O     O_R   0.673420 0.526120 0.370980 -0.609990
C25   C     C_3   0.842072 0.769858 0.252664 -0.418241
C26   C     C_3   0.797098 0.888702 0.267239 -0.829410
H5    H     H_    0.679649 0.857534 0.297875 0.253869
H6    H     H_    0.863000 0.964539 0.322009 0.246204
H7    H     H_    0.815393 0.934413 0.193956 0.244198
H8    H     H_    0.826066 0.733405 0.328597 0.227297
H9    H     H_    0.961454 0.803988 0.229342 0.218620
O9    O     O_3   0.276210 0.017286 0.457357 -0.744467
H10   H     H_    0.219360 0.064180 0.437561 0.335493
C27   C     C_3   0.741106 0.995357 0.549472 -0.431591
C28   C     C_3   0.861282 0.947817 0.561059 -0.752967
H11   H     H_    0.827891 0.884653 0.626543 0.261952
H12   H     H_    0.890000 0.895112 0.489295 0.270904
H13   H     H_    0.961410 0.034749 0.577247 0.230746
H14   H     H_    0.786687 0.067475 0.489468 0.205799
H15   H     H_    0.721243 0.049400 0.623231 0.207297
C29   C     C_3   0.134846 0.597585 0.611709 -0.207798
C30   C     C_3   0.049183 0.529138 0.709462 -0.762875
H16   H     H_    0.039341 0.604576 0.770882 0.242697
H17   H     H_    0.937912 0.456927 0.697004 0.267527
H18   H     H_    0.106158 0.475228 0.737697 0.236822
H19   H     H_    0.249737 0.631777 0.618989 0.224208
H20   H     H_    0.130377 0.696153 0.610953 0.199254
C31   C     C_3   0.932761 0.486184 0.367422 -0.417930
C32   C     C_3   0.839442 0.342069 0.337435 -0.771690
H21   H     H_    0.855416 0.273418 0.384051 0.213125
H22   H     H_    0.722132 0.323948 0.346096 0.282716
H23   H     H_    0.871554 0.318135 0.255656 0.230642
H24   H     H_    0.906595 0.559413 0.335008 0.217181
H25   H     H_    0.043452 0.508593 0.324686 0.159659
O10   O     O_3   0.886216 0.631478 0.627496 -0.678721
H26   H     H_    0.805425 0.660947 0.653814 0.375848
O11   O     O_3   0.745308 0.850162 0.925308 -0.775905
H27   H     H_    0.764267 0.890093 0.995324 0.322484
C33   C     C_3   0.944191 0.780533 0.026679 -0.392645
C34   C     C_3   0.046103 0.708567 0.028730 -0.846523
H28   H     H_    0.037140 0.673714 0.105139 0.251899
H29   H     H_    0.020559 0.621891 0.971946 0.254980
H30   H     H_    0.160098 0.777467 0.009142 0.244709
H31   H     H_    0.951198 0.798214 0.945311 0.241980
H32   H     H_    0.985294 0.878907 0.068999 0.204408
O12   O     O_3   0.406572 0.380265 0.162979 -0.678791
H33   H     H_    0.326706 0.387570 0.132159 0.317701
C35   C     C_3   0.153159 0.228377 0.745046 -0.422972
C36   C     C_3   0.001929 0.187517 0.807408 -0.794123
H34   H     H_    0.991190 0.121307 0.867059 0.269039
H35   H     H_    0.982686 0.276190 0.844583 0.251985
H36   H     H_    0.916507 0.133568 0.756392 0.246596
H37   H     H_    0.149827 0.279254 0.680109 0.239454
H38   H     H_    0.172543 0.138235 0.711661 0.208793
O13   O     O_3   0.450198 0.238491 0.004008 -0.688696
H39   H     H_    0.391612 0.142757 0.992244 0.320956
C37   C     C_3   0.520688 0.746334 0.802389 -0.344446
C38   C     C_3   0.375306 0.758119 0.843073 -0.888651
H40   H     H_    0.382556 0.808042 0.921121 0.263432
H41   H     H_    0.351600 0.818482 0.793010 0.245565
H42   H     H_    0.284874 0.659507 0.845663 0.259516
H43   H     H_    0.604881 0.848247 0.803601 0.252253
H44   H     H_    0.524274 0.716355 0.720253 0.180666

loop_
_geom_bond_atom_site_label_1
_geom_bond_atom_site_label_2
_ccdc_geom_bond_type
C37   C38   S    
O11   H27   S    
C14   C18   S    
C1    C11   S    
C34   H30   S    
C4    C8    A    
C9    C21   A    
C1    O1    A    
C29   H19   S    
C5    C20   A    
C36   H34   S    
C10   C22   A    
C16   N1    D    
C35   H38   S    
C15   H4    S    
C8    O12   S    
C23   H3    S    
C19   C21   S    
C18   O5    A    
C34   H29   S    
C3    C7    A    
C5    C6    A    
C30   H17   S    
C25   C26   S    
Cu1   O5    S    
Cu2   O2    S    
C16   C17   S    
C32   H22   S    
C25   H8    S    
C29   H20   S    
C31   H25   S    
C12   O4    A    
C33   H31   S    
C37   H44   S    
C30   H18   S    
N1    O10   S    
Cu2   N1    S    
C26   H6    S    
C1    O2    A    
C27   C28   S    
C36   H35   S    
C7    C37   S    
C28   H11   S    
H2    N2    S    
C34   H28   S    
O13   H39   S    
Cu2   O6    S    
C14   O9    S    
C38   H42   S    
C30   H16   S    
C27   H15   S    
C20   C33   S    
C28   H12   S    
C26   H7    S    
C22   C35   S    
C2    C4    A    
C33   C34   S    
C9    C20   A    
C23   C24   A    
C32   H23   S    
C8    C21   A    
C25   H9    S    
C31   H24   S    
C35   C36   S    
C12   O3    A    
C38   H41   S    
C10   C12   S    
Cu1   O3    S    
Cu2   O4    S    
O9    H10   S    
C32   H21   S    
C13   C15   S    
C2    C24   A    
C35   H37   S    
C24   O13   S    
C6    O11   S    
C36   H36   S    
C14   C15   D    
C33   H32   S    
C4    C5    A    
C6    C7    A    
C9    C25   S    
C27   H14   S    
C28   H13   S    
C31   C32   S    
C2    C3    A    
Cu1   Cu2   S    
O10   H26   S    
C3    C10   A    
Cu1   O7    S    
C11   C13   D    
Cu2   O8    S    
C29   C30   S    
Cu1   N2    S    
C18   O6    A    
C38   H40   S    
C19   O8    A    
C19   O7    A    
O12   H33   S    
C26   H5    S    
C17   C29   S    
C11   C27   S    
C17   N2    D    
C22   C23   A    
C13   H1    S    
C16   C31   S    
C37   H43   S    
Cu1   O1    S    
