data_mof_unit_53302.cif
_audit_creation_date              2012-12-10T18:31:54-0500
_audit_creation_method            fapswitch 2.2
_symmetry_space_group_name_H-M    P1
_symmetry_Int_Tables_number       1
_space_group_crystal_system       triclinic
_cell_length_a                    10.645622
_cell_length_b                    14.982014
_cell_length_c                    15.503063
_cell_angle_alpha                 82.503857
_cell_angle_beta                  89.377779
_cell_angle_gamma                 104.231927
_cell_volume                      2373.88339908

loop_
_atom_site_label
_atom_site_type_symbol
_atom_type_description
_atom_site_fract_x
_atom_site_fract_y
_atom_site_fract_z
_atom_type_partial_charge
C1    C     C_R   0.484714 0.441987 0.661987 0.865364
C2    C     C_3   0.121488 0.499217 0.499132 0.152876
C3    C     C_3   0.103081 0.577385 0.427912 -0.400348
C4    C     C_3   0.076201 0.517232 0.589158 -0.407032
C5    C     C_R   0.492717 0.407653 0.753824 -0.063118
C6    C     C_R   0.549481 0.592548 0.245636 -0.059914
C7    C     C_R   0.473867 0.283466 0.873433 -0.209295
C8    C     C_R   0.463798 0.312500 0.785168 -0.205266
C9    C     C_R   0.536651 0.472857 0.810152 -0.271181
C10   C     C_R   0.550789 0.445531 0.898127 0.091532
C11   C     C_R   0.513780 0.349408 0.930514 0.179019
C12   C     C_R   0.742061 0.500299 0.499840 0.813842
C13   C     C_R   0.590546 0.512125 0.955597 0.070572
C14   C     C_R   0.568537 0.482788 0.045875 0.072086
C15   C     C_R   0.537800 0.386400 0.076911 -0.238881
C16   C     C_R   0.513589 0.320788 0.019637 -0.241739
C17   C     C_R   0.649480 0.606977 0.926019 -0.231569
C18   C     C_R   0.673433 0.672437 0.983551 -0.242056
C19   C     C_R   0.634582 0.645888 0.071125 0.172204
C20   C     C_R   0.578480 0.551018 0.102081 0.090175
C21   C     C_R   0.650594 0.712688 0.128427 -0.213861
C22   C     C_R   0.610261 0.685806 0.215937 -0.205985
C23   C     C_R   0.519928 0.558105 0.337911 0.846887
C24   C     C_R   0.529115 0.527299 0.187759 -0.274542
C25   C     C_R   0.692724 0.842832 0.636591 -0.321190
C26   C     C_R   0.660833 0.753520 0.614568 0.011289
C27   C     C_R   0.515077 0.793783 0.510474 -0.068904
C28   C     C_R   0.542851 0.885804 0.529784 -0.004073
C29   C     C_R   0.634123 0.909395 0.594313 0.183962
C30   C     C_R   0.483868 0.954371 0.487704 0.081507
C31   C     C_R   0.517851 0.046096 0.511118 0.081147
C32   C     C_R   0.609911 0.066300 0.575451 -0.243705
C33   C     C_R   0.666475 0.999041 0.616136 -0.214583
C34   C     C_R   0.257925 0.499278 0.500278 0.836793
C35   C     C_R   0.392095 0.934241 0.423185 -0.243520
C36   C     C_R   0.335298 0.001438 0.382651 -0.216416
C37   C     C_R   0.367102 0.090940 0.404828 0.183703
C38   C     C_R   0.458436 0.114548 0.469316 -0.003410
C39   C     C_R   0.307821 0.157322 0.362984 -0.323236
C40   C     C_R   0.339034 0.246457 0.385435 0.008541
C41   C     C_R   0.485596 0.206409 0.489013 -0.069711
C42   C     C_3   0.895823 0.403301 0.482241 -0.374693
C43   C     C_3   0.038778 0.404004 0.479280 -0.402297
C44   C     C_3   0.957961 0.578277 0.425358 -0.043433
C45   C     C_3   0.933003 0.519782 0.587657 -0.455232
C46   C     C_3   0.879073 0.500580 0.497357 0.154067
H1    H     H_    0.850991 0.381676 0.421524 0.186279
H2    H     H_    0.135287 0.584543 0.605870 0.186699
H3    H     H_    0.951552 0.645540 0.446310 0.134825
H4    H     H_    0.160352 0.646200 0.442554 0.155339
H5    H     H_    0.488823 0.247540 0.045475 0.145083
H6    H     H_    0.473845 0.457442 0.210656 0.158259
H7    H     H_    0.627808 0.737367 0.260201 0.158016
H8    H     H_    0.718910 0.744413 0.958919 0.143199
H9    H     H_    0.447635 0.209759 0.897387 0.134514
H10   H     H_    0.431726 0.260886 0.741987 0.157815
H11   H     H_    0.553986 0.545555 0.785099 0.161408
H12   H     H_    0.845224 0.349688 0.536430 0.169146
H13   H     H_    0.534869 0.359993 0.145317 0.149773
H14   H     H_    0.681600 0.631904 0.858959 0.140968
H15   H     H_    0.695643 0.785209 0.105810 0.134987
H16   H     H_    0.736427 0.017506 0.665219 0.141206
H17   H     H_    0.552715 0.231501 0.536890 0.125669
H18   H     H_    0.294039 0.298642 0.353786 0.127404
H19   H     H_    0.265448 0.982998 0.333502 0.140545
H20   H     H_    0.762499 0.859749 0.686066 0.139704
H21   H     H_    0.705349 0.701210 0.646535 0.124841
H22   H     H_    0.448006 0.768704 0.462568 0.126100
H23   H     H_    0.054421 0.346730 0.528146 0.181658
H24   H     H_    0.641118 0.133700 0.596310 0.134350
H25   H     H_    0.361272 0.866946 0.402068 0.134170
H26   H     H_    0.237994 0.140384 0.313546 0.141366
H27   H     H_    0.067615 0.390221 0.414056 0.166521
H28   H     H_    0.143973 0.567859 0.364795 0.150376
H29   H     H_    0.924065 0.589000 0.601797 0.178224
H30   H     H_    0.876463 0.466853 0.640202 0.170288
H31   H     H_    0.088766 0.461420 0.640755 0.165912
N1    N     N_R   0.573860 0.731700 0.552730 -0.098433
N2    N     N_R   0.426060 0.268290 0.447230 -0.098608
O1    O     O_R   0.462770 0.383110 0.605620 -0.617489
O2    O     O_R   0.510160 0.531900 0.639510 -0.619225
O3    O     O_R   0.661510 0.425600 0.483070 -0.625133
O4    O     O_R   0.708900 0.574390 0.516960 -0.630656
O5    O     O_R   0.489840 0.468100 0.360490 -0.620379
O6    O     O_R   0.537230 0.616890 0.394380 -0.618710
O7    O     O_R   0.291100 0.425610 0.483040 -0.626675
O8    O     O_R   0.338490 0.574400 0.516930 -0.624526
Zn1   Zn    Zn3+2 0.468350 0.400660 0.477370 0.926721
Zn2   Zn    Zn3+2 0.531650 0.599340 0.522630 0.926968
C47   C     C_3   0.901775 0.580737 0.332277 -0.393080
C48   C     C_3   0.949683 0.523891 0.268564 -0.345019
C49   C     C_3   0.857801 0.506072 0.194392 -0.858954
H32   H     H_    0.761477 0.462480 0.220348 0.266031
H33   H     H_    0.846751 0.572976 0.159202 0.272074
H34   H     H_    0.897556 0.468630 0.147740 0.247332
H35   H     H_    0.046278 0.563243 0.239148 0.212134
H36   H     H_    0.959330 0.456189 0.301492 0.223167
H37   H     H_    0.794339 0.559829 0.338172 0.205157
H38   H     H_    0.926563 0.654346 0.300761 0.186281

loop_
_geom_bond_atom_site_label_1
_geom_bond_atom_site_label_2
_ccdc_geom_bond_type
C44   H3    S    
C24   H6    S    
C43   H27   S    
C19   C20   A    
C16   H5    S    
C7    H9    S    
C27   N1    A    
C42   H12   S    
C7    C8    A    
C45   C46   S    
C7    C11   A    
C26   N1    A    
C30   C35   A    
C45   H30   S    
C1    C5    S    
C26   H21   S    
C36   C37   A    
C19   C21   A    
C42   C46   S    
C30   C31   A    
O7    Zn1   S    
C1    O2    A    
C15   C16   A    
C6    C22   A    
C29   C33   A    
C18   C19   A    
C34   O7    A    
C3    H28   S    
C27   H22   S    
C48   H35   S    
C20   C24   A    
C33   H16   S    
C39   H26   S    
C9    C10   A    
C21   H15   S    
C34   O8    A    
O2    Zn2   S    
C2    C34   S    
C35   H25   S    
C43   H23   S    
C21   C22   A    
C8    H10   S    
N2    Zn1   S    
C3    H4    S    
C44   C46   S    
C22   H7    S    
C4    C45   S    
N1    Zn2   S    
C25   C29   A    
O4    Zn2   S    
C3    C44   S    
C23   O5    A    
C14   C20   A    
C38   C41   A    
C12   C46   S    
C48   C49   S    
O6    Zn2   S    
C36   H19   S    
C32   H24   S    
C25   C26   A    
C49   H34   S    
C12   O4    A    
C35   C36   A    
C2    C4    S    
C5    C9    A    
C37   C38   A    
C11   C16   A    
C31   C32   A    
C2    C43   S    
C6    C24   A    
C49   H33   S    
C17   C18   A    
C40   N2    A    
C12   O3    A    
C48   H36   S    
O8    Zn2   S    
C42   C43   S    
C41   H17   S    
C47   H38   S    
C39   C40   A    
C44   C47   S    
C4    H2    S    
C28   C29   A    
C15   H13   S    
C25   H20   S    
O5    Zn1   S    
C10   C13   A    
C41   N2    A    
C5    C8    A    
C40   H18   S    
C31   C38   A    
C13   C17   A    
C45   H29   S    
C32   C33   A    
C28   C30   A    
C2    C3    S    
C4    H31   S    
O1    Zn1   S    
C47   C48   S    
O3    Zn1   S    
C6    C23   S    
C49   H32   S    
C9    H11   S    
C42   H1    S    
C10   C11   A    
C18   H8    S    
C17   H14   S    
C37   C39   A    
C23   O6    A    
C27   C28   A    
C1    O1    A    
C14   C15   A    
C13   C14   A    
C47   H37   S    
