data_mof_unit_8210.cif
_audit_creation_date              2013-03-05T16:04:20-0500
_audit_creation_method            fapswitch 2.2
_symmetry_space_group_name_H-M    P1
_symmetry_Int_Tables_number       1
_space_group_crystal_system       triclinic
_cell_length_a                    9.528072
_cell_length_b                    10.808669
_cell_length_c                    13.47097
_cell_angle_alpha                 90.119409
_cell_angle_beta                  73.155107
_cell_angle_gamma                 90.044124
_cell_volume                      1327.78937209

loop_
_atom_site_label
_atom_site_type_symbol
_atom_site_description
_atom_site_fract_x
_atom_site_fract_y
_atom_site_fract_z
_atom_type_partial_charge
O1    O     O_R   0.381250 0.680340 0.500010 -0.583821
O2    O     O_R   0.618820 0.680370 0.500010 -0.540986
C1    C     C_R   0.498607 0.737799 0.503635 0.859257
O3    O     O_R   0.323240 0.499950 0.650980 -0.587682
O4    O     O_R   0.560810 0.499980 0.650980 -0.582901
C2    C     C_R   0.423752 0.485061 0.698891 0.825313
Cu1   Cu    Cu3+1 0.359340 0.499980 0.500000 0.954510
Cu2   Cu    Cu3+1 0.640660 0.500020 0.500000 0.973218
O5    O     O_R   0.381180 0.319630 0.499990 -0.584984
O6    O     O_R   0.618750 0.319660 0.499990 -0.594974
O7    O     O_R   0.439190 0.500020 0.349020 -0.593013
O8    O     O_R   0.676760 0.500050 0.349020 -0.590325
C3    C     C_R   0.499951 0.262256 0.500004 0.797176
C4    C     C_R   0.577803 0.500404 0.300259 0.794867
C5    C     C_R   0.808121 0.500144 0.021834 -0.193681
H1    H     H_    0.852179 0.531887 0.166610 0.155887
H2    H     H_    0.862866 0.443074 0.823132 0.138729
H3    H     H_    0.920560 0.516425 0.977263 0.136070
C6    C     C_R   0.621980 0.495200 0.187011 -0.043788
C7    C     C_R   0.236269 0.433043 0.864596 -0.186588
C8    C     C_R   0.194808 0.409197 0.970525 -0.147422
C9    C     C_R   0.296578 0.417270 0.026075 -0.172858
C10   C     C_R   0.446361 0.438912 0.974859 0.085390
C11   C     C_R   0.492126 0.439500 0.864857 0.099234
C12   C     C_R   0.552954 0.458627 0.028644 0.076102
C13   C     C_R   0.703056 0.469596 0.971856 0.177221
C14   C     C_R   0.747438 0.446460 0.866016 -0.237721
C15   C     C_R   0.643841 0.425751 0.814206 -0.181838
C16   C     C_R   0.514969 0.472657 0.136618 -0.246816
C17   C     C_R   0.768534 0.511025 0.129136 -0.195566
C18   C     C_R   0.384320 0.451847 0.810417 -0.100288
H4    H     H_    0.402454 0.467189 0.183275 0.148094
H5    H     H_    0.152524 0.434498 0.824766 0.147806
H6    H     H_    0.255160 0.402023 0.108449 0.118051
H7    H     H_    0.082434 0.386626 0.011048 0.141191
H8    H     H_    0.686685 0.394314 0.735327 0.181017
C19   C     C_R   0.587613 0.937978 0.556108 0.357201
C20   C     C_R   0.590930 0.066456 0.549868 -0.236138
H9    H     H_    0.660203 0.118131 0.586343 0.180401
C21   C     C_R   0.499199 0.128666 0.502277 -0.081756
C22   C     C_R   0.404402 0.063158 0.459441 -0.160708
H10   H     H_    0.332949 0.110776 0.422472 0.154549
C23   C     C_R   0.403952 0.935257 0.461712 -0.213476
H11   H     H_    0.333041 0.885765 0.425258 0.174242
C24   C     C_R   0.496286 0.871910 0.508526 -0.149052
C25   C     C_R   0.897019 0.569070 0.570353 0.000558
H12   H     H_    0.818237 0.624172 0.626972 0.192603
C26   C     C_R   0.045704 0.569044 0.570355 -0.017046
H13   H     H_    0.078650 0.624455 0.626733 0.140973
N1    N     N_R   0.147940 0.499970 0.499970 -0.164435
C27   C     C_R   0.102992 0.430590 0.429796 -0.015705
H14   H     H_    0.181810 0.374731 0.373647 0.113974
C28   C     C_R   0.954231 0.430666 0.429798 -0.025253
H15   H     H_    0.921160 0.374987 0.373624 0.123404
N2    N     N_R   0.852060 0.500060 0.499990 -0.174886
N3    N     N_R   0.669898 0.877215 0.615892 0.114046
O9    O     O_R   0.799105 0.918136 0.614089 -0.379158
O10   O     O_R   0.606047 0.796010 0.685604 -0.378218

loop_
_geom_bond_atom_site_label_1
_geom_bond_atom_site_label_2
_geom_bond_distance
_ccdc_geom_bond_type
C25   N2    1.367549 A    
C5    H3    1.080077 S    
Cu1   O7    1.954117 S    
C10   C11   1.418302 A    
O6    C3    1.290353 A    
C19   C20   1.391173 A    
C8    H7    1.079509 S    
O4    Cu2   1.954115 S    
C22   C23   1.382813 A    
C22   H10   1.083757 S    
Cu2   O8    1.961990 S    
C26   N1    1.366813 A    
N1    C27   1.367688 A    
C11   C18   1.431050 A    
Cu1   Cu2   2.680438 S    
C19   N3    1.436501 S    
O1    Cu1   1.960441 S    
C28   H15   1.081711 S    
C7    C8    1.390454 A    
C20   C21   1.398037 A    
C23   C24   1.401694 A    
C13   C14   1.386881 A    
O4    C2    1.288236 A    
O3    Cu1   1.961988 S    
C7    H5    1.083067 S    
Cu2   N2    2.014195 S    
Cu2   O6    1.960441 S    
C21   C22   1.396259 A    
O8    C4    1.295925 A    
O2    C1    1.291580 A    
C16   H4    1.075811 S    
O1    C1    1.291853 A    
C28   N2    1.367125 A    
C23   H11   1.083711 S    
C12   C16   1.401301 A    
C20   H9    1.084110 S    
C9    H6    1.077538 S    
O7    C4    1.293442 A    
C25   C26   1.416688 A    
C19   C24   1.413646 A    
C27   H14   1.081753 S    
H2    C14   1.084612 S    
C10   C12   1.423859 A    
N3    O9    1.301419 A    
C15   H8    1.076326 S    
C5    C17   1.388821 A    
O3    C2    1.310924 A    
C14   C15   1.381962 A    
Cu1   O5    1.960573 S    
O5    C3    1.290901 A    
C25   H12   1.080228 S    
C26   H13   1.081685 S    
C5    C13   1.397705 A    
C2    C18   1.483928 S    
C27   C28   1.417402 A    
C12   C13   1.417999 A    
C8    C9    1.388525 A    
C6    C17   1.398637 A    
H1    C17   1.083182 S    
C4    C6    1.461233 S    
C1    C24   1.450821 S    
C9    C10   1.413136 A    
O2    Cu2   1.960575 S    
C11   C15   1.416165 A    
Cu1   N1    2.014352 S    
N3    O10   1.301499 A    
C3    C21   1.444288 S    
C7    C18   1.402632 A    
C6    C16   1.399959 A    
