data_mof_unit_13086.cif
_audit_creation_date              2012-12-10T17:59:49-0500
_audit_creation_method            fapswitch 2.2
_symmetry_space_group_name_H-M    P1
_symmetry_Int_Tables_number       1
_space_group_crystal_system       triclinic
_cell_length_a                    10.912647
_cell_length_b                    9.565053
_cell_length_c                    15.908406
_cell_angle_alpha                 89.983009
_cell_angle_beta                  91.689464
_cell_angle_gamma                 89.999275
_cell_volume                      1659.79826079

loop_
_atom_site_label
_atom_site_type_symbol
_atom_type_description
_atom_site_fract_x
_atom_site_fract_y
_atom_site_fract_z
_atom_type_partial_charge
C1    C     C_R   0.261871 0.499994 0.503963 0.801781
C2    C     C_3   0.611073 0.569855 0.951649 -0.517435
C3    C     C_3   0.609796 0.581283 0.049924 0.644258
C4    C     C_1   0.495914 0.498746 0.824403 -0.009862
C5    C     C_1   0.497431 0.499285 0.175474 0.043530
C6    C     C_1   0.498552 0.499909 0.250883 -0.106532
C7    C     C_R   0.060542 0.371073 0.514279 0.143226
C8    C     C_R   0.060564 0.628852 0.514525 0.143134
C9    C     C_R   0.933266 0.373911 0.510409 -0.170331
C10   C     C_R   0.933285 0.626053 0.510624 -0.168502
C11   C     C_R   0.870127 0.499994 0.506390 -0.112357
C12   C     C_R   0.126920 0.499973 0.510949 -0.059019
C13   C     C_R   0.442797 0.073507 0.436057 0.490419
C14   C     C_R   0.442785 0.926550 0.436063 0.491376
C15   C     C_R   0.499605 0.500010 0.340357 0.838138
C16   C     C_R   0.558413 0.925746 0.563104 -0.124264
C17   C     C_R   0.558403 0.074195 0.563108 -0.124969
C18   C     C_R   0.737290 0.500000 0.501550 0.812545
C19   C     C_R   0.500079 0.499965 0.659661 0.818079
C20   C     C_3   0.376551 0.570954 0.047550 0.254194
C21   C     C_3   0.501702 0.343785 0.050116 0.192833
C22   C     C_3   0.495990 0.343045 0.951547 -0.017866
C23   C     C_3   0.381642 0.584062 0.949441 -0.068093
C24   C     C_1   0.498276 0.499695 0.749070 -0.197981
C25   C     C_3   0.495955 0.497913 0.083157 -0.014314
C26   C     C_3   0.492518 0.496946 0.916599 0.095543
Cu1   Cu    Cu3+1 0.500020 0.640660 0.500000 0.951047
Cu2   Cu    Cu3+1 0.500020 0.359340 0.500000 0.949695
H1    H     H_    0.605707 0.870295 0.613647 0.159486
H2    H     H_    0.605679 0.129600 0.613659 0.159087
H3    H     H_    0.591150 0.296563 0.070392 0.084922
H4    H     H_    0.374499 0.679175 0.073202 0.168345
H5    H     H_    0.584238 0.297133 0.931130 0.120668
H6    H     H_    0.403625 0.695890 0.936773 0.161001
H7    H     H_    0.619406 0.675979 0.923475 0.216401
H8    H     H_    0.693189 0.511767 0.930846 0.160592
H9    H     H_    0.882765 0.276325 0.510540 0.165614
H10   H     H_    0.882797 0.723638 0.510933 0.165568
N1    N     N_R   0.500030 0.852070 0.500020 -0.240357
N2    N     N_R   0.500030 0.147930 0.500020 -0.240010
O1    O     O_R   0.319660 0.618740 0.500000 -0.607750
O2    O     O_R   0.319660 0.381260 0.500000 -0.607515
O3    O     O_R   0.500020 0.618840 0.379440 -0.560566
O4    O     O_R   0.500020 0.381160 0.379440 -0.562051
O5    O     O_R   0.680370 0.618830 0.500010 -0.582260
O6    O     O_R   0.680370 0.381170 0.500010 -0.582618
O7    O     O_R   0.500010 0.618730 0.620560 -0.581460
O8    O     O_R   0.500010 0.381270 0.620560 -0.582317
C27   C     C_3   0.257658 0.564308 0.901621 -0.809232
H11   H     H_    0.225993 0.454962 0.900178 0.237123
H12   H     H_    0.186350 0.629059 0.931287 0.257007
H13   H     H_    0.264512 0.600472 0.835585 0.226950
C28   C     C_3   0.397753 0.243187 0.913687 -0.707701
H14   H     H_    0.306873 0.259156 0.940937 0.251407
H15   H     H_    0.389330 0.253834 0.844322 0.208228
H16   H     H_    0.424940 0.133456 0.927569 0.235719
O9    O     O_3   0.269083 0.506918 0.076097 -0.673023
H17   H     H_    0.252229 0.422012 0.042406 0.385214
O10   O     O_3   0.408676 0.260510 0.083956 -0.689242
H18   H     H_    0.437857 0.228917 0.140543 0.357349
O11   O     O_3   0.599094 0.724071 0.070451 -0.722842
H19   H     H_    0.615344 0.733947 0.131893 0.358416
O12   O     O_3   0.720996 0.531320 0.086794 -0.705581
H20   H     H_    0.743641 0.441964 0.059906 0.300256
C29   C     C_3   0.119270 0.228305 0.523773 -0.813781
H21   H     H_    0.165855 0.199566 0.465399 0.248754
H22   H     H_    0.184119 0.226886 0.578877 0.240177
H23   H     H_    0.050869 0.144779 0.534950 0.208727
C30   C     C_3   0.119332 0.771525 0.524365 -0.813764
H24   H     H_    0.184168 0.772505 0.579476 0.240022
H25   H     H_    0.165936 0.800722 0.466082 0.248819
H26   H     H_    0.050938 0.854933 0.535717 0.208761
O13   O     O_3   0.381601 0.137693 0.369894 -0.689569
H27   H     H_    0.342067 0.221914 0.391572 0.352932
O14   O     O_3   0.381551 0.862418 0.369924 -0.686740
H28   H     H_    0.342016 0.778191 0.391621 0.352563

loop_
_geom_bond_atom_site_label_1
_geom_bond_atom_site_label_2
_ccdc_geom_bond_type
C2    H7    S    
C11   C18   S    
O13   H27   S    
C28   H14   S    
C21   H3    S    
Cu2   O6    S    
C8    C30   S    
C15   O4    A    
C21   O10   S    
C5    C6    T    
C4    C24   T    
C19   O7    A    
C23   C27   S    
C20   C25   S    
Cu2   N2    S    
Cu1   O7    S    
C23   C26   S    
C30   H25   S    
C13   N2    A    
C14   N1    A    
Cu1   N1    S    
C16   C17   A    
C27   H12   S    
C29   H23   S    
C28   H15   S    
C6    C15   S    
O10   H18   S    
C13   C14   A    
C17   H2    S    
C30   H24   S    
C1    C12   S    
C18   O6    A    
C22   C28   S    
C3    O11   S    
C7    C12   A    
C3    C25   S    
C19   O8    A    
C29   H22   S    
C16   H1    S    
Cu2   O4    S    
C17   N2    A    
C30   H26   S    
O14   H28   S    
C7    C29   S    
Cu1   O1    S    
C20   C23   S    
C8    C12   A    
C27   H13   S    
C9    H9    S    
C2    C26   S    
C9    C11   A    
C5    C25   S    
C1    O1    A    
C13   O13   S    
C29   H21   S    
C18   O5    A    
C20   H4    S    
C28   H16   S    
C2    H8    S    
C7    C9    A    
C22   H5    S    
C21   C25   S    
Cu2   O8    S    
C23   H6    S    
C4    C26   S    
C3    O12   S    
C10   H10   S    
C14   O14   S    
C2    C3    S    
C15   O3    A    
Cu1   O5    S    
O9    H17   S    
Cu2   O2    S    
C19   C24   S    
O11   H19   S    
C10   C11   A    
C16   N1    A    
O12   H20   S    
Cu1   O3    S    
C1    O2    A    
C8    C10   A    
C27   H11   S    
C22   C26   S    
Cu1   Cu2   S    
C20   O9    S    
C21   C22   S    
