data_mof_unit_32001.cif
_audit_creation_date              2012-12-10T17:02:13-0500
_audit_creation_method            fapswitch 2.2
_symmetry_space_group_name_H-M    P1
_symmetry_Int_Tables_number       1
_space_group_crystal_system       triclinic
_cell_length_a                    10.724417
_cell_length_b                    10.735216
_cell_length_c                    10.031983
_cell_angle_alpha                 90.50733
_cell_angle_beta                  89.433196
_cell_angle_gamma                 90.412225
_cell_volume                      1154.84053797

loop_
_atom_site_label
_atom_site_type_symbol
_atom_type_description
_atom_site_fract_x
_atom_site_fract_y
_atom_site_fract_z
_atom_type_partial_charge
C1    C     C_R   0.503406 0.262761 0.499424 0.919527
C2    C     C_2   0.517651 0.131533 0.498859 -0.318513
C3    C     C_2   0.536280 0.593544 0.930083 0.430667
C4    C     C_R   0.259784 0.508099 0.501945 0.866337
C5    C     C_2   0.504869 0.598775 0.075298 -0.216140
C6    C     C_R   0.497880 0.737365 0.500252 0.963041
C7    C     C_R   0.739229 0.487768 0.499755 0.892531
C8    C     C_R   0.108105 0.522646 0.758671 -0.155309
C9    C     C_R   0.045677 0.482533 0.873321 -0.173235
C10   C     C_R   0.933263 0.417932 0.862289 0.081948
C11   C     C_R   0.878547 0.404033 0.737360 -0.157935
C12   C     C_R   0.058685 0.498475 0.629995 0.103492
C13   C     C_R   0.935419 0.456471 0.622413 0.092035
C14   C     C_1   0.870737 0.371402 0.979627 0.155933
C15   C     C_R   0.125744 0.514025 0.507865 -0.119494
C16   C     C_R   0.063731 0.515397 0.386113 -0.202871
C17   C     C_R   0.937210 0.499729 0.383253 -0.181228
C18   C     C_R   0.872179 0.473335 0.500855 -0.120802
C19   C     C_2   0.510727 0.932099 0.387917 -0.167771
C20   C     C_2   0.487850 0.869098 0.499953 -0.280332
C21   C     C_2   0.503134 0.065985 0.386565 -0.147739
H1    H     H_    0.112673 0.530074 0.292461 0.174392
H2    H     H_    0.533452 0.885282 0.294393 0.172013
H3    H     H_    0.457678 0.912973 0.592324 0.183094
H4    H     H_    0.485875 0.110441 0.291671 0.180026
H5    H     H_    0.657999 0.846191 0.044664 0.352196
H6    H     H_    0.543148 0.089856 0.592722 0.172694
H7    H     H_    0.446116 0.433965 0.895837 0.120798
H8    H     H_    0.498478 0.689061 0.124053 0.184225
H9    H     H_    0.519774 0.417648 0.100971 0.167209
H10   H     H_    0.191729 0.577175 0.774003 0.174438
H11   H     H_    0.086052 0.500555 0.970282 0.138466
H12   H     H_    0.791785 0.352210 0.730944 0.150061
H13   H     H_    0.890375 0.510513 0.288893 0.194068
N1    N     N_2   0.501340 0.501330 0.852150 -0.255951
N2    N     N_2   0.501380 0.501360 0.147810 -0.209572
N3    N     N_1   0.820290 0.334100 0.073818 -0.203987
O1    O     O_R   0.499980 0.319060 0.613040 -0.627511
O2    O     O_2   0.535971 0.824465 0.831494 -0.352034
O3    O     O_3   0.709051 0.779857 0.002511 -0.547746
O4    O     O_R   0.500020 0.319100 0.386900 -0.614423
O5    O     O_R   0.316750 0.499980 0.613090 -0.640979
O6    O     O_R   0.316790 0.500020 0.386950 -0.612209
O7    O     O_R   0.499980 0.680900 0.613100 -0.536767
O8    O     O_R   0.500020 0.680940 0.386960 -0.632059
O9    O     O_R   0.683210 0.499980 0.613050 -0.579475
O10   O     O_R   0.683250 0.500020 0.386910 -0.605878
O11   O     O_2   0.711502 0.692878 0.762644 -0.227620
S1    S     S_3+6 0.623643 0.724321 0.874821 0.048790
Zn1   Zn    Zn3+2 0.499970 0.499970 0.650990 1.005304
Zn2   Zn    Zn3+2 0.500030 0.500030 0.349010 0.964297

loop_
_geom_bond_atom_site_label_1
_geom_bond_atom_site_label_2
_ccdc_geom_bond_type
C19   H2    S    
C7    O9    A    
C2    H6    S    
O1    Zn1   S    
C4    O6    A    
H9    N2    S    
C6    C20   S    
C9    C10   A    
O9    Zn1   S    
C19   C20   D    
C12   C15   A    
C3    N1    D    
C8    C12   A    
C7    C18   S    
H5    O3    S    
N1    Zn1   S    
C17   C18   A    
C3    S1    S    
C6    O7    A    
C14   N3    T    
C11   C13   A    
O6    Zn2   S    
N2    Zn2   S    
C4    O5    A    
C13   C18   A    
C2    C21   D    
C15   C16   A    
C1    O1    A    
C1    O4    A    
O11   S1    D    
O2    S1    D    
O5    Zn1   S    
C5    H8    S    
C10   C11   A    
C4    C15   S    
C17   H13   S    
O8    Zn2   S    
C6    O8    A    
O3    S1    S    
C5    N2    D    
C11   H12   S    
C12   C13   A    
C1    C2    S    
C10   C14   S    
O7    Zn1   S    
C21   H4    S    
C16   C17   A    
C16   H1    S    
C9    H11   S    
C19   C21   S    
C8    H10   S    
O4    Zn2   S    
O10   Zn2   S    
C20   H3    S    
H7    N1    S    
C8    C9    A    
C3    C5    S    
C7    O10   A    
