data_mof_unit_40853.cif
_audit_creation_date              2012-12-10T19:59:28-0500
_audit_creation_method            fapswitch 2.2
_symmetry_space_group_name_H-M    P1
_symmetry_Int_Tables_number       1
_space_group_crystal_system       triclinic
_cell_length_a                    15.006186
_cell_length_b                    14.137106
_cell_length_c                    10.665715
_cell_angle_alpha                 90.227955
_cell_angle_beta                  90.075228
_cell_angle_gamma                 89.902608
_cell_volume                      2262.64478545

loop_
_atom_site_label
_atom_site_type_symbol
_atom_type_description
_atom_site_fract_x
_atom_site_fract_y
_atom_site_fract_z
_atom_type_partial_charge
C1    C     C_R   0.327628 0.500079 0.498504 0.848293
C2    C     C_R   0.557952 0.105835 0.582391 0.343417
C3    C     C_R   0.442424 0.203657 0.425237 -0.112868
C4    C     C_R   0.557839 0.205636 0.576060 -0.130098
C5    C     C_R   0.500268 0.053249 0.503703 -0.104858
C6    C     C_R   0.579864 0.895154 0.490403 -0.250626
C7    C     C_R   0.420760 0.895380 0.518122 -0.237821
C8    C     C_R   0.578266 0.795736 0.488640 0.009653
C9    C     C_R   0.422013 0.795975 0.515321 0.024674
C10   C     C_R   0.500370 0.946726 0.505083 0.188570
C11   C     C_R   0.503594 0.499873 0.259846 0.880118
C12   C     C_R   0.672196 0.499951 0.499456 0.856626
C13   C     C_R   0.502690 0.500091 0.740273 0.905945
C14   C     C_R   0.530025 0.584345 0.065008 -0.040243
C15   C     C_R   0.526811 0.584443 0.936885 -0.085941
C16   C     C_R   0.520016 0.499452 0.129078 -0.110914
C17   C     C_R   0.517840 0.499692 0.871359 -0.062240
C18   C     C_R   0.528270 0.413307 0.064366 -0.206999
C19   C     C_R   0.527617 0.413466 0.934813 -0.229889
C20   C     C_3   0.478925 0.678094 0.931193 0.235195
C21   C     C_3   0.483064 0.678300 0.075921 0.236600
C22   C     C_R   0.093088 0.583161 0.520085 -0.178925
C23   C     C_R   0.186381 0.417428 0.461011 -0.189450
C24   C     C_R   0.904337 0.575119 0.435985 -0.177597
C25   C     C_R   0.185023 0.583442 0.522185 -0.208386
C26   C     C_R   0.812413 0.575692 0.440683 -0.195519
C27   C     C_R   0.231737 0.500276 0.494149 -0.028071
C28   C     C_R   0.767732 0.499855 0.496007 -0.018912
C29   C     C_3   0.328836 0.617484 0.931571 0.065149
C30   C     C_3   0.262420 0.583869 0.832566 -0.295911
C31   C     C_3   0.189883 0.521930 0.889285 -0.966963
C32   C     C_3   0.618834 0.769169 0.080622 0.081195
C33   C     C_3   0.680226 0.810757 0.180799 -0.305667
C34   C     C_R   0.814609 0.423572 0.546868 -0.192440
C35   C     C_3   0.773111 0.830089 0.128858 -0.996553
C36   C     C_3   0.419941 0.034316 0.233305 0.079900
C37   C     C_3   0.354261 0.974267 0.157612 -0.297131
C38   C     C_3   0.391157 0.948049 0.028817 -0.963896
C39   C     C_3   0.587310 0.069565 0.786543 0.083928
C40   C     C_3   0.661609 0.037667 0.875075 -0.305021
C41   C     C_3   0.636388 0.053724 0.012188 -1.016538
C42   C     C_R   0.094443 0.417610 0.456865 -0.180972
C43   C     C_R   0.906561 0.423704 0.543933 -0.176837
C44   C     C_R   0.047737 0.500229 0.487511 0.114369
C45   C     C_R   0.951480 0.499412 0.488343 0.113434
C46   C     C_R   0.442103 0.103946 0.423553 0.333213
H1    H     H_    0.528233 0.345993 0.112591 0.165193
H2    H     H_    0.938571 0.633310 0.391225 0.131884
H3    H     H_    0.219333 0.648014 0.547904 0.144603
H4    H     H_    0.776323 0.634410 0.399686 0.142135
H5    H     H_    0.221810 0.352951 0.437373 0.155981
H6    H     H_    0.780254 0.364974 0.590581 0.149464
H7    H     H_    0.059825 0.353530 0.429677 0.134390
H8    H     H_    0.942565 0.365604 0.586521 0.133249
H9    H     H_    0.396565 0.242236 0.365964 0.153699
H10   H     H_    0.603607 0.245987 0.633597 0.151089
H11   H     H_    0.292401 0.660107 0.002819 0.140288
H12   H     H_    0.527776 0.346207 0.885734 0.160470
H13   H     H_    0.357849 0.553999 0.977248 0.133144
H14   H     H_    0.230938 0.646229 0.787276 0.221345
H15   H     H_    0.298512 0.542495 0.759887 0.219516
H16   H     H_    0.219791 0.458046 0.932821 0.264229
H17   H     H_    0.143058 0.499041 0.814389 0.276376
H18   H     H_    0.151995 0.562148 0.961348 0.264016
H19   H     H_    0.610981 0.822237 0.004818 0.132666
H20   H     H_    0.651625 0.704874 0.041942 0.141328
H21   H     H_    0.651126 0.877822 0.217166 0.220329
H22   H     H_    0.686148 0.759958 0.259514 0.217675
H23   H     H_    0.642766 0.931439 0.478673 0.166744
H24   H     H_    0.805141 0.762889 0.098608 0.267850
H25   H     H_    0.814958 0.863110 0.202907 0.265953
H26   H     H_    0.769355 0.878860 0.047692 0.271198
H27   H     H_    0.482510 0.992757 0.246232 0.153488
H28   H     H_    0.435047 0.100106 0.180228 0.132478
H29   H     H_    0.339357 0.908324 0.210013 0.231145
H30   H     H_    0.291051 0.014285 0.145198 0.221220
H31   H     H_    0.406504 0.012858 0.974487 0.250508
H32   H     H_    0.340949 0.905970 0.976305 0.275817
H33   H     H_    0.452382 0.904672 0.038687 0.289216
H34   H     H_    0.357943 0.931845 0.531243 0.168717
H35   H     H_    0.527658 0.024232 0.801328 0.147995
H36   H     H_    0.570030 0.144241 0.810506 0.122174
H37   H     H_    0.675787 0.961325 0.859447 0.214448
H38   H     H_    0.723152 0.078367 0.854431 0.229268
H39   H     H_    0.619754 0.129283 0.029271 0.265016
H40   H     H_    0.693265 0.034259 0.073518 0.276100
H41   H     H_    0.578458 0.009289 0.037495 0.267929
H42   H     H_    0.640101 0.757370 0.478174 0.120875
H43   H     H_    0.360233 0.757822 0.526257 0.127670
H44   H     H_    0.520977 0.732049 0.885055 0.110126
H45   H     H_    0.418023 0.671397 0.124165 0.106945
H46   H     H_    0.057452 0.647063 0.545722 0.131899
N1    N     N_R   0.500000 0.252470 0.500000 -0.130194
N2    N     N_R   0.500000 0.747550 0.500000 -0.079276
O1    O     O_R   0.369060 0.579480 0.500010 -0.633618
O2    O     O_3   0.534438 0.750866 0.135187 -0.627284
O3    O     O_3   0.380490 0.057143 0.349684 -0.647795
O4    O     O_3   0.617075 0.060123 0.661370 -0.644329
O5    O     O_R   0.630940 0.579480 0.499990 -0.640905
O6    O     O_R   0.369050 0.420520 0.500010 -0.618732
O7    O     O_R   0.630950 0.420520 0.499990 -0.620313
O8    O     O_R   0.499990 0.579490 0.316780 -0.593738
O9    O     O_R   0.500010 0.579490 0.683220 -0.585542
O10   O     O_R   0.499980 0.420540 0.316780 -0.626712
O11   O     O_R   0.500020 0.420540 0.683220 -0.637031
O12   O     O_3   0.393263 0.675455 0.872658 -0.622648
Zn1   Zn    Zn3+2 0.500000 0.606140 0.500000 0.971851
Zn2   Zn    Zn3+2 0.500000 0.393860 0.500000 0.935424

loop_
_geom_bond_atom_site_label_1
_geom_bond_atom_site_label_2
_ccdc_geom_bond_type
C7    C10   A    
C6    H23   S    
C40   H38   S    
C31   H16   S    
C18   H1    S    
C41   H40   S    
C29   C30   S    
C23   C42   A    
C12   C28   S    
C24   C45   A    
C14   C21   S    
C36   C37   S    
C24   C26   A    
C26   H4    S    
N1    Zn2   S    
C30   C31   S    
C38   H33   S    
C7    C9    A    
C18   C19   A    
C12   O5    A    
C17   C19   A    
C3    H9    S    
C22   C44   A    
C29   H13   S    
C35   H24   S    
C22   C25   A    
C30   H14   S    
C11   O10   A    
C23   C27   A    
C13   O9    A    
O7    Zn2   S    
C37   H29   S    
C28   C34   A    
C4    H10   S    
C40   H37   S    
C42   C44   A    
C1    O6    A    
C20   O12   S    
C19   H12   S    
C15   C20   S    
C41   H41   S    
O11   Zn2   S    
N2    Zn1   S    
O6    Zn2   S    
C24   H2    S    
C31   H17   S    
C8    N2    A    
C39   H35   S    
C13   O11   A    
C9    H43   S    
C39   C40   S    
C39   O4    S    
C6    C8    A    
C38   H32   S    
C21   O2    S    
C20   H44   S    
C8    H42   S    
C2    C4    A    
C37   C38   S    
C11   C16   S    
C43   H8    S    
C23   H5    S    
C1    O1    A    
O8    Zn1   S    
C3    N1    A    
C43   C45   A    
C36   O3    S    
O1    Zn1   S    
C40   C41   S    
C32   O2    S    
C46   O3    S    
C29   H11   S    
C35   H26   S    
C14   C16   A    
C29   O12   S    
C2    C5    A    
O10   Zn2   S    
O5    Zn1   S    
C44   C45   S    
C33   H21   S    
C32   H20   S    
C21   H45   S    
C15   C17   A    
C36   H28   S    
C34   H6    S    
C31   H18   S    
C37   H30   S    
C34   C43   A    
C39   H36   S    
C6    C10   A    
C38   H31   S    
C25   C27   A    
C41   H39   S    
C5    C46   A    
C3    C46   A    
C26   C28   A    
C13   C17   S    
C32   C33   S    
C12   O7    A    
C42   H7    S    
C33   C35   S    
C11   O8    A    
C25   H3    S    
C36   H27   S    
C35   H25   S    
C4    N1    A    
C5    C10   S    
C20   C21   S    
C2    O4    S    
C16   C18   A    
C30   H15   S    
C1    C27   S    
C22   H46   S    
C14   C15   A    
C7    H34   S    
O9    Zn1   S    
C9    N2    A    
C33   H22   S    
C32   H19   S    
