data_mof_unit_61829.cif
_audit_creation_date              2013-03-05T16:00:21-0500
_audit_creation_method            fapswitch 2.2
_symmetry_space_group_name_H-M    P1
_symmetry_Int_Tables_number       1
_space_group_crystal_system       triclinic
_cell_length_a                    42.653326
_cell_length_b                    29.424699
_cell_length_c                    29.41942
_cell_angle_alpha                 90.0
_cell_angle_beta                  133.878079
_cell_angle_gamma                 90.000069
_cell_volume                      26614.8281564

loop_
_atom_site_label
_atom_site_type_symbol
_atom_site_description
_atom_site_fract_x
_atom_site_fract_y
_atom_site_fract_z
_atom_type_partial_charge
O1    O     O_R   0.500410 0.561970 0.536310 -0.558093
O2    O     O_R   0.500410 0.438030 0.536310 -0.558089
O3    O     O_R   0.000410 0.061970 0.536310 -0.558092
O4    O     O_R   0.000410 0.938030 0.536310 -0.558089
O5    O     O_R   0.499540 0.561910 0.463710 -0.556878
O6    O     O_R   0.499540 0.438090 0.463710 -0.556878
O7    O     O_R   0.999540 0.061910 0.463710 -0.556878
O8    O     O_R   0.999540 0.938090 0.463710 -0.556878
C1    C     C_R   0.499989 0.585484 0.500007 0.825256
C2    C     C_R   0.499989 0.414516 0.500007 0.825247
C3    C     C_R   0.999989 0.085484 0.500007 0.825254
C4    C     C_R   0.999989 0.914516 0.500007 0.825249
O9    O     O_R   0.439190 0.500000 0.475090 -0.564975
O10   O     O_R   0.939190 1.000000 0.475090 -0.564975
O11   O     O_R   0.438320 0.500000 0.402480 -0.561999
O12   O     O_R   0.938320 1.000000 0.402480 -0.561999
C5    C     C_R   0.418331 0.499999 0.418519 0.850313
C6    C     C_R   0.918331 1.000000 0.418519 0.850313
Cu1   Cu    Cu3+1 0.500480 0.500000 0.542990 1.012614
Cu2   Cu    Cu3+1 0.000480 0.000000 0.542990 1.012614
Cu3   Cu    Cu3+1 0.499450 0.500000 0.457010 1.015589
Cu4   Cu    Cu3+1 0.999450 1.000000 0.457010 1.015589
O13   O     O_R   0.561610 0.500000 0.597520 -0.557011
O14   O     O_R   0.061610 1.000000 0.597520 -0.557010
O15   O     O_R   0.560740 0.500000 0.524910 -0.557246
O16   O     O_R   0.060740 1.000000 0.524910 -0.557246
C7    C     C_R   0.584604 0.500000 0.584487 0.801302
C8    C     C_R   0.084603 0.000000 0.584487 0.801302
C9    C     C_3   0.232437 0.537125 0.252547 0.484309
C10   C     C_3   0.232439 0.462707 0.252235 0.484308
C11   C     C_3   0.732438 0.037164 0.252475 0.484309
C12   C     C_3   0.732438 0.962746 0.252307 0.484305
C13   C     C_3   0.261535 0.537370 0.239132 0.483290
C14   C     C_3   0.261537 0.462825 0.238819 0.483274
C15   C     C_3   0.761535 0.037325 0.239060 0.483287
C16   C     C_3   0.761536 0.962780 0.238891 0.483278
C17   C     C_1   0.373472 0.500002 0.373926 -0.116660
C18   C     C_1   0.873472 0.000001 0.373926 -0.116660
C19   C     C_1   0.120285 0.500001 0.119578 -0.106676
C20   C     C_1   0.620285 0.000000 0.119577 -0.106676
C21   C     C_3   0.260752 0.499825 0.302681 0.454052
C22   C     C_3   0.760752 0.999905 0.302682 0.454054
C23   C     C_3   0.289525 0.500006 0.288968 -0.394943
C24   C     C_3   0.789525 0.000003 0.288968 -0.394944
C25   C     C_3   0.204243 0.500007 0.202248 -0.403394
C26   C     C_3   0.704243 0.000004 0.202248 -0.403394
C27   C     C_3   0.233299 0.500187 0.189179 0.097115
C28   C     C_3   0.733299 0.000101 0.189179 0.097117
C29   C     C_1   0.335332 0.500004 0.335542 0.244382
C30   C     C_1   0.835332 0.000002 0.335542 0.244382
C31   C     C_1   0.158414 0.500003 0.156990 0.257965
C32   C     C_1   0.658414 0.000002 0.156990 0.257965
C33   C     C_1   0.499977 0.636533 0.499967 -0.178597
C34   C     C_1   0.499977 0.363467 0.499967 -0.178608
C35   C     C_1   0.999977 0.136533 0.499967 -0.178600
C36   C     C_1   0.999977 0.863467 0.499967 -0.178605
C37   C     C_1   0.499969 0.678855 0.499953 0.026235
C38   C     C_1   0.499969 0.321144 0.499953 0.026223
C39   C     C_1   0.999968 0.178856 0.499953 0.026231
C40   C     C_1   0.999969 0.821144 0.499953 0.026226
C41   C     C_1   0.499961 0.729022 0.499951 0.026208
C42   C     C_1   0.499961 0.270978 0.499951 0.026200
C43   C     C_1   0.999961 0.229022 0.499951 0.026205
C44   C     C_1   0.999961 0.770978 0.499951 0.026203
C45   C     C_1   0.499957 0.771344 0.499954 0.024006
C46   C     C_1   0.499957 0.228656 0.499954 0.024001
C47   C     C_1   0.999957 0.271344 0.499954 0.024003
C48   C     C_1   0.999957 0.728656 0.499954 0.024003
C49   C     C_1   0.499954 0.821511 0.499962 0.020650
C50   C     C_1   0.499954 0.178489 0.499962 0.020647
C51   C     C_1   0.999954 0.321511 0.499962 0.020648
C52   C     C_1   0.999954 0.678489 0.499962 0.020649
C53   C     C_1   0.499953 0.863833 0.499971 -0.181536
C54   C     C_1   0.499953 0.136167 0.499971 -0.181537
C55   C     C_1   0.999953 0.363833 0.499971 -0.181538
C56   C     C_1   0.999953 0.636167 0.499971 -0.181536
C57   C     C_1   0.635095 0.500000 0.634743 -0.188960
C58   C     C_1   0.135095 1.000000 0.634743 -0.188960
C59   C     C_1   0.676569 0.500000 0.676203 0.025444
C60   C     C_1   0.176569 1.000000 0.676203 0.025444
C61   C     C_1   0.726142 0.500000 0.725847 0.014735
C62   C     C_1   0.226142 1.000000 0.725847 0.014735
C63   C     C_1   0.767617 0.500000 0.767406 0.014738
C64   C     C_1   0.267617 1.000000 0.767406 0.014738
C65   C     C_1   0.817191 0.500000 0.817090 0.025438
C66   C     C_1   0.317191 1.000000 0.817090 0.025438
C67   C     C_1   0.858665 0.500000 0.858655 -0.189146
C68   C     C_1   0.358665 1.000000 0.858655 -0.189146
O17   O     O_R   0.994560 0.535840 0.056620 -0.557753
O18   O     O_R   0.994560 0.464160 0.056620 -0.557758
O19   O     O_R   0.494560 0.035840 0.056620 -0.557754
O20   O     O_R   0.494560 0.964160 0.056620 -0.557756
C69   C     C_R   0.994838 0.500000 0.080444 0.824497
C70   C     C_R   0.494838 1.000000 0.080444 0.824497
O21   O     O_R   0.055010 0.535850 0.055100 -0.563881
O22   O     O_R   0.055010 0.464150 0.055100 -0.563914
O23   O     O_R   0.555010 0.035850 0.055100 -0.563889
O24   O     O_R   0.555010 0.964150 0.055100 -0.563907
C71   C     C_R   0.075438 0.500000 0.075483 0.850802
C72   C     C_R   0.575438 1.000000 0.075483 0.850802
Cu5   Cu    Cu3+1 0.993800 0.542460 0.993900 1.014906
Cu6   Cu    Cu3+1 0.993800 0.457540 0.993900 1.014874
Cu7   Cu    Cu3+1 0.493800 0.042460 0.993900 1.014898
Cu8   Cu    Cu3+1 0.493800 0.957540 0.993900 1.014882
O25   O     O_R   0.993040 0.535870 0.931160 -0.557372
O26   O     O_R   0.993040 0.464130 0.931160 -0.557397
O27   O     O_R   0.493040 0.035870 0.931160 -0.557378
O28   O     O_R   0.493040 0.964130 0.931160 -0.557392
O29   O     O_R   0.932590 0.535860 0.932690 -0.557132
O30   O     O_R   0.932590 0.464140 0.932690 -0.557130
O31   O     O_R   0.432590 0.035860 0.932690 -0.557132
O32   O     O_R   0.432590 0.964140 0.932690 -0.557130
C73   C     C_R   0.993232 0.500000 0.907797 0.827579
C74   C     C_R   0.493232 0.000000 0.907797 0.827579
C75   C     C_R   0.909159 0.500000 0.909244 0.801586
C76   C     C_R   0.409159 1.000000 0.909244 0.801586
O33   O     O_R   0.463790 1.000000 0.401850 -0.555525
O34   O     O_R   0.963790 0.500000 0.401850 -0.555525
O35   O     O_R   0.534640 1.000000 0.472710 -0.554699
O36   O     O_R   0.034640 0.500000 0.472710 -0.554699
C77   C     C_R   0.499086 0.000000 0.414040 0.812573
C78   C     C_R   0.999086 0.500000 0.414040 0.812573
O37   O     O_R   0.464530 0.938000 0.464560 -0.554597
O38   O     O_R   0.464530 0.062000 0.464560 -0.554600
O39   O     O_R   0.964530 0.438000 0.464560 -0.554597
O40   O     O_R   0.964530 0.562000 0.464560 -0.554599
O41   O     O_R   0.535390 0.937990 0.535420 -0.555536
O42   O     O_R   0.535390 0.062010 0.535420 -0.555534
O43   O     O_R   0.035390 0.437990 0.535420 -0.555537
O44   O     O_R   0.035390 0.562010 0.535420 -0.555534
C79   C     C_R   0.499957 0.914882 0.499985 0.812417
C80   C     C_R   0.499957 0.085118 0.499985 0.812418
C81   C     C_R   0.999957 0.414882 0.499985 0.812416
C82   C     C_R   0.999957 0.585118 0.499985 0.812419
Cu9   Cu    Cu3+1 0.458020 1.000000 0.458050 0.995080
Cu10  Cu    Cu3+1 0.958020 0.500000 0.458050 0.995080
Cu11  Cu    Cu3+1 0.541920 1.000000 0.541950 0.996287
Cu12  Cu    Cu3+1 0.041920 0.500000 0.541950 0.996287
O45   O     O_R   0.465290 1.000000 0.527290 -0.556262
O46   O     O_R   0.965290 0.500000 0.527290 -0.556262
O47   O     O_R   0.536150 1.000000 0.598150 -0.553365
O48   O     O_R   0.036150 0.500000 0.598150 -0.553365
C83   C     C_R   0.500760 1.000000 0.585889 0.812269
C84   C     C_R   0.000760 0.500000 0.585889 0.812269
C85   C     C_1   0.995585 0.500000 0.132229 -0.179020
C86   C     C_1   0.495585 1.000000 0.132229 -0.179020
C87   C     C_1   0.996216 0.500000 0.175178 0.025625
C88   C     C_1   0.496216 1.000000 0.175178 0.025625
C89   C     C_1   0.996961 0.500000 0.226080 0.025930
C90   C     C_1   0.496961 1.000000 0.226080 0.025930
C91   C     C_1   0.497571 1.000000 0.269008 0.023853
C92   C     C_1   0.997571 0.500000 0.269008 0.023853
C93   C     C_1   0.498246 0.000000 0.319841 0.020426
C94   C     C_1   0.998246 0.500000 0.319841 0.020426
C95   C     C_1   0.498726 0.000000 0.362640 -0.181803
C96   C     C_1   0.998726 0.500000 0.362640 -0.181803
C97   C     C_1   0.994246 0.500000 0.857748 -0.174641
C98   C     C_1   0.494246 1.000000 0.857748 -0.174641
C99   C     C_1   0.995412 0.500000 0.816594 0.029893
C100  C     C_1   0.495412 1.000000 0.816594 0.029893
C101  C     C_1   0.996948 0.500000 0.767967 0.028684
C102  C     C_1   0.496948 0.000000 0.767967 0.028684
C103  C     C_1   0.498242 0.000000 0.726946 0.025628
C104  C     C_1   0.998242 0.500000 0.726946 0.025628
C105  C     C_1   0.499642 1.000000 0.678177 0.021854
C106  C     C_1   0.999642 0.500000 0.678177 0.021853
C107  C     C_1   0.500509 1.000000 0.636715 -0.181145
C108  C     C_1   0.000509 0.500000 0.636715 -0.181145
F1    F     F_    0.277305 0.575580 0.233146 -0.559252
F2    F     F_    0.277310 0.424803 0.232513 -0.559237
F3    F     F_    0.777306 0.075492 0.233000 -0.559249
F4    F     F_    0.777308 0.924714 0.232658 -0.559241
F5    F     F_    0.216688 0.575211 0.258782 -0.559685
F6    F     F_    0.216693 0.424435 0.258148 -0.559670
F7    F     F_    0.716690 0.075293 0.258636 -0.559683
F8    F     F_    0.716692 0.924516 0.258294 -0.559673
N1    N     N_R   0.218883 0.500386 0.127520 0.215866
O49   O     O_R   0.247471 0.500525 0.123681 -0.246290
O50   O     O_R   0.177662 0.500425 0.076217 -0.324152
N2    N     N_R   0.718884 0.000208 0.127519 0.215865
O51   O     O_R   0.747471 0.000282 0.123680 -0.246291
O52   O     O_R   0.677662 0.000232 0.076217 -0.324152
F9    F     F_    0.275868 0.499638 0.362131 -0.558011
F10   F     F_    0.775868 0.999805 0.362131 -0.558011

loop_
_geom_bond_atom_site_label_1
_geom_bond_atom_site_label_2
_geom_bond_distance
_ccdc_geom_bond_type
C38   C42   1.476134 S    
C19   C31   1.172593 T    
C53   C79   1.502090 S    
C70   C86   1.501588 S    
Cu5   Cu6   2.498748 S    
C11   C22   1.539246 S    
O22   Cu6   1.891961 S    
C15   F3    1.382679 S    
C35   C39   1.245327 T    
O10   C6    1.228312 A    
C10   C25   1.536833 S    
C28   N2    1.456862 S    
C52   C56   1.245327 T    
C13   F1    1.382682 S    
C101  C104  1.245708 T    
C3    C35   1.502093 S    
C11   F7    1.382582 S    
O7    C3    1.262333 A    
C12   F8    1.382585 S    
Cu3   O15   1.893494 S    
C84   C108  1.502715 S    
C12   C16   1.541158 S    
O25   C73   1.262640 A    
Cu1   Cu3   2.499228 S    
C64   C66   1.524153 S    
O29   C75   1.277641 A    
C54   C80   1.502090 S    
O47   C83   1.286040 A    
C58   C60   1.275134 T    
O32   C76   1.277641 A    
C12   C26   1.536834 S    
C25   C31   1.409217 S    
O21   C71   1.227704 A    
Cu5   O29   1.891926 S    
O22   C71   1.227703 A    
C9    C13   1.541153 S    
O38   C80   1.284199 A    
Cu7   O31   1.891926 S    
O34   C78   1.283217 A    
O28   C74   1.262643 A    
C37   C41   1.476134 S    
O33   C77   1.283217 A    
C74   C98   1.502732 S    
C24   C30   1.408446 S    
C85   C87   1.245025 T    
O45   C83   1.282686 A    
C98   C100  1.245709 T    
O2    C2    1.262181 A    
O18   Cu6   1.833246 S    
O43   Cu12  1.835640 S    
Cu2   O14   1.890388 S    
O36   C78   1.284679 A    
N1    O50   1.300247 A    
C11   C26   1.536838 S    
C50   C54   1.245327 T    
O8    Cu4   1.832036 S    
C99   C101  1.476756 S    
C10   C21   1.539246 S    
C69   C85   1.501588 S    
O31   C76   1.277641 A    
O13   C7    1.276781 A    
O8    C4    1.262333 A    
O4    C4    1.262181 A    
C8    C58   1.552447 S    
C94   C96   1.245027 T    
C14   F2    1.382679 S    
Cu10  O46   1.835728 S    
O17   Cu5   1.833246 S    
C57   C59   1.275134 T    
O40   Cu10  1.835278 S    
C97   C99   1.245709 T    
C106  C108  1.245714 T    
C21   C23   1.534705 S    
C105  C107  1.245714 T    
O44   C82   1.284182 A    
C1    C33   1.502093 S    
C22   C24   1.534706 S    
C15   C28   1.534171 S    
O42   C80   1.284182 A    
C61   C63   1.275166 T    
N2    O52   1.300249 A    
C86   C88   1.245025 T    
C25   C27   1.531124 S    
Cu5   O25   1.833737 S    
C43   C47   1.245315 T    
O1    Cu1   1.833786 S    
C16   F4    1.382676 S    
C10   C14   1.541156 S    
C66   C68   1.275134 T    
O35   Cu11  1.835472 S    
O10   Cu2   1.893489 S    
C42   C46   1.245315 T    
O1    C1    1.262181 A    
C60   C62   1.524150 S    
Cu12  O48   1.832564 S    
C89   C92   1.245015 T    
O19   Cu7   1.833246 S    
Cu8   O32   1.891926 S    
O9    Cu1   1.893489 S    
C23   C29   1.408446 S    
O26   C73   1.262643 A    
C22   F10   1.382546 S    
C20   C32   1.172593 T    
O6    Cu3   1.832036 S    
O37   C79   1.284202 A    
C36   C40   1.245327 T    
O37   Cu9   1.835278 S    
C100  C102  1.476756 S    
C68   C76   1.552449 S    
Cu1   O13   1.890388 S    
O42   Cu11  1.835638 S    
O27   C74   1.262640 A    
O5    C1    1.262333 A    
C17   C29   1.172618 T    
C19   C71   1.379122 S    
C78   C96   1.501585 S    
C48   C52   1.476134 S    
O24   Cu8   1.891961 S    
O20   C70   1.261750 A    
O3    Cu2   1.833786 S    
C5    C17   1.379271 S    
C49   C53   1.245327 T    
C15   C24   1.535296 S    
C83   C107  1.502715 S    
O23   Cu7   1.891961 S    
O35   C77   1.284679 A    
O43   C81   1.284180 A    
C88   C90   1.475654 S    
C56   C82   1.502090 S    
Cu10  Cu12  2.579552 S    
C63   C65   1.524153 S    
C92   C94   1.475650 S    
C62   C64   1.275166 T    
C13   C27   1.534168 S    
O14   C8    1.276781 A    
C11   C15   1.541151 S    
C39   C43   1.476134 S    
C16   C24   1.535300 S    
C93   C95   1.245027 T    
Cu2   Cu4   2.499228 S    
O36   Cu12  1.835472 S    
O44   Cu12  1.835638 S    
C44   C48   1.245315 T    
Cu8   O28   1.833737 S    
O23   C72   1.227704 A    
O34   Cu10  1.832560 S    
N2    O51   1.300170 A    
O39   Cu10  1.835278 S    
O18   C69   1.261750 A    
C59   C61   1.524150 S    
C102  C103  1.245708 T    
C34   C38   1.245327 T    
O39   C81   1.284202 A    
Cu9   Cu11  2.579552 S    
Cu11  O47   1.832564 S    
O12   Cu4   1.890387 S    
C77   C95   1.501585 S    
O38   Cu9   1.835278 S    
C9    C21   1.539244 S    
O2    Cu1   1.833789 S    
C67   C75   1.552449 S    
C14   C23   1.535299 S    
O46   C84   1.282686 A    
C9    F5    1.382586 S    
C7    C57   1.552447 S    
C33   C37   1.245327 T    
C20   C72   1.379122 S    
C55   C81   1.502090 S    
O11   C5    1.227720 A    
C18   C30   1.172617 T    
O15   C7    1.278659 A    
O7    Cu4   1.832033 S    
C87   C89   1.475654 S    
Cu9   O45   1.835728 S    
O16   C8    1.278659 A    
O9    C5    1.228312 A    
C40   C44   1.476134 S    
C104  C106  1.476758 S    
C6    C18   1.379271 S    
C27   N1    1.456865 S    
C26   C32   1.409217 S    
C51   C55   1.245327 T    
C46   C50   1.476134 S    
Cu6   O30   1.891926 S    
C45   C49   1.476134 S    
C4    C36   1.502093 S    
C16   C28   1.534168 S    
C47   C51   1.476134 S    
C91   C93   1.475650 S    
O17   C69   1.261748 A    
C2    C34   1.502093 S    
O24   C72   1.227703 A    
O41   C79   1.284180 A    
O3    C3    1.262181 A    
O6    C2    1.262333 A    
O20   Cu8   1.833246 S    
O4    Cu2   1.833789 S    
C26   C28   1.531126 S    
C41   C45   1.245315 T    
C65   C67   1.275134 T    
O11   Cu3   1.890387 S    
O5    Cu3   1.832033 S    
O40   C82   1.284199 A    
O12   C6    1.227720 A    
N1    O49   1.300177 A    
Cu4   O16   1.893494 S    
Cu6   O26   1.833737 S    
C9    C25   1.536839 S    
Cu7   Cu8   2.498748 S    
C12   C22   1.539244 S    
C90   C91   1.245015 T    
C21   F9    1.382548 S    
C103  C105  1.476758 S    
Cu7   O27   1.833737 S    
C14   C27   1.534170 S    
O41   Cu11  1.835640 S    
C73   C97   1.502732 S    
C13   C23   1.535296 S    
O30   C75   1.277641 A    
C10   F6    1.382582 S    
O48   C84   1.286040 A    
O21   Cu5   1.891961 S    
O19   C70   1.261748 A    
O33   Cu9   1.832560 S    
