data_mof_unit_11388.cif
_audit_creation_date              2012-12-10T16:57:40-0500
_audit_creation_method            fapswitch 2.2
_symmetry_space_group_name_H-M    P1
_symmetry_Int_Tables_number       1
_space_group_crystal_system       triclinic
_cell_length_a                    7.76072
_cell_length_b                    8.56926
_cell_length_c                    18.947517
_cell_angle_alpha                 90.963028
_cell_angle_beta                  85.382785
_cell_angle_gamma                 93.739101
_cell_volume                      1253.23114214

loop_
_atom_site_label
_atom_site_type_symbol
_atom_type_description
_atom_site_fract_x
_atom_site_fract_y
_atom_site_fract_z
_atom_type_partial_charge
C1    C     C_R   0.545907 0.794822 0.498163 0.968647
C2    C     C_R   0.567321 0.323329 0.182322 -0.246877
C3    C     C_R   0.455738 0.389324 0.852495 -0.007276
C4    C     C_R   0.450051 0.403710 0.146567 -0.011643
C5    C     C_R   0.572155 0.311604 0.805273 0.244056
C6    C     C_R   0.350650 0.516922 0.182842 0.252760
C7    C     C_R   0.593549 0.357283 0.734608 -0.298149
C8    C     C_R   0.369005 0.544923 0.254625 -0.295304
C9    C     C_R   0.497300 0.475575 0.710527 -0.141145
C10   C     C_R   0.488141 0.465806 0.289836 -0.150986
C11   C     C_R   0.442518 0.374401 0.070770 0.304025
C12   C     C_R   0.454098 0.205182 0.501822 0.970654
C13   C     C_R   0.444886 0.362363 0.928482 0.303272
C14   C     C_3   0.563990 0.039299 0.836311 -0.694393
C15   C     C_3   0.320031 0.742843 0.112070 -0.726799
C16   C     C_2   0.570089 0.958336 0.497061 -0.339192
C17   C     C_2   0.429930 0.041682 0.502885 -0.345114
C18   C     C_R   0.501179 0.500085 0.634799 0.924835
C19   C     C_R   0.497553 0.493668 0.365347 0.923741
C20   C     C_R   0.382149 0.553178 0.757853 0.380808
C21   C     C_R   0.587116 0.353066 0.253476 0.385333
C22   C     C_R   0.361970 0.509353 0.828259 -0.246346
Cl1   Cl    Cl    0.265708 0.709795 0.731888 -0.639961
Cl2   Cl    Cl    0.729133 0.238286 0.295200 -0.621646
H1    H     H_    0.276319 0.572952 0.864628 0.195459
H2    H     H_    0.644176 0.950415 0.857044 0.245369
H3    H     H_    0.520473 0.997564 0.784388 0.261898
H4    H     H_    0.449255 0.051967 0.874458 0.247239
H5    H     H_    0.126813 0.633148 0.178593 0.241442
H6    H     H_    0.224383 0.800884 0.082660 0.247891
H7    H     H_    0.427241 0.709175 0.073570 0.248462
H8    H     H_    0.372135 0.827170 0.151495 0.239077
H9    H     H_    0.643056 0.235653 0.154895 0.194106
H10   H     H_    0.679127 0.294835 0.697696 0.173109
H11   H     H_    0.292675 0.631453 0.282647 0.174941
H12   H     H_    0.702383 0.009580 0.491461 0.188125
H13   H     H_    0.297635 0.990444 0.508473 0.184327
H14   H     H_    0.013691 0.381811 0.447229 0.214451
H15   H     H_    0.986303 0.618194 0.552764 0.210024
H16   H     H_    0.782341 0.173771 0.799015 0.239651
N1    N     N_R   0.589883 0.336227 0.960569 -0.128132
N2    N     N_R   0.295522 0.393672 0.038815 -0.125089
N3    N     N_R   0.588538 0.341637 0.030614 -0.169217
N4    N     N_R   0.296891 0.388455 0.968753 -0.168820
N5    N     N_2   0.950330 0.457950 0.481240 -0.165459
N6    N     N_2   0.049670 0.542050 0.518760 -0.168220
N7    N     N_2   0.665611 0.186445 0.827997 -0.300056
N8    N     N_2   0.236392 0.606398 0.147409 -0.289852
O1    O     O_R   0.389250 0.738570 0.504600 -0.604744
O2    O     O_R   0.610750 0.261430 0.495400 -0.599444
O3    O     O_R   0.678400 0.711620 0.492580 -0.631178
O4    O     O_R   0.321600 0.288380 0.507420 -0.634203
O5    O     O_R   0.355380 0.513500 0.607880 -0.566666
O6    O     O_R   0.644620 0.486500 0.392120 -0.563168
O7    O     O_R   0.644530 0.486550 0.595850 -0.635087
O8    O     O_R   0.355470 0.513450 0.404150 -0.631690
Zn1   Zn    Zn3+2 0.306930 0.517990 0.508030 0.989644
Zn2   Zn    Zn3+2 0.693070 0.482010 0.491970 0.992512

loop_
_geom_bond_atom_site_label_1
_geom_bond_atom_site_label_2
_ccdc_geom_bond_type
C19   O8    A    
C12   C17   S    
H16   N7    S    
C2    C4    A    
N2    N4    A    
C15   H7    S    
C14   N7    S    
C14   H3    S    
N1    N3    A    
C9    C20   A    
C12   O2    A    
C3    C13   S    
C20   Cl1   S    
C10   C19   S    
C2    C21   A    
C13   N1    A    
C15   H8    S    
C10   C21   A    
C1    C16   S    
C17   H13   S    
N5    N6    D    
C16   H12   S    
C4    C11   S    
C11   N3    A    
C1    O3    A    
C6    N8    S    
C18   O7    A    
C11   N2    A    
H15   N6    S    
C15   N8    S    
C2    H9    S    
C4    C6    A    
C12   O4    A    
C20   C22   A    
C5    C7    A    
N6    Zn1   S    
C7    H10   S    
N5    Zn2   S    
O7    Zn2   S    
O4    Zn1   S    
H5    N8    S    
C5    N7    S    
C3    C5    A    
C9    C18   S    
O1    Zn1   S    
O8    Zn1   S    
C19   O6    A    
C15   H6    S    
C8    C10   A    
O6    Zn2   S    
C21   Cl2   S    
O3    Zn2   S    
C7    C9    A    
O5    Zn1   S    
H14   N5    S    
C6    C8    A    
C18   O5    A    
C14   H4    S    
C1    O1    A    
C8    H11   S    
C13   N4    A    
C14   H2    S    
C16   C17   D    
C3    C22   A    
C22   H1    S    
O2    Zn2   S    
