data_mof_unit_6375.cif
_audit_creation_date              2012-12-10T17:17:26-0500
_audit_creation_method            fapswitch 2.2
_symmetry_space_group_name_H-M    P1
_symmetry_Int_Tables_number       1
_space_group_crystal_system       triclinic
_cell_length_a                    10.193445
_cell_length_b                    10.835118
_cell_length_c                    12.302469
_cell_angle_alpha                 90.643968
_cell_angle_beta                  109.30453
_cell_angle_gamma                 95.999682
_cell_volume                      1273.83271252

loop_
_atom_site_label
_atom_site_type_symbol
_atom_type_description
_atom_site_fract_x
_atom_site_fract_y
_atom_site_fract_z
_atom_type_partial_charge
C1    C     C_R   0.053591 0.732593 0.495545 0.940665
C2    C     C_R   0.207957 0.528243 0.837629 -0.115920
C3    C     C_2   0.089625 0.865385 0.502405 -0.385549
C4    C     C_R   0.135242 0.516549 0.713794 0.854903
C5    C     C_2   0.007892 0.936249 0.534276 -0.145263
C6    C     C_2   0.926728 0.136553 0.525628 -0.383278
C7    C     C_2   0.030177 0.068315 0.531086 -0.143279
C8    C     C_2   0.432454 0.512222 0.508552 -0.122931
C9    C     C_2   0.567259 0.488852 0.490084 -0.128543
C10   C     C_R   0.949847 0.267815 0.510349 0.950523
C11   C     C_R   0.866215 0.489317 0.286094 0.874332
C12   C     C_R   0.428389 0.527490 0.992421 0.087684
C13   C     C_R   0.793483 0.598749 0.987772 -0.202081
C14   C     C_R   0.797532 0.501351 0.164056 -0.055735
C15   C     C_R   0.134968 0.489029 0.912142 -0.195506
C16   C     C_R   0.207542 0.473847 0.027472 -0.152339
C17   C     C_R   0.353053 0.489926 0.067309 -0.187187
C18   C     C_R   0.353679 0.561152 0.880776 0.092539
C19   C     C_R   0.575289 0.532605 0.024354 0.082712
C20   C     C_R   0.646915 0.589465 0.953211 0.181797
C21   C     C_R   0.571370 0.638492 0.850189 -0.256509
C22   C     C_R   0.426314 0.624686 0.814291 -0.205684
C23   C     C_R   0.652827 0.480817 0.124747 -0.251831
C24   C     C_R   0.869117 0.557203 0.094653 -0.205939
H1    H     H_    0.982179 0.574888 0.125567 0.155297
H2    H     H_    0.849339 0.643070 0.934796 0.139867
H3    H     H_    0.603096 0.428591 0.177532 0.138852
H4    H     H_    0.022385 0.465822 0.880399 0.161915
H5    H     H_    0.403491 0.475201 0.157445 0.128958
H6    H     H_    0.151278 0.443963 0.085104 0.144652
H7    H     H_    0.371398 0.665533 0.734542 0.155347
H8    H     H_    0.130174 0.108796 0.526026 0.190176
H9    H     H_    0.917767 0.896972 0.556328 0.187618
H10   H     H_    0.826948 0.095629 0.530597 0.149667
H11   H     H_    0.179470 0.905086 0.480329 0.150207
H12   H     H_    0.564826 0.415476 0.428443 0.156217
H13   H     H_    0.434704 0.586797 0.568852 0.158863
H14   H     H_    0.684479 0.622231 0.602982 0.153531
H15   H     H_    0.315747 0.376607 0.398177 0.155961
H16   H     H_    0.624216 0.685839 0.796495 0.133970
N1    N     N_2   0.313640 0.446500 0.454900 -0.193378
N2    N     N_2   0.686360 0.553430 0.545150 -0.189691
O1    O     O_R   0.936910 0.692950 0.509080 -0.607043
O2    O     O_R   0.138320 0.658600 0.480130 -0.617085
O3    O     O_R   0.002900 0.525670 0.675280 -0.612909
O4    O     O_R   0.204310 0.491320 0.646330 -0.602496
O5    O     O_R   0.861680 0.341400 0.519870 -0.609339
O6    O     O_R   0.063090 0.307050 0.490920 -0.606583
O7    O     O_R   0.795690 0.508680 0.353670 -0.605717
O8    O     O_R   0.997100 0.474330 0.324720 -0.613935
Zn1   Zn    Zn3+2 0.865520 0.522940 0.519330 0.935531
Zn2   Zn    Zn3+2 0.134480 0.477060 0.480670 0.933964

loop_
_geom_bond_atom_site_label_1
_geom_bond_atom_site_label_2
_ccdc_geom_bond_type
C12   C17   A    
C6    C10   S    
C9    H12   S    
C2    C4    S    
C6    C7    D    
C11   O7    A    
C23   H3    S    
C2    C18   A    
C17   H5    S    
N1    Zn2   S    
C19   C23   A    
C19   C20   A    
C3    H11   S    
N2    Zn1   S    
C3    C5    D    
O2    Zn2   S    
C12   C18   A    
C15   H4    S    
C8    N1    D    
H15   N1    S    
C11   O8    A    
C4    O4    A    
C21   C22   A    
C20   C21   A    
C2    C15   A    
O1    Zn1   S    
C9    N2    D    
C21   H16   S    
C12   C19   A    
C14   C23   A    
H14   N2    S    
C4    O3    A    
C10   O6    A    
C11   C14   S    
C13   H2    S    
C10   O5    A    
C22   H7    S    
O3    Zn1   S    
C16   H6    S    
C15   C16   A    
O4    Zn2   S    
O6    Zn2   S    
C24   H1    S    
C8    H13   S    
C14   C24   A    
O8    Zn2   S    
C5    C7    S    
C16   C17   A    
O5    Zn1   S    
C7    H8    S    
C1    O2    A    
C13   C20   A    
O7    Zn1   S    
C18   C22   A    
C1    O1    A    
C6    H10   S    
C13   C24   A    
C8    C9    S    
C1    C3    S    
C5    H9    S    
