data_mof_unit_61526.cif
_audit_creation_date              2012-12-10T18:17:33-0500
_audit_creation_method            fapswitch 2.2
_symmetry_space_group_name_H-M    P1
_symmetry_Int_Tables_number       1
_space_group_crystal_system       triclinic
_cell_length_a                    29.177292
_cell_length_b                    29.177308
_cell_length_c                    47.175463
_cell_angle_alpha                 90.0
_cell_angle_beta                  89.999984
_cell_angle_gamma                 89.999973
_cell_volume                      40161.1715136

loop_
_atom_site_label
_atom_site_type_symbol
_atom_type_description
_atom_site_fract_x
_atom_site_fract_y
_atom_site_fract_z
_atom_type_partial_charge
Br1   Br    Br    0.074635 0.567183 0.083308 -0.451768
Br2   Br    Br    0.932768 0.574597 0.583313 -0.452165
Br3   Br    Br    0.425396 0.932781 0.583310 -0.451301
Br4   Br    Br    0.067232 0.425403 0.583312 -0.452165
Br5   Br    Br    0.574612 0.932784 0.416689 -0.452375
Br6   Br    Br    0.932758 0.425411 0.416687 -0.452170
Br7   Br    Br    0.425389 0.067215 0.416689 -0.452375
Br8   Br    Br    0.067242 0.574589 0.416687 -0.452170
Br9   Br    Br    0.432781 0.074605 0.083310 -0.451552
Br10  Br    Br    0.925365 0.432817 0.083308 -0.451768
Br11  Br    Br    0.567218 0.925395 0.083310 -0.451551
Br12  Br    Br    0.074623 0.432802 0.916691 -0.451758
Br13  Br    Br    0.432794 0.925380 0.916689 -0.452617
Br14  Br    Br    0.925377 0.567198 0.916691 -0.451757
Br15  Br    Br    0.567206 0.074620 0.916689 -0.452617
Br16  Br    Br    0.574604 0.067219 0.583310 -0.451302
C1    C     C_R   0.086733 0.500000 0.000000 0.927647
C2    C     C_R   0.500000 0.000000 0.086931 -0.204630
C3    C     C_R   0.962803 0.482788 0.809444 0.528777
C4    C     C_R   0.517190 0.037207 0.190556 0.528767
C5    C     C_R   0.037193 0.482781 0.190556 0.528762
C6    C     C_R   0.482810 0.962794 0.190556 0.528766
C7    C     C_R   0.962807 0.517219 0.190556 0.528763
C8    C     C_R   0.961931 0.517400 0.279839 -0.027300
C9    C     C_R   0.482630 0.961918 0.279840 -0.027295
C10   C     C_R   0.038069 0.482599 0.279839 -0.027300
C11   C     C_R   0.517371 0.038082 0.279840 -0.027296
C12   C     C_R   0.961928 0.482606 0.720160 -0.027276
C13   C     C_R   1.000000 0.500000 0.913069 -0.204612
C14   C     C_R   0.461947 0.017424 0.720218 -0.026622
C15   C     C_R   0.038072 0.517393 0.720160 -0.027276
C16   C     C_R   0.538053 0.982576 0.720218 -0.026623
C17   C     C_R   0.461914 0.017362 0.779840 -0.027259
C18   C     C_R   0.961961 0.482544 0.779782 -0.026626
C19   C     C_R   0.538086 0.982638 0.779840 -0.027259
C20   C     C_R   0.038039 0.517455 0.779782 -0.026624
C21   C     C_R   0.482568 0.961951 0.220218 -0.026648
C22   C     C_R   0.961964 0.517462 0.220218 -0.026647
C23   C     C_R   0.517433 0.038049 0.220218 -0.026648
C24   C     C_R   0.500000 1.000000 0.913069 -0.204498
C25   C     C_R   0.038035 0.482538 0.220218 -0.026648
C26   C     C_R   1.000000 0.500000 0.264952 -0.015491
C27   C     C_R   0.500000 0.000000 0.264952 -0.015490
C28   C     C_R   1.000000 0.499999 0.735048 -0.015485
C29   C     C_R   0.500000 1.000000 0.735105 -0.015536
C30   C     C_R   0.500000 1.000000 0.764953 -0.015484
C31   C     C_R   1.000000 0.499999 0.764895 -0.015536
C32   C     C_R   0.500000 0.000000 0.235105 -0.015540
C33   C     C_R   0.000000 0.500000 0.235105 -0.015541
C34   C     C_R   0.924187 0.534724 0.264798 -0.140413
C35   C     C_R   0.500000 0.000000 0.586931 -0.204648
C36   C     C_R   0.465336 0.924160 0.264799 -0.140420
C37   C     C_R   0.075813 0.465275 0.264798 -0.140414
C38   C     C_R   0.534665 0.075840 0.264799 -0.140421
C39   C     C_R   0.924180 0.465289 0.735201 -0.140426
C40   C     C_R   0.424177 0.034697 0.735260 -0.140447
C41   C     C_R   0.075819 0.534710 0.735201 -0.140427
C42   C     C_R   0.575823 0.965303 0.735260 -0.140448
C43   C     C_R   0.424152 0.034647 0.764799 -0.140457
C44   C     C_R   0.924205 0.465240 0.764740 -0.140466
C45   C     C_R   0.575848 0.965352 0.764799 -0.140456
C46   C     C_R   1.000000 0.500000 0.586931 -0.204533
C47   C     C_R   0.075794 0.534759 0.764740 -0.140466
C48   C     C_R   0.465286 0.924185 0.235260 -0.140457
C49   C     C_R   0.924212 0.534773 0.235260 -0.140459
C50   C     C_R   0.534714 0.075815 0.235260 -0.140457
C51   C     C_R   0.075788 0.465226 0.235260 -0.140459
C52   C     C_R   0.030129 0.528568 0.131420 -0.110014
C53   C     C_R   0.471417 0.030115 0.131421 -0.110017
C54   C     C_R   0.969871 0.471432 0.131420 -0.110014
C55   C     C_R   0.528584 0.969886 0.131421 -0.110017
C56   C     C_R   0.030123 0.471425 0.868579 -0.110007
C57   C     C_R   0.500000 1.000000 0.413069 -0.204517
C58   C     C_R   0.471422 0.969879 0.868578 -0.110526
C59   C     C_R   0.969877 0.528574 0.868579 -0.110008
C60   C     C_R   0.528578 0.030121 0.868578 -0.110526
C61   C     C_R   0.530114 0.028584 0.631421 -0.109972
C62   C     C_R   0.971411 0.530110 0.631423 -0.110517
C63   C     C_R   0.469886 0.971416 0.631421 -0.109972
C64   C     C_R   0.028589 0.469889 0.631423 -0.110517
C65   C     C_R   0.530117 0.971418 0.368578 -0.110505
C66   C     C_R   0.971407 0.469893 0.368577 -0.110522
C67   C     C_R   0.469883 0.028582 0.368578 -0.110506
C68   C     C_R   1.000000 0.500000 0.413069 -0.204536
C69   C     C_R   0.028593 0.530106 0.368577 -0.110523
C70   C     C_R   0.030407 0.528764 0.101917 0.206372
C71   C     C_R   0.471221 0.030393 0.101918 0.206399
C72   C     C_R   0.969593 0.471236 0.101917 0.206373
C73   C     C_R   0.528779 0.969607 0.101918 0.206399
C74   C     C_R   0.030401 0.471230 0.898082 0.206383
C75   C     C_R   0.471212 0.969610 0.898082 0.207340
C76   C     C_R   0.969599 0.528770 0.898082 0.206383
C77   C     C_R   0.528788 0.030389 0.898081 0.207339
C78   C     C_R   0.530393 0.028779 0.601918 0.206430
C79   C     C_R   0.000000 0.500000 0.146158 0.196455
C80   C     C_R   0.971201 0.530379 0.601919 0.207403
C81   C     C_R   0.469608 0.971221 0.601918 0.206430
C82   C     C_R   0.028799 0.469621 0.601919 0.207402
C83   C     C_R   0.530386 0.971208 0.398081 0.207379
C84   C     C_R   0.971197 0.469624 0.398081 0.207414
C85   C     C_R   0.469614 0.028792 0.398081 0.207380
C86   C     C_R   0.028803 0.530375 0.398080 0.207414
C87   C     C_R   0.500000 0.000000 0.146158 0.196443
C88   C     C_R   1.000000 0.499999 0.853842 0.196465
C89   C     C_R   0.500000 0.086733 0.000000 0.927081
C90   C     C_R   0.500000 1.000000 0.853861 0.198188
C91   C     C_R   0.500000 0.000000 0.646158 0.196420
C92   C     C_R   1.000000 0.500000 0.646139 0.198181
C93   C     C_R   0.500000 0.000000 0.353861 0.198155
C94   C     C_R   1.000000 0.499999 0.353860 0.198174
C95   C     C_1   0.137384 0.500000 0.000000 -0.151248
C96   C     C_1   0.500000 0.137384 0.000000 -0.151716
C97   C     C_1   0.862616 0.500000 0.000000 -0.151249
C98   C     C_1   0.500000 0.862616 0.000000 -0.151716
C99   C     C_1   0.637384 1.000000 0.500000 -0.151654
C100  C     C_R   0.913267 0.500000 0.000000 0.927647
C101  C     C_1   1.000000 0.637384 0.500000 -0.152120
C102  C     C_1   0.362616 0.000000 0.500000 -0.151654
C103  C     C_1   0.000000 0.362616 0.500000 -0.152120
C104  C     C_1   0.179578 0.500000 0.000000 0.043639
C105  C     C_1   0.500000 0.179578 0.000000 0.043045
C106  C     C_1   0.820422 0.500000 0.000000 0.043639
C107  C     C_1   0.500000 0.820422 0.000000 0.043045
C108  C     C_1   0.679578 1.000000 0.500000 0.043070
C109  C     C_1   1.000000 0.679578 0.500000 0.042477
C110  C     C_1   0.320422 0.000000 0.500000 0.043070
C111  C     C_R   0.500000 0.913267 0.000000 0.927081
C112  C     C_1   0.000000 0.320422 0.500000 0.042477
C113  C     C_1   0.229386 0.500000 0.000000 0.038807
C114  C     C_1   0.500000 0.229386 0.000000 0.038307
C115  C     C_1   0.770613 0.500000 0.000000 0.038807
C116  C     C_1   0.500000 0.770613 0.000000 0.038307
C117  C     C_1   0.729387 1.000000 0.500000 0.038287
C118  C     C_1   1.000000 0.729387 0.500000 0.037787
C119  C     C_1   0.270613 0.000000 0.500000 0.038287
C120  C     C_1   1.000000 0.270613 0.500000 0.037787
C121  C     C_1   0.271581 0.500000 0.000000 0.033113
C122  C     C_R   0.586733 0.000000 0.500000 0.927011
C123  C     C_1   0.500000 0.271582 0.000000 0.032769
C124  C     C_1   0.728418 0.500000 0.000000 0.033113
C125  C     C_1   0.500000 0.728418 0.000000 0.032769
C126  C     C_1   0.771582 1.000000 0.500000 0.032701
C127  C     C_1   1.000000 0.771582 0.500000 0.032358
C128  C     C_1   0.228418 0.000000 0.500000 0.032701
C129  C     C_1   0.000000 0.228418 0.500000 0.032358
C130  C     C_1   0.321392 0.500000 0.000000 0.025407
C131  C     C_1   0.500000 0.321392 0.000000 0.025200
C132  C     C_1   0.678608 0.500000 0.000000 0.025407
C133  C     C_R   1.000000 0.586733 0.500000 0.926448
C134  C     C_1   0.500000 0.678608 0.000000 0.025200
C135  C     C_1   0.821392 1.000000 0.500000 0.025070
C136  C     C_1   1.000000 0.821392 0.500000 0.024862
C137  C     C_1   0.178608 0.000000 0.500000 0.025070
C138  C     C_1   0.000000 0.178608 0.500000 0.024862
C139  C     C_1   0.363589 0.500000 0.000000 -0.181186
C140  C     C_1   0.500000 0.363589 0.000000 -0.181287
C141  C     C_1   0.636411 0.500000 0.000000 -0.181186
C142  C     C_1   0.500000 0.636411 0.000000 -0.181287
C143  C     C_1   0.863589 1.000000 0.500000 -0.181534
C144  C     C_R   0.413267 0.000000 0.500000 0.927012
C145  C     C_1   0.000000 0.863589 0.500000 -0.181636
C146  C     C_1   0.136411 0.000000 0.500000 -0.181534
C147  C     C_1   1.000000 0.136411 0.500000 -0.181636
C148  C     C_R   0.000000 0.500000 0.055998 0.986401
C149  C     C_R   0.500000 1.000000 0.055998 0.986270
C150  C     C_R   0.000000 0.500000 0.944002 0.986384
C151  C     C_R   0.500000 1.000000 0.944002 0.985211
C152  C     C_R   0.500000 0.000000 0.555998 0.986196
C153  C     C_R   0.000000 0.500000 0.555998 0.985011
C154  C     C_R   0.500000 0.000000 0.444002 0.985127
C155  C     C_R   1.000000 0.413267 0.500000 0.926448
C156  C     C_R   0.000000 0.500000 0.444002 0.984996
C157  C     C_R   0.500000 0.414249 0.000000 0.876540
C158  C     C_R   0.585751 0.500000 0.000000 0.876534
C159  C     C_R   0.500000 0.585751 0.000000 0.876539
C160  C     C_R   0.414249 0.500000 0.000000 0.876535
C161  C     C_R   1.000000 0.914249 0.500000 0.876657
C162  C     C_R   0.085751 0.000000 0.500000 0.876652
C163  C     C_R   1.000000 0.085751 0.500000 0.876657
C164  C     C_R   0.914249 0.000000 0.500000 0.876653
C165  C     C_R   0.037262 0.482930 0.309501 0.529014
C166  C     C_R   0.000000 0.500000 0.086930 -0.204602
C167  C     C_R   0.517042 0.037275 0.309501 0.529007
C168  C     C_R   0.962738 0.517069 0.309501 0.529012
C169  C     C_R   0.482959 0.962725 0.309501 0.529005
C170  C     C_R   0.037265 0.517063 0.690499 0.529024
C171  C     C_R   0.537210 0.982818 0.690557 0.528801
C172  C     C_R   0.962735 0.482936 0.690499 0.529025
C173  C     C_R   0.462790 0.017182 0.690557 0.528800
C174  C     C_R   0.537278 0.982967 0.809501 0.529003
C175  C     C_R   0.037196 0.517211 0.809444 0.528776
C176  C     C_R   0.462722 0.017032 0.809501 0.529002
H1    H     H_    0.894548 0.548296 0.275782 0.199104
H2    H     H_    0.894580 0.451637 0.775723 0.198877
H3    H     H_    0.605500 0.951810 0.775782 0.199052
H4    H     H_    0.105420 0.548362 0.775723 0.198877
H5    H     H_    0.451701 0.894552 0.224278 0.198911
H6    H     H_    0.894589 0.548382 0.224277 0.198908
H7    H     H_    0.548300 0.105449 0.224278 0.198911
H8    H     H_    0.105411 0.451617 0.224277 0.198907
H9    H     H_    0.053489 0.550506 0.143008 0.183805
H10   H     H_    0.449466 0.053464 0.143008 0.183815
H11   H     H_    0.946511 0.449494 0.143008 0.183805
H12   H     H_    0.451787 0.894510 0.275782 0.199103
H13   H     H_    0.550534 0.946536 0.143008 0.183815
H14   H     H_    0.053479 0.449482 0.856992 0.183806
H15   H     H_    0.449660 0.946376 0.856974 0.181894
H16   H     H_    0.946521 0.550517 0.856992 0.183807
H17   H     H_    0.550340 0.053623 0.856974 0.181894
H18   H     H_    0.553462 0.050535 0.643008 0.183836
H19   H     H_    0.949640 0.553603 0.643027 0.181893
H20   H     H_    0.446538 0.949465 0.643008 0.183835
H21   H     H_    0.050360 0.446396 0.643027 0.181893
H22   H     H_    0.553616 0.949653 0.356973 0.181901
H23   H     H_    0.105452 0.451703 0.275782 0.199104
H24   H     H_    0.949633 0.446402 0.356972 0.181889
H25   H     H_    0.446384 0.050347 0.356973 0.181901
H26   H     H_    0.050367 0.553597 0.356972 0.181889
H27   H     H_    0.548214 0.105489 0.275782 0.199103
H28   H     H_    0.894539 0.451722 0.724218 0.199071
H29   H     H_    0.394541 0.048276 0.724278 0.198882
H30   H     H_    0.105461 0.548277 0.724218 0.199071
H31   H     H_    0.605459 0.951724 0.724278 0.198882
H32   H     H_    0.394500 0.048190 0.775782 0.199052
N1    N     N_R   1.000000 0.499999 0.323595 -0.346052
N2    N     N_R   0.500000 0.000000 0.323595 -0.346046
N3    N     N_R   1.000000 0.499999 0.676405 -0.346047
N4    N     N_R   0.500000 0.000000 0.676445 -0.345176
N5    N     N_R   0.500000 1.000000 0.823596 -0.346033
N6    N     N_R   1.000000 0.499999 0.823556 -0.345181
N7    N     N_R   0.500000 0.000000 0.176445 -0.345180
N8    N     N_R   0.000000 0.500000 0.176444 -0.345184
O1    O     O_R   0.063110 0.535610 0.000010 -0.589964
O2    O     O_R   0.964390 0.563110 0.500010 -0.589802
O3    O     O_R   0.436890 0.964390 0.500010 -0.589909
O4    O     O_R   0.035610 0.436890 0.500010 -0.589803
O5    O     O_R   0.563110 0.964390 0.499990 -0.589829
O6    O     O_R   0.964390 0.436890 0.499990 -0.589805
O7    O     O_R   0.436890 0.035610 0.499990 -0.589830
O8    O     O_R   0.035610 0.563110 0.499990 -0.589805
O9    O     O_R   0.499970 0.436830 0.023710 -0.587775
O10   O     O_R   0.563170 0.499970 0.023710 -0.587810
O11   O     O_R   0.500030 0.563170 0.023710 -0.587775
O12   O     O_R   0.464390 0.063110 0.000010 -0.589939
O13   O     O_R   0.436830 0.500030 0.023710 -0.587810
O14   O     O_R   0.499970 0.563170 0.976290 -0.588074
O15   O     O_R   0.563170 0.500030 0.976290 -0.587989
O16   O     O_R   0.500030 0.436830 0.976290 -0.588074
O17   O     O_R   0.436830 0.499970 0.976290 -0.587989
O18   O     O_R   0.999970 0.936830 0.523710 -0.587927
O19   O     O_R   0.063170 0.999970 0.523710 -0.587843
O20   O     O_R   0.000030 0.063170 0.523710 -0.587928
O21   O     O_R   0.936830 0.000030 0.523710 -0.587843
O22   O     O_R   0.999970 0.063170 0.476290 -0.588109
O23   O     O_R   0.936890 0.464390 0.000010 -0.589963
O24   O     O_R   0.063170 0.000030 0.476290 -0.588144
O25   O     O_R   0.000030 0.936830 0.476290 -0.588109
O26   O     O_R   0.936830 0.999970 0.476290 -0.588144
O27   O     O_R   0.999950 0.535620 0.041940 -0.586483
O28   O     O_R   0.464380 0.999950 0.041940 -0.586466
O29   O     O_R   0.000050 0.464380 0.041940 -0.586482
O30   O     O_R   0.535620 0.000050 0.041940 -0.586467
O31   O     O_R   0.999950 0.464380 0.958060 -0.586470
O32   O     O_R   0.464380 0.000050 0.958060 -0.585694
O33   O     O_R   0.000050 0.535620 0.958060 -0.586470
O34   O     O_R   0.535610 0.936890 0.000010 -0.589940
O35   O     O_R   0.535620 0.999950 0.958060 -0.585694
O36   O     O_R   0.499950 0.035620 0.541940 -0.586438
O37   O     O_R   0.964380 0.499950 0.541940 -0.585658
O38   O     O_R   0.500050 0.964380 0.541940 -0.586438
O39   O     O_R   0.035620 0.500050 0.541940 -0.585659
O40   O     O_R   0.499950 0.964380 0.458060 -0.585662
O41   O     O_R   0.964380 0.500050 0.458060 -0.585647
O42   O     O_R   0.500050 0.035620 0.458060 -0.585663
O43   O     O_R   0.035620 0.499950 0.458060 -0.585648
O44   O     O_2   0.073205 0.466089 0.324194 -0.531906
O45   O     O_R   0.063110 0.464390 0.999990 -0.589967
O46   O     O_2   0.533855 0.073230 0.324194 -0.531930
O47   O     O_2   0.926795 0.533910 0.324194 -0.531906
O48   O     O_2   0.466146 0.926769 0.324194 -0.531929
O49   O     O_2   0.073211 0.533897 0.675806 -0.531940
O50   O     O_2   0.573067 0.965746 0.675884 -0.533967
O51   O     O_2   0.926789 0.466102 0.675806 -0.531941
O52   O     O_2   0.426933 0.034254 0.675884 -0.533967
O53   O     O_2   0.573238 0.966162 0.824194 -0.532025
O54   O     O_2   0.073040 0.534311 0.824116 -0.534008
O55   O     O_2   0.426762 0.033838 0.824194 -0.532025
O56   O     O_R   0.464390 0.936890 0.999990 -0.589859
O57   O     O_2   0.926960 0.465689 0.824116 -0.534008
O58   O     O_2   0.534269 0.073060 0.175884 -0.533978
O59   O     O_2   0.073033 0.465675 0.175883 -0.533985
O60   O     O_2   0.465731 0.926941 0.175884 -0.533978
O61   O     O_2   0.926967 0.534325 0.175883 -0.533986
O62   O     O_R   0.936890 0.535610 0.999990 -0.589967
O63   O     O_R   0.535610 0.063110 0.999990 -0.589860
O64   O     O_R   0.563110 0.035610 0.500010 -0.589910
Zn1   Zn    Zn3+2 0.000000 0.547570 0.000000 1.084928
Zn2   Zn    Zn3+2 0.500000 0.500000 0.968370 1.009169
Zn3   Zn    Zn3+2 1.000000 0.000000 0.531630 1.009283
Zn4   Zn    Zn3+2 1.000000 0.000000 0.468370 1.008398
Zn5   Zn    Zn3+2 0.452430 0.000000 0.000000 1.085900
Zn6   Zn    Zn3+2 0.000000 0.452430 0.000000 1.084928
Zn7   Zn    Zn3+2 0.547570 0.000000 0.000000 1.085899
Zn8   Zn    Zn3+2 0.500000 0.047570 0.500000 1.086207
Zn9   Zn    Zn3+2 0.952430 0.500000 0.500000 1.087179
Zn10  Zn    Zn3+2 0.500000 0.952430 0.500000 1.086207
Zn11  Zn    Zn3+2 0.047570 0.500000 0.500000 1.087179
Zn12  Zn    Zn3+2 0.500000 0.500000 0.031630 1.010045

loop_
_geom_bond_atom_site_label_1
_geom_bond_atom_site_label_2
_ccdc_geom_bond_type
C35   C81   A    
C8    C168  A    
C20   C175  A    
C16   C29   A    
C14   C29   A    
C102  C144  S    
C24   C77   A    
C172  N3    A    
C156  O41   A    
C25   C51   A    
C168  O47   S    
O1    Zn1   S    
C108  C117  S    
O40   Zn10  S    
O14   Zn2   S    
C20   C31   A    
C62   C92   A    
C14   C173  A    
C115  C124  T    
C118  C127  T    
C163  O22   A    
O35   Zn7   S    
C171  O50   S    
C97   C106  T    
C62   C80   A    
O2    Zn9   S    
O13   Zn12  S    
C103  C112  T    
C42   C45   A    
C57   C85   A    
C17   C43   A    
Br13  C75   S    
C18   C44   A    
C152  O36   A    
C176  O55   S    
C25   C33   A    
C176  N5    A    
C140  C157  S    
C52   C79   A    
C68   C84   A    
C121  C130  S    
C79   N8    S    
C51   H8    S    
C56   H14   S    
C65   C83   A    
C165  N1    A    
C14   C40   A    
C12   C28   A    
C13   C150  S    
C72   C166  A    
C42   H31   S    
C174  O53   S    
C9    C169  A    
O12   Zn5   S    
O37   Zn9   S    
C155  O6    A    
C89   C96   S    
C19   C174  A    
O10   Zn12  S    
C145  C161  S    
C156  O43   A    
O45   Zn6   S    
C2    C73   A    
C63   C81   A    
C164  O21   A    
Br16  C78   S    
C40   C43   A    
C4    O58   S    
C15   C41   A    
Br2   C80   S    
C163  O20   A    
C161  O18   A    
C12   C172  A    
C11   C167  A    
C43   H32   S    
C55   H13   S    
C113  C121  T    
C47   H4    S    
C101  C133  S    
C57   C154  S    
O4    Zn11  S    
C135  C143  T    
C139  C160  S    
C107  C116  S    
C68   C86   A    
O56   Zn5   S    
C143  C164  S    
C9    C27   A    
Br10  C72   S    
C117  C126  T    
Br12  C74   S    
C40   H29   S    
C34   H1    S    
C162  O24   A    
C173  O52   S    
C61   C78   A    
C170  N3    A    
O39   Zn11  S    
C136  C145  T    
C141  C158  S    
O17   Zn2   S    
C53   H10   S    
C4    N7    A    
O16   Zn2   S    
C1    C95   S    
C125  C134  S    
C41   C47   A    
C58   H15   S    
C53   C87   A    
C87   N7    S    
C6    N7    A    
C104  C113  S    
C5    N8    A    
Br6   C84   S    
C69   H26   S    
C170  O49   S    
C56   C74   A    
Br11  C73   S    
O25   Zn4   S    
C22   C49   A    
C19   C45   A    
C8    C34   A    
C61   H18   S    
C98   C107  T    
C157  O16   A    
C147  C163  S    
C129  C138  S    
C106  C115  S    
C10   C26   A    
O63   Zn7   S    
Br1   C70   S    
O64   Zn8   S    
C55   C87   A    
C45   H3    S    
O27   Zn1   S    
C60   C90   A    
C67   C85   A    
C16   C171  A    
C68   C156  S    
C93   N2    S    
C64   H21   S    
C38   C50   A    
O29   Zn6   S    
C64   C92   A    
O11   Zn12  S    
C9    C36   A    
C96   C105  T    
Br9   C71   S    
O38   Zn10  S    
C132  C141  T    
C24   C75   A    
C37   C51   A    
C34   C49   A    
C151  O35   A    
C146  C162  S    
O22   Zn4   S    
C158  O10   A    
C49   H6    S    
O43   Zn11  S    
C142  C159  S    
O18   Zn3   S    
Br7   C85   S    
C148  O27   A    
C103  C155  S    
C149  O30   A    
C48   H5    S    
C101  C109  T    
C1    O45   A    
C69   C86   A    
C109  C118  S    
C10   C37   A    
C144  O7    A    
C46   C80   A    
C8    C26   A    
C16   C42   A    
C38   H27   S    
C22   C33   A    
C29   C30   A    
C100  O62   A    
O24   Zn4   S    
C112  C120  S    
C67   H25   S    
C116  C125  T    
C122  O5    A    
O32   Zn5   S    
C24   C151  S    
O5    Zn10  S    
C130  C139  T    
Br5   C83   S    
C105  C114  S    
C53   C71   A    
O28   Zn5   S    
C164  O26   A    
C37   H23   S    
C39   C44   A    
C17   C30   A    
C63   H20   S    
O20   Zn3   S    
C168  N1    A    
C114  C123  T    
C13   C74   A    
C2    C149  S    
C158  O15   A    
C41   H30   S    
O30   Zn7   S    
O15   Zn2   S    
O31   Zn6   S    
O62   Zn1   S    
C36   C48   A    
C160  O17   A    
C4    C23   A    
C56   C88   A    
C6    C21   A    
C3    C18   A    
O19   Zn3   S    
C36   H12   S    
C58   C75   A    
C152  O38   A    
C60   C77   A    
C59   H16   S    
Br3   C81   S    
C88   N6    S    
C148  O29   A    
C63   C91   A    
C150  O31   A    
C131  C140  T    
C5    C25   A    
C127  C136  S    
C65   C93   A    
C110  C119  S    
C69   C94   A    
C59   C88   A    
C23   C50   A    
C173  N4    A    
C21   C48   A    
C54   H11   S    
C46   C153  S    
C99   C108  T    
C134  C142  T    
C64   C82   A    
C52   H9    S    
C111  O56   A    
C89   O63   A    
Br15  C77   S    
C160  O13   A    
C92   N3    S    
C1    O1    A    
C7    C22   A    
O33   Zn1   S    
C90   N5    S    
C137  C146  T    
C174  N5    A    
C98   C111  S    
C150  O33   A    
C3    N6    A    
C148  C166  S    
C10   C165  A    
C11   C27   A    
O9    Zn12  S    
C3    O57   S    
O34   Zn7   S    
C70   C166  A    
C18   C31   A    
C7    O61   S    
C19   C30   A    
C161  O25   A    
C62   H19   S    
C13   C76   A    
C23   C32   A    
C100  O23   A    
C60   H17   S    
C126  C135  S    
C153  O37   A    
C111  O34   A    
Br4   C82   S    
C52   C70   A    
O36   Zn8   S    
C54   C72   A    
C133  O2    A    
C124  C132  S    
C11   C38   A    
C44   H2    S    
C159  O11   A    
C123  C131  S    
C17   C176  A    
C66   C94   A    
O3    Zn10  S    
C133  O8    A    
C128  C137  S    
C46   C82   A    
C159  O14   A    
O26   Zn4   S    
C144  O3    A    
C67   C93   A    
C5    O59   S    
C20   C47   A    
C6    O60   S    
C27   C32   A    
C89   O12   A    
C7    N8    A    
C28   C31   A    
C97   C100  S    
C172  O51   S    
C35   C152  S    
O21   Zn3   S    
C167  N2    A    
C12   C39   A    
C155  O4    A    
C15   C28   A    
C138  C147  T    
C61   C91   A    
C122  O64   A    
O41   Zn9   S    
C35   C78   A    
O6    Zn9   S    
C95   C104  T    
C58   C90   A    
C65   H22   S    
C55   C73   A    
C99   C122  S    
C91   N4    S    
C21   C32   A    
Br14  C76   S    
C59   C76   A    
O8    Zn11  S    
C162  O19   A    
C119  C128  T    
C153  O39   A    
C154  O40   A    
C66   H24   S    
C154  O42   A    
C169  O48   S    
C167  O46   S    
C57   C83   A    
C66   C84   A    
C120  C129  T    
C94   N1    S    
O42   Zn8   S    
C39   H28   S    
C50   H7    S    
C2    C71   A    
C149  O28   A    
O23   Zn6   S    
C54   C79   A    
C171  N4    A    
C175  N6    A    
C169  N2    A    
C15   C170  A    
C151  O32   A    
C26   C33   A    
O7    Zn8   S    
C157  O9    A    
C102  C110  T    
C175  O54   S    
Br8   C86   S    
C165  O44   S    
