data_mof_unit_17595.cif
_audit_creation_date              2012-12-10T17:02:18-0500
_audit_creation_method            fapswitch 2.2
_symmetry_space_group_name_H-M    P1
_symmetry_Int_Tables_number       1
_space_group_crystal_system       triclinic
_cell_length_a                    10.626848
_cell_length_b                    10.691374
_cell_length_c                    10.056427
_cell_angle_alpha                 89.740235
_cell_angle_beta                  87.89346
_cell_angle_gamma                 90.515495
_cell_volume                      1141.73516995

loop_
_atom_site_label
_atom_site_type_symbol
_atom_type_description
_atom_site_fract_x
_atom_site_fract_y
_atom_site_fract_z
_atom_type_partial_charge
C1    C     C_R   0.507832 0.263036 0.499700 0.907112
C2    C     C_2   0.532443 0.132514 0.499116 -0.285624
C3    C     C_2   0.407543 0.535944 0.928126 -0.011931
C4    C     C_R   0.260652 0.488207 0.503275 0.845444
C5    C     C_2   0.416923 0.553003 0.075922 -0.171040
C6    C     C_R   0.499135 0.737502 0.499608 0.919488
C7    C     C_R   0.739589 0.502581 0.497288 0.839208
C8    C     C_R   0.107189 0.253737 0.568636 -0.229641
C9    C     C_R   0.037837 0.143395 0.547617 -0.303545
C10   C     C_R   0.914784 0.147981 0.503432 0.612708
C11   C     C_R   0.860305 0.263864 0.482472 -0.237297
C12   C     C_R   0.057116 0.371104 0.528364 0.046627
C13   C     C_R   0.928998 0.375723 0.499696 0.026293
C14   C     C_2   0.558420 0.387721 0.103937 1.029158
C15   C     C_2   0.210676 0.243359 0.663171 0.981619
C16   C     C_3   0.822680 0.973321 0.597866 -0.327487
C17   C     C_R   0.127107 0.484734 0.513027 -0.049440
C18   C     C_R   0.069064 0.599490 0.493751 -0.180798
C19   C     C_R   0.940620 0.604309 0.488088 -0.210001
C20   C     C_R   0.871982 0.493350 0.490619 -0.025346
C21   C     C_2   0.533968 0.933161 0.388965 -0.118062
C22   C     C_2   0.495404 0.870039 0.498200 -0.374831
C23   C     C_2   0.529536 0.067831 0.386168 -0.120744
H1    H     H_    0.123606 0.685575 0.484511 0.142247
H2    H     H_    0.459157 0.914534 0.588179 0.170384
H3    H     H_    0.518986 0.113064 0.290295 0.188675
H4    H     H_    0.539686 0.220233 0.014390 0.332965
H5    H     H_    0.284111 0.087163 0.579075 0.287838
H6    H     H_    0.908880 0.926099 0.630875 0.165341
H7    H     H_    0.752270 0.898831 0.579631 0.198100
H8    H     H_    0.782630 0.034212 0.678173 0.164312
H9    H     H_    0.552696 0.089856 0.593940 0.176581
H10   H     H_    0.319144 0.558060 0.883298 0.174606
H11   H     H_    0.588933 0.501030 0.892268 0.166656
H12   H     H_    0.349122 0.614410 0.124722 0.164361
H13   H     H_    0.076065 0.053394 0.573153 0.152202
H14   H     H_    0.764415 0.265658 0.450743 0.158575
H15   H     H_    0.894722 0.694067 0.479873 0.147160
H16   H     H_    0.564545 0.885700 0.298219 0.181512
N1    N     N_2   0.501340 0.501330 0.852150 -0.169984
N2    N     N_2   0.501380 0.501360 0.147810 -0.170293
O1    O     O_R   0.499980 0.319060 0.613040 -0.565640
O2    O     O_R   0.488636 0.297359 0.037285 -0.786910
O3    O     O_2   0.216749 0.317611 0.754567 -0.539691
O4    O     O_R   0.292052 0.141378 0.660659 -0.787724
O5    O     O_3   0.846346 0.040377 0.478189 -0.599899
O6    O     O_R   0.500020 0.319100 0.386900 -0.625073
O7    O     O_R   0.316750 0.499980 0.613090 -0.587085
O8    O     O_R   0.316790 0.500020 0.386950 -0.614231
O9    O     O_R   0.499980 0.680900 0.613100 -0.621868
O10   O     O_R   0.500020 0.680940 0.386960 -0.617495
O11   O     O_R   0.683210 0.499980 0.613050 -0.622744
O12   O     O_R   0.683250 0.500020 0.386910 -0.586989
O13   O     O_2   0.666963 0.366290 0.132260 -0.627170
Zn1   Zn    Zn3+2 0.499970 0.499970 0.650990 0.997372
Zn2   Zn    Zn3+2 0.500030 0.500030 0.349010 0.992040

loop_
_geom_bond_atom_site_label_1
_geom_bond_atom_site_label_2
_ccdc_geom_bond_type
C12   C17   A    
C10   O5    S    
O7    Zn1   S    
N2    Zn2   S    
C19   H15   S    
O1    Zn1   S    
C9    H13   S    
O8    Zn2   S    
C9    C10   A    
O9    Zn1   S    
C21   H16   S    
O11   Zn1   S    
C4    O8    A    
C8    C12   A    
N1    Zn1   S    
C17   C18   A    
C16   H6    S    
C21   C22   D    
C6    O9    A    
C16   H8    S    
C11   C13   A    
C14   N2    S    
H11   N1    S    
C4    C17   S    
C5    H12   S    
C14   O13   D    
C7    O11   A    
C1    C2    S    
C8    C15   S    
C21   C23   S    
C15   O3    D    
C6    O10   A    
C18   H1    S    
H5    O4    S    
O12   Zn2   S    
C10   C11   A    
C3    H10   S    
C16   H7    S    
C6    C22   S    
H4    O2    S    
C1    O1    A    
C12   C13   A    
C8    C9    A    
C2    H9    S    
C18   C19   A    
C4    O7    A    
C23   H3    S    
C16   O5    S    
C2    C23   D    
C11   H14   S    
C7    O12   A    
O6    Zn2   S    
C5    N2    D    
C13   C20   A    
C3    N1    D    
C15   O4    S    
C7    C20   S    
C1    O6    A    
C19   C20   A    
C14   O2    S    
C3    C5    S    
C22   H2    S    
O10   Zn2   S    
