data_mof_unit_13360.cif
_audit_creation_date              2012-12-10T17:06:14-0500
_audit_creation_method            fapswitch 2.2
_symmetry_space_group_name_H-M    P1
_symmetry_Int_Tables_number       1
_space_group_crystal_system       triclinic
_cell_length_a                    10.656986
_cell_length_b                    11.032176
_cell_length_c                    9.839966
_cell_angle_alpha                 110.928033
_cell_angle_beta                  98.71016
_cell_angle_gamma                 90.866696
_cell_volume                      1065.09448032

loop_
_atom_site_label
_atom_site_type_symbol
_atom_type_description
_atom_site_fract_x
_atom_site_fract_y
_atom_site_fract_z
_atom_type_partial_charge
C1    C     C_R   0.490694 0.254218 0.440818 0.885023
C2    C     C_R   0.509306 0.745782 0.559181 0.885024
C3    C     C_R   0.259670 0.500164 0.500315 0.844400
C4    C     C_R   0.740330 0.499837 0.499685 0.844402
C5    C     C_3   0.046657 0.406781 0.546382 0.004928
C6    C     C_3   0.953344 0.593220 0.453617 0.004928
C7    C     C_3   0.942758 0.381653 0.408467 -0.314972
C8    C     C_3   0.057243 0.618347 0.591533 -0.314971
C9    C     C_3   0.876525 0.499949 0.500050 -0.111373
C10   C     C_3   0.123475 0.500051 0.499950 -0.111374
C11   C     C_3   0.979585 0.523429 0.635536 0.173786
C12   C     C_3   0.020415 0.476571 0.364464 0.173786
C13   C     C_2   0.485685 0.115037 0.407492 -0.315331
C14   C     C_2   0.514316 0.884962 0.592508 -0.315327
C15   C     C_2   0.502190 0.069529 0.516709 -0.152386
C16   C     C_2   0.497811 0.930471 0.483291 -0.152381
C17   C     C_2   0.510643 0.510530 0.081496 -0.060938
C18   C     C_2   0.489357 0.489469 0.918504 -0.060938
Cu1   Cu    Cu3+1 0.522260 0.521810 0.644920 0.973573
Cu2   Cu    Cu3+1 0.477740 0.478190 0.355080 0.973573
H1    H     H_    0.894677 0.286210 0.332993 0.167550
H2    H     H_    0.105324 0.713791 0.667008 0.167548
H3    H     H_    0.480891 0.864985 0.368354 0.184139
H4    H     H_    0.519111 0.135015 0.631646 0.184140
H5    H     H_    0.531404 0.950759 0.707240 0.151759
H6    H     H_    0.468597 0.049241 0.292760 0.151760
H7    H     H_    0.415609 0.416795 0.845072 0.172394
H8    H     H_    0.584391 0.583205 0.154927 0.172390
H9    H     H_    0.624782 0.623314 0.935007 0.209670
H10   H     H_    0.375218 0.376686 0.064993 0.209672
N1    N     N_2   0.444270 0.445410 0.137360 -0.284214
N2    N     N_2   0.555730 0.554590 0.862640 -0.284214
O1    O     O_R   0.511880 0.332340 0.577400 -0.579821
O2    O     O_R   0.488120 0.667660 0.422600 -0.579820
O3    O     O_R   0.474280 0.295500 0.332650 -0.578468
O4    O     O_R   0.525720 0.704500 0.667350 -0.578469
O5    O     O_R   0.335640 0.518390 0.622350 -0.590960
O6    O     O_R   0.664360 0.481610 0.377650 -0.590960
O7    O     O_R   0.298050 0.481550 0.377590 -0.554790
O8    O     O_R   0.701950 0.518450 0.622410 -0.554788
C19   C     C_2   0.102352 0.302349 0.595653 0.839110
O9    O     O_2   0.093435 0.302240 0.717952 -0.590158
O10   O     O_R   0.164909 0.205723 0.500774 -0.774146
H11   H     H_    0.199803 0.141270 0.546163 0.336485
C20   C     C_2   0.897653 0.697649 0.404340 0.839109
O11   O     O_2   0.906583 0.697759 0.282044 -0.590149
O12   O     O_R   0.835086 0.794272 0.499208 -0.774147
H12   H     H_    0.800196 0.858723 0.453814 0.336484
N3    N     N_3   0.955660 0.548938 0.784873 -0.512753
H13   H     H_    0.044088 0.562246 0.852877 0.243009
H14   H     H_    0.914806 0.638120 0.819555 0.234474
N4    N     N_3   0.044340 0.451061 0.215127 -0.512747
H15   H     H_    0.955913 0.437743 0.147121 0.243004
H16   H     H_    0.085202 0.361883 0.180450 0.234475

loop_
_geom_bond_atom_site_label_1
_geom_bond_atom_site_label_2
_ccdc_geom_bond_type
C8    H2    S    
O10   H11   S    
C11   N3    S    
C6    C20   S    
C16   H3    S    
Cu2   O6    S    
C19   O9    D    
C19   O10   S    
O12   H12   S    
Cu2   O2    S    
C2    O2    A    
C6    C9    S    
C13   C15   D    
C17   C18   S    
C1    O1    A    
C5    C10   S    
C3    C10   S    
C20   O11   D    
C9    C11   S    
C1    O3    A    
H10   N1    S    
C10   C12   S    
C8    C11   S    
C2    C14   S    
Cu1   N2    S    
C15   H4    S    
C12   N4    S    
N4    H16   S    
C5    C11   S    
H9    N2    S    
C5    C7    S    
Cu1   O4    S    
C20   O12   S    
C14   H5    S    
C6    C12   S    
C7    C12   S    
C17   N1    D    
C14   C16   D    
C13   H6    S    
C1    C13   S    
Cu1   O8    S    
C3    O7    A    
C15   C16   S    
C4    O8    A    
C18   N2    D    
N4    H15   S    
C3    O5    A    
C8    C10   S    
N3    H13   S    
Cu1   O1    S    
C2    O4    A    
C7    C9    S    
Cu2   O7    S    
C5    C19   S    
C6    C8    S    
Cu1   O5    S    
C4    C9    S    
C7    H1    S    
C17   H8    S    
Cu2   O3    S    
C18   H7    S    
Cu1   Cu2   S    
C4    O6    A    
N3    H14   S    
Cu2   N1    S    
