data_mof_unit_46818.cif
_audit_creation_date              2013-03-05T15:58:06-0500
_audit_creation_method            fapswitch 2.2
_symmetry_space_group_name_H-M    P1
_symmetry_Int_Tables_number       1
_space_group_crystal_system       triclinic
_cell_length_a                    14.953572
_cell_length_b                    14.847593
_cell_length_c                    15.137271
_cell_angle_alpha                 109.931168
_cell_angle_beta                  109.769737
_cell_angle_gamma                 108.325297
_cell_volume                      2599.014803

loop_
_atom_site_label
_atom_site_type_symbol
_atom_site_description
_atom_site_fract_x
_atom_site_fract_y
_atom_site_fract_z
_atom_type_partial_charge
C1    C     C_R   0.979469 0.254081 0.067046 -0.119096
H1    H     H_    0.946318 0.242057 0.117466 0.089642
N1    N     N_R   0.947080 0.293830 0.002870 -0.040963
C2    C     C_R   0.315265 0.761373 0.225219 -0.137850
H2    H     H_    0.379836 0.777644 0.205954 0.092246
N2    N     N_R   0.208950 0.706170 0.152110 -0.044769
C3    C     C_R   0.207614 0.407561 0.901963 -0.144216
H3    H     H_    0.176750 0.322751 0.844863 0.089992
N3    N     N_R   0.153670 0.443180 0.946090 -0.035842
C4    C     C_R   0.999206 0.591954 0.299926 -0.174023
H4    H     H_    0.021432 0.675832 0.351051 0.107648
N4    N     N_R   0.002360 0.556820 0.208890 -0.039576
C5    C     C_R   0.298554 0.589621 0.993819 -0.135939
H5    H     H_    0.353921 0.674161 0.024195 0.088302
N5    N     N_R   0.210070 0.556820 0.002870 -0.033592
C6    C     C_R   0.915879 0.409414 0.213468 -0.137579
H6    H     H_    0.866675 0.324896 0.187946 0.116139
N6    N     N_R   0.945960 0.443180 0.152110 -0.037195
C7    C     C_R   0.220963 0.754189 0.313518 -0.133794
H7    H     H_    0.196353 0.756359 0.372784 0.120637
N7    N     N_R   0.151710 0.706170 0.208890 -0.051952
C8    C     C_R   0.072577 0.256575 0.978487 -0.140699
H8    H     H_    0.128288 0.251987 0.949931 0.118331
N8    N     N_R   0.004320 0.293830 0.946090 -0.041991
C9    C     C_R   0.061066 0.232414 0.056531 0.071010
C10   C     C_R   0.325015 0.793040 0.327876 0.060145
C11   C     C_R   0.297909 0.497477 0.928808 -0.003638
C12   C     C_R   0.946017 0.501568 0.305595 0.065271
C13   C     C_R   0.686415 0.405909 0.927298 -0.217178
H9    H     H_    0.625787 0.320539 0.880372 0.121007
N9    N     N_R   0.789930 0.443180 0.997130 -0.056522
C14   C     C_R   0.019722 0.592882 0.782445 -0.083275
H10   H     H_    0.037329 0.675792 0.808520 0.142443
N10   N     N_R   0.054040 0.556820 0.847890 -0.047829
C15   C     C_R   0.792795 0.195813 0.702295 -0.140741
H11   H     H_    0.823229 0.174402 0.648758 0.126745
N11   N     N_R   0.848290 0.293830 0.791110 -0.040027
C16   C     C_R   0.012482 0.807645 0.105521 0.012421
H12   H     H_    0.000940 0.833907 0.173647 0.120193
N12   N     N_R   0.995680 0.706170 0.053910 -0.057578
C17   C     C_R   0.094986 0.807063 0.009785 -0.072497
H13   H     H_    0.153211 0.834403 0.985144 0.106962
N13   N     N_R   0.052920 0.706170 0.997130 -0.057351
C18   C     C_R   0.706672 0.194532 0.796245 -0.126841
H14   H     H_    0.661810 0.168160 0.833621 0.084212
N14   N     N_R   0.791050 0.293830 0.847890 -0.033032
C19   C     C_R   0.773844 0.585377 0.007756 0.352009
N15   N     N_R   0.846330 0.556820 0.053910 -0.101835
C20   C     C_R   0.940322 0.410509 0.685900 -0.146604
H15   H     H_    0.894852 0.326674 0.620024 0.097919
N16   N     N_R   0.997640 0.443180 0.791110 -0.039268
Ni1   Ni    Ni4+2 0.869690 0.369690 0.000000 0.208075
Ni2   Ni    Ni4+2 0.130310 0.630310 0.000000 0.212290
Ni3   Ni    Ni4+2 0.000970 0.369690 0.869780 0.213495
Ni4   Ni    Ni4+2 0.999030 0.630310 0.130220 0.212881
C21   C     C_R   0.671373 0.494374 0.932081 -0.104207
C22   C     C_R   0.956019 0.505206 0.679255 0.047788
C23   C     C_R   0.705108 0.129346 0.704592 0.066513
C24   C     C_R   0.069004 0.872764 0.076590 0.052947
H16   H     H_    0.547240 0.076532 0.992735 0.099344
C25   C     C_R   0.630941 0.251975 0.090026 -0.114072
H17   H     H_    0.603897 0.263990 0.021428 0.096966
C26   C     C_R   0.699157 0.342722 0.194442 -0.167832
H18   H     H_    0.720955 0.423979 0.204952 0.112678
C27   C     C_R   0.748893 0.329079 0.282468 0.128887
C28   C     C_R   0.717111 0.222055 0.265862 -0.163643
H19   H     H_    0.753740 0.208564 0.331839 0.103126
C29   C     C_R   0.641648 0.131238 0.162235 -0.121648
H20   H     H_    0.617825 0.049274 0.149842 0.095201
C30   C     C_R   0.600839 0.146318 0.073886 -0.086024
C31   C     C_R   0.848460 0.431228 0.484177 -0.242837
H21   H     H_    0.785309 0.367304 0.481336 0.129512
C32   C     C_R   0.939451 0.515816 0.584275 0.090101
C33   C     C_R   0.021079 0.602298 0.590070 0.131597
C34   C     C_R   0.012403 0.598010 0.495770 -0.196448
H22   H     H_    0.079492 0.661192 0.502096 0.124190
C35   C     C_R   0.928559 0.508070 0.395525 0.033878
C36   C     C_R   0.841815 0.425119 0.387896 0.025408
C37   C     C_R   0.138690 0.793017 0.756480 0.312451
C38   C     C_R   0.240009 0.871866 0.850119 -0.264384
H23   H     H_    0.251024 0.949147 0.904409 0.163499
C39   C     C_R   0.327456 0.851122 0.875678 -0.144634
H24   H     H_    0.404458 0.911871 0.948747 0.117730
C40   C     C_R   0.315387 0.751605 0.808017 -0.104007
H25   H     H_    0.383691 0.736341 0.827684 0.111153
C41   C     C_R   0.215216 0.671578 0.715435 -0.184192
H26   H     H_    0.206785 0.594165 0.664172 0.124704
C42   C     C_R   0.125910 0.690549 0.689371 -0.061121
H27   H     H_    0.143460 0.034454 0.599781 0.128142
C43   C     C_R   0.246162 0.045020 0.528714 -0.113290
H28   H     H_    0.233181 0.104985 0.509039 0.105718
C44   C     C_R   0.315325 0.009091 0.505027 -0.150770
H29   H     H_    0.355838 0.042050 0.467206 0.114693
C45   C     C_R   0.336880 0.935658 0.535711 0.109801
C46   C     C_R   0.287702 0.897975 0.589469 -0.186174
H30   H     H_    0.306004 0.843958 0.616615 0.131776
C47   C     C_R   0.216950 0.932553 0.610886 -0.157888
H31   H     H_    0.179504 0.904122 0.652620 0.136577
C48   C     C_R   0.196554 0.006276 0.580998 -0.052813
C49   C     C_R   0.523436 0.981804 0.626298 -0.222462
H32   H     H_    0.520299 0.025080 0.697832 0.125212
C50   C     C_R   0.620726 0.014253 0.624866 0.049048
C51   C     C_R   0.623302 0.948633 0.533890 0.038657
C52   C     C_R   0.524632 0.869949 0.438014 -0.238116
H33   H     H_    0.525824 0.822397 0.366412 0.124578
C53   C     C_R   0.425738 0.859240 0.433163 0.062749
C54   C     C_R   0.426181 0.915873 0.530150 0.020559
C55   C     C_R   0.756626 0.009144 0.475058 -0.231088
H34   H     H_    0.696622 0.010913 0.411801 0.115322
C56   C     C_R   0.866306 0.064375 0.505580 -0.076064
H35   H     H_    0.889931 0.106316 0.464642 0.100237
C57   C     C_R   0.946173 0.070161 0.592244 -0.029195
H36   H     H_    0.030869 0.114316 0.616341 0.091783
C58   C     C_R   0.916686 0.020188 0.648453 -0.123260
H37   H     H_    0.978415 0.024433 0.715269 0.135894
C59   C     C_R   0.808020 0.969741 0.622003 -0.121879
H38   H     H_    0.787377 0.938908 0.671683 0.138405
C60   C     C_R   0.727831 0.967497 0.537626 0.107578
C61   C     C_3   0.464697 0.385955 0.823756 -0.378359
H39   H     H_    0.468069 0.312849 0.824270 0.144524
H40   H     H_    0.457438 0.378614 0.745687 0.161174
C62   C     C_3   0.362271 0.383494 0.827886 -0.417602
H41   H     H_    0.300653 0.363981 0.747844 0.148846
H42   H     H_    0.325820 0.316947 0.842769 0.165428
H43   H     H_    0.572776 0.440958 0.038876 0.152309
H44   H     H_    0.434437 0.463844 0.054348 0.170376
C63   C     C_3   0.571152 0.510776 0.028011 -0.412856
C64   C     C_3   0.553983 0.588987 0.902138 -0.312738
C65   C     C_3   0.567734 0.495250 0.920010 0.376515
H45   H     H_    0.617619 0.670585 0.971861 0.234089
H46   H     H_    0.557360 0.584005 0.828442 0.172838
C66   C     C_3   0.392146 0.495764 0.918521 0.414233
C67   C     C_3   0.473848 0.520451 0.030218 -0.389811
C68   C     C_3   0.445974 0.583482 0.892800 -0.480992
H47   H     H_    0.390470 0.562523 0.809482 0.166950
H48   H     H_    0.462835 0.665604 0.949652 0.151936
H49   H     H_    0.646284 0.585813 0.098898 0.177353
H50   H     H_    0.502588 0.605040 0.093554 0.156521
H51   H     H_    0.445818 0.253464 0.937022 0.093064
C69   C     C_R   0.283042 0.150468 0.891133 -0.166208
H52   H     H_    0.257529 0.106969 0.806108 0.122600
C70   C     C_R   0.209747 0.122885 0.926878 -0.180674
H53   H     H_    0.127564 0.057614 0.869079 0.176512
C71   C     C_R   0.242820 0.179274 0.037277 0.098781
C72   C     C_R   0.349428 0.264639 0.111532 -0.144507
H54   H     H_    0.376612 0.307072 0.197349 0.115998
C73   C     C_R   0.422880 0.291534 0.075566 -0.105730
H55   H     H_    0.505391 0.357003 0.133162 0.114865
C74   C     C_R   0.389777 0.233581 0.965596 -0.080278
C75   C     C_R   0.172559 0.044480 0.086294 -0.167290
H56   H     H_    0.219818 0.011132 0.060766 0.120152
C76   C     C_R   0.102040 0.990350 0.114865 0.056510
C77   C     C_R   0.056218 0.047553 0.164954 0.050163
C78   C     C_R   0.073237 0.147765 0.170950 -0.263235
H57   H     H_    0.039193 0.190847 0.210058 0.124759
C79   C     C_R   0.111409 0.179103 0.108224 0.059604
C80   C     C_R   0.173851 0.135175 0.077517 0.039782
C81   C     C_R   0.868551 0.985365 0.135371 -0.016060
H58   H     H_    0.845317 0.994223 0.064090 0.112429
C82   C     C_R   0.793489 0.959457 0.169852 -0.133253
H59   H     H_    0.712562 0.945882 0.124118 0.111065
C83   C     C_R   0.821255 0.946009 0.260350 -0.212713
H60   H     H_    0.759902 0.919034 0.281839 0.117143
C84   C     C_R   0.925119 0.958802 0.317295 0.671447
C85   C     C_R   0.003717 0.996233 0.289015 -0.364554
H61   H     H_    0.085090 0.011444 0.335418 0.134395
C86   C     C_R   0.974180 0.003179 0.194126 0.086195
N17   N     N_R   0.797026 0.693661 0.033942 0.194957
O1    O     O_R   0.785167 0.721312 0.959490 -0.429342
O2    O     O_R   0.801649 0.754263 0.121715 -0.541487
N18   N     N_R   0.047643 0.813114 0.737804 0.213004
O3    O     O_R   0.038177 0.865848 0.819529 -0.451599
O4    O     O_R   0.967637 0.768460 0.640289 -0.433372
O5    O     O_3   0.949814 0.932854 0.398857 -0.664352
C87   C     C_3   0.893786 0.817549 0.351735 0.227731
H62   H     H_    0.927413 0.779571 0.303989 0.124629
H63   H     H_    0.804714 0.781957 0.299154 0.129376
C88   C     C_3   0.907529 0.787015 0.439467 -0.804363
H64   H     H_    0.872391 0.821424 0.487027 0.283583
H65   H     H_    0.864598 0.696386 0.401848 0.213690
H66   H     H_    0.994651 0.818595 0.493840 0.262770

loop_
_geom_bond_atom_site_label_1
_geom_bond_atom_site_label_2
_geom_bond_distance
_ccdc_geom_bond_type
C25   C30   1.394114 A    
C6    C12   1.380649 A    
N15   Ni4   1.878432 S    
C28   C29   1.398517 A    
N18   O3    1.300484 A    
C26   C27   1.406413 A    
C85   H61   1.079757 S    
C75   C80   1.392374 A    
C17   H13   1.078269 S    
C46   H30   1.083340 S    
N9    Ni1   1.852201 S    
C64   C65   1.565743 S    
C10   C53   1.466930 S    
C52   C53   1.410066 A    
C47   H31   1.078565 S    
N6    Ni1   1.876451 S    
C3    H3    1.080907 S    
C87   H63   1.113694 S    
C24   C76   1.483976 S    
C55   H34   1.083241 S    
N18   O4    1.299658 A    
N10   N16   1.386729 A    
H27   C48   1.080138 S    
C15   C23   1.391037 A    
N5    Ni2   1.852200 S    
C8    N8    1.337767 A    
C84   C85   1.401891 A    
C15   N11   1.328898 A    
C40   C41   1.394641 A    
C83   H60   1.080548 S    
C64   C68   1.545943 S    
C16   H12   1.064830 S    
C41   C42   1.405084 A    
C88   H65   1.110929 S    
C53   C54   1.417995 A    
N8    Ni3   1.867843 S    
N14   Ni1   1.876279 S    
C3    C11   1.376957 A    
C59   H38   1.083188 S    
C1    H1    1.073918 S    
C32   C33   1.418316 A    
C37   N18   1.440552 S    
C25   C26   1.395454 A    
C7    C10   1.386486 A    
C56   H35   1.081416 S    
C37   C42   1.419599 A    
C47   C48   1.396474 A    
O5    C87   1.415243 S    
N13   Ni2   1.851693 S    
N12   N13   1.403224 A    
C73   H55   1.080589 S    
H44   C67   1.109304 S    
C18   C23   1.382174 A    
C29   H20   1.081502 S    
C20   N16   1.339672 A    
C8    C9    1.393426 A    
C84   O5    1.383630 S    
C23   C50   1.475373 S    
C78   C79   1.394538 A    
C21   C65   1.502681 S    
N17   O2    1.289722 A    
C28   H19   1.082999 S    
C67   H50   1.114532 S    
C85   C86   1.403332 A    
C5    H5    1.080704 S    
C77   C86   1.480063 S    
C9    C79   1.484589 S    
C81   C82   1.393558 A    
C11   C66   1.476140 S    
C17   N13   1.344146 A    
N1    N8    1.403225 A    
C50   C51   1.411361 A    
C14   C22   1.367202 A    
C57   C58   1.395484 A    
C52   H33   1.082966 S    
C72   C73   1.392560 A    
C18   N14   1.324384 A    
C81   C86   1.408005 A    
C72   H54   1.083245 S    
C87   C88   1.515201 S    
C83   C84   1.410153 A    
C61   H40   1.112724 S    
C2    C10   1.400921 A    
C45   C54   1.477322 S    
C7    N7    1.321162 A    
C33   C34   1.366023 A    
C26   H18   1.083462 S    
N4    Ni4   1.868465 S    
C19   N15   1.349612 A    
C88   H64   1.108750 S    
C69   H52   1.079508 S    
C17   C24   1.398827 A    
C2    N2    1.340133 A    
C31   C32   1.399249 A    
C41   H26   1.083410 S    
C2    H2    1.080538 S    
C68   H48   1.111488 S    
C35   C36   1.417703 A    
N2    N7    1.403225 A    
H51   C74   1.073862 S    
C16   C24   1.366088 A    
C1    N1    1.333770 A    
C15   H11   1.062900 S    
C14   N10   1.312234 A    
C34   H22   1.085188 S    
C63   C65   1.551639 S    
C13   H9    1.077516 S    
C55   C60   1.404469 A    
C43   C44   1.396499 A    
C87   H62   1.113309 S    
H16   C30   1.081182 S    
C61   H39   1.104858 S    
N12   Ni4   1.867846 S    
C44   C45   1.404767 A    
C45   C46   1.404463 A    
C62   C66   1.555135 S    
C6    N6    1.332158 A    
C40   H25   1.081250 S    
H43   C63   1.109776 S    
C12   C35   1.448196 S    
C34   C35   1.391562 A    
C78   H57   1.081317 S    
C4    N4    1.320100 A    
N11   Ni3   1.878452 S    
C38   C39   1.395258 A    
N17   O1    1.302376 A    
C27   C28   1.409294 A    
C39   C40   1.392949 A    
N9    N15   1.386728 A    
C5    N5    1.330257 A    
C81   H58   1.083576 S    
C20   H15   1.081178 S    
C75   C76   1.399120 A    
C51   C60   1.476142 S    
N2    Ni2   1.876277 S    
C62   H42   1.104675 S    
C64   H46   1.112066 S    
C43   C48   1.395274 A    
C70   C71   1.401746 A    
C18   H14   1.079846 S    
N7    Ni4   1.878453 S    
C49   C50   1.391699 A    
C61   C62   1.543452 S    
C4    C12   1.376388 A    
C3    N3    1.329845 A    
C46   C47   1.395754 A    
C79   C80   1.408261 A    
C49   C54   1.375891 A    
C27   C36   1.487749 S    
C73   C74   1.398081 A    
C75   H56   1.080845 S    
C22   C32   1.446121 S    
C8    H8    1.069928 S    
C63   C67   1.516556 S    
C69   C70   1.389870 A    
C38   H23   1.079712 S    
C64   H45   1.100501 S    
C20   C22   1.395349 A    
C58   C59   1.397080 A    
N1    Ni1   1.851694 S    
C1    C9    1.400344 A    
C58   H37   1.080458 S    
C68   H47   1.112754 S    
C13   C21   1.383141 A    
C71   C72   1.399003 A    
N16   Ni3   1.868466 S    
C14   H10   1.065421 S    
C7    H7    1.073487 S    
C71   C80   1.461388 S    
C31   H21   1.084232 S    
C13   N9    1.332407 A    
C82   H59   1.081248 S    
C16   N12   1.330475 A    
C19   N17   1.408637 S    
C43   H28   1.081405 S    
C6    H6    1.077925 S    
C55   C56   1.399724 A    
C44   H29   1.083259 S    
C61   C65   1.557994 S    
C59   C60   1.407165 A    
C66   C67   1.544096 S    
C57   H36   1.081313 S    
N3    N5    1.386727 A    
C25   H17   1.077592 S    
C56   C57   1.397666 A    
C88   H66   1.105404 S    
C4    H4    1.081206 S    
C37   C38   1.405599 A    
C76   C77   1.429714 A    
N10   Ni2   1.876453 S    
C66   C68   1.547339 S    
C39   H24   1.080726 S    
N4    N6    1.386727 A    
C51   C52   1.399875 A    
C62   H41   1.112897 S    
C29   C30   1.396082 A    
C70   H53   1.077307 S    
C5    C11   1.381176 A    
C49   H32   1.080060 S    
N3    Ni3   1.878435 S    
C63   H49   1.112300 S    
C33   C42   1.485008 S    
N11   N14   1.403225 A    
C69   C74   1.391726 A    
C31   C36   1.395862 A    
C82   C83   1.393813 A    
C19   C21   1.393289 A    
C77   C78   1.393215 A    
