data_mof_unit_6760.cif
_audit_creation_date              2012-12-10T17:06:44-0500
_audit_creation_method            fapswitch 2.2
_symmetry_space_group_name_H-M    P1
_symmetry_Int_Tables_number       1
_space_group_crystal_system       triclinic
_cell_length_a                    15.83288
_cell_length_b                    11.100754
_cell_length_c                    10.042071
_cell_angle_alpha                 111.117096
_cell_angle_beta                  98.406159
_cell_angle_gamma                 91.976264
_cell_volume                      1621.47079571

loop_
_atom_site_label
_atom_site_type_symbol
_atom_type_description
_atom_site_fract_x
_atom_site_fract_y
_atom_site_fract_z
_atom_type_partial_charge
C1    C     C_R   0.494124 0.255083 0.441281 0.878110
C2    C     C_R   0.505992 0.744723 0.558915 0.883905
C3    C     C_2   0.512987 0.068316 0.512699 0.152614
C4    C     C_2   0.481881 0.935661 0.497873 0.141467
C5    C     C_2   0.504366 0.516368 0.081373 0.212741
C6    C     C_2   0.488022 0.496740 0.922429 0.214488
C7    C     C_R   0.340508 0.500114 0.500622 0.823039
C8    C     C_R   0.659228 0.496663 0.498760 0.817541
C9    C     C_3   0.973158 0.397009 0.553263 0.117392
C10   C     C_3   0.024873 0.564735 0.444576 0.122276
C11   C     C_3   0.019053 0.361798 0.420717 -0.027673
C12   C     C_3   0.979994 0.600337 0.578367 -0.057066
C13   C     C_1   0.251131 0.496961 0.502012 -0.198608
C14   C     C_1   0.747836 0.487033 0.495604 -0.187862
C15   C     C_3   0.038878 0.515378 0.637686 -0.054762
C16   C     C_3   0.959534 0.445123 0.360471 -0.021888
C17   C     C_3   0.084174 0.482540 0.504041 0.035583
C18   C     C_3   0.914341 0.479943 0.494691 0.046458
C19   C     C_1   0.175785 0.491731 0.503769 -0.071553
C20   C     C_1   0.822914 0.480979 0.494367 -0.063156
C21   C     C_2   0.482478 0.116652 0.411720 -0.344261
C22   C     C_2   0.519322 0.882739 0.589932 -0.353791
Cu1   Cu    Cu3+1 0.514700 0.521810 0.644910 0.930026
Cu2   Cu    Cu3+1 0.485300 0.478190 0.355090 0.929463
H1    H     H_    0.567262 0.937673 0.683322 0.097780
H2    H     H_    0.441515 0.057266 0.311115 0.115261
N1    N     N_2   0.463210 0.445420 0.137360 -0.241730
N2    N     N_2   0.536790 0.554580 0.862640 -0.242822
O1    O     O_R   0.507840 0.332340 0.577400 -0.560070
O2    O     O_R   0.492160 0.667660 0.422600 -0.561812
O3    O     O_R   0.483020 0.295500 0.332650 -0.587802
O4    O     O_R   0.516980 0.704500 0.667350 -0.599196
O5    O     O_R   0.391490 0.518400 0.622350 -0.599980
O6    O     O_R   0.608510 0.481600 0.377650 -0.602054
O7    O     O_R   0.366660 0.481570 0.377600 -0.577275
O8    O     O_R   0.633340 0.518430 0.622400 -0.567445
C23   C     C_R   0.042216 0.227825 0.334451 0.129168
C24   C     C_R   0.993095 0.115799 0.324043 -0.144076
C25   C     C_R   0.018770 0.992797 0.253727 -0.149016
C26   C     C_R   0.092681 0.980453 0.191007 -0.095652
C27   C     C_R   0.139645 0.090497 0.194820 -0.169723
C28   C     C_R   0.113745 0.213313 0.263577 -0.158096
H3    H     H_    0.935005 0.122623 0.369865 0.162568
H4    H     H_    0.981540 0.907155 0.248407 0.117132
H5    H     H_    0.112917 0.885876 0.136811 0.151379
H6    H     H_    0.195877 0.080492 0.143462 0.133736
H7    H     H_    0.149879 0.296195 0.260481 0.135402
C29   C     C_R   0.970292 0.737813 0.675451 0.116032
C30   C     C_R   0.044041 0.826055 0.735569 -0.140134
C31   C     C_R   0.039831 0.948662 0.839200 -0.138492
C32   C     C_R   0.962528 0.983701 0.886404 -0.088794
C33   C     C_R   0.888427 0.898416 0.825537 -0.152615
C34   C     C_R   0.892042 0.776067 0.720375 -0.158065
H8    H     H_    0.105655 0.798289 0.706462 0.122018
H9    H     H_    0.097103 0.015007 0.885998 0.121207
H10   H     H_    0.960473 0.075773 0.972273 0.167073
H11   H     H_    0.828454 0.926120 0.862026 0.132183
H12   H     H_    0.834178 0.711540 0.679982 0.143621
N3    N     N_3   0.941948 0.304847 0.611063 -0.615770
H13   H     H_    0.995425 0.266168 0.648361 0.216146
H14   H     H_    0.913835 0.357660 0.699385 0.226483
N4    N     N_3   0.052405 0.656993 0.383379 -0.625635
H15   H     H_    0.002508 0.715435 0.379213 0.214453
H16   H     H_    0.104634 0.717198 0.455023 0.215870
C35   C     C_R   0.923170 0.392950 0.201397 0.118950
C36   C     C_R   0.979836 0.378074 0.103043 -0.129269
C37   C     C_R   0.951577 0.312711 0.955273 -0.176863
C38   C     C_R   0.866051 0.261570 0.903442 -0.143177
C39   C     C_R   0.808989 0.275325 0.000411 -0.174005
C40   C     C_R   0.837336 0.340371 0.148984 -0.156062
H17   H     H_    0.046979 0.412627 0.141405 0.154172
H18   H     H_    0.997391 0.297952 0.882639 0.142399
H19   H     H_    0.844446 0.208543 0.788853 0.150315
H20   H     H_    0.743128 0.233742 0.960711 0.124905
H21   H     H_    0.792598 0.344665 0.221344 0.146127
C41   C     C_R   0.075484 0.550170 0.795710 0.119433
C42   C     C_R   0.021202 0.592852 0.898825 -0.142579
C43   C     C_R   0.053692 0.630370 0.046003 -0.147880
C44   C     C_R   0.140477 0.623566 0.092003 -0.126218
C45   C     C_R   0.194639 0.578659 0.990289 -0.164593
C46   C     C_R   0.162344 0.541409 0.842647 -0.152230
H22   H     H_    0.953703 0.598281 0.865453 0.135823
H23   H     H_    0.011212 0.665136 0.123789 0.146635
H24   H     H_    0.165969 0.653153 0.206166 0.159099
H25   H     H_    0.261796 0.573187 0.025921 0.136987
H26   H     H_    0.205494 0.505294 0.766820 0.141291
N5    N     N_3   0.408239 0.866037 0.391399 -0.576261
H27   H     H_    0.356648 0.922791 0.409168 0.212888
H28   H     H_    0.421050 0.851588 0.288000 0.204284
N6    N     N_3   0.577354 0.145426 0.633908 -0.567396
H29   H     H_    0.554704 0.156604 0.729893 0.213103
H30   H     H_    0.633252 0.097768 0.630763 0.203162
N7    N     N_3   0.406405 0.430795 0.843573 -0.612735
H31   H     H_    0.412088 0.360891 0.744029 0.271915
H32   H     H_    0.364114 0.498638 0.835004 0.232013
N8    N     N_3   0.555988 0.633194 0.174218 -0.612482
H33   H     H_    0.517050 0.705788 0.217846 0.244369
H34   H     H_    0.601228 0.618609 0.251447 0.268230
C47   C     C_R   0.620958 0.612425 0.932175 0.336039
C48   C     C_R   0.687541 0.535411 0.947034 -0.135775
C49   C     C_R   0.771842 0.592560 0.001306 -0.165777
C50   C     C_R   0.789972 0.726133 0.040883 -0.124553
C51   C     C_R   0.723946 0.803067 0.026124 -0.182910
C52   C     C_R   0.639808 0.746270 0.970630 -0.126985
H35   H     H_    0.674162 0.431484 0.913590 0.123295
H36   H     H_    0.823520 0.533646 0.011076 0.166594
H37   H     H_    0.855267 0.769755 0.081708 0.126531
H38   H     H_    0.738106 0.906455 0.056095 0.131144
H39   H     H_    0.589271 0.806266 0.957119 0.128582
C53   C     C_R   0.420876 0.321317 0.048732 0.345375
C54   C     C_R   0.468116 0.217359 0.984495 -0.170829
C55   C     C_R   0.425903 0.093954 0.903921 -0.165734
C56   C     C_R   0.336605 0.074070 0.886470 -0.107535
C57   C     C_R   0.289538 0.177234 0.951525 -0.193172
C58   C     C_R   0.331625 0.300037 0.034322 -0.123612
H40   H     H_    0.537342 0.231950 0.998545 0.105776
H41   H     H_    0.462390 0.013582 0.855992 0.138809
H42   H     H_    0.303981 0.978647 0.823512 0.128320
H43   H     H_    0.220541 0.162208 0.938650 0.124657
H44   H     H_    0.294762 0.378804 0.086084 0.131670

loop_
_geom_bond_atom_site_label_1
_geom_bond_atom_site_label_2
_ccdc_geom_bond_type
N5    H27   S    
C1    C21   S    
C49   C50   A    
C27   C28   A    
C54   C55   A    
Cu2   N1    S    
C21   H2    S    
C57   C58   A    
C4    N5    S    
C42   C43   A    
C48   H35   S    
N7    H31   S    
C3    N6    S    
C5    C6    S    
Cu1   O1    S    
C23   C24   A    
C37   H18   S    
C44   H24   S    
C10   C17   S    
C30   H8    S    
C1    O3    A    
C2    O4    A    
C32   H10   S    
C8    O8    A    
C23   C28   A    
C11   C23   S    
C53   C54   A    
N4    H16   S    
C50   C51   A    
C5    N1    D    
C43   H23   S    
C6    N2    D    
C36   H17   S    
N1    C53   S    
C38   C39   A    
Cu1   O5    S    
C22   H1    S    
N8    H34   S    
C2    C22   S    
C27   H6    S    
C54   H40   S    
C46   H26   S    
C12   C29   S    
C56   H42   S    
C47   C52   A    
N3    H13   S    
N7    H32   S    
C7    O5    A    
C10   N4    S    
C55   C56   A    
C29   C34   A    
N3    H14   S    
Cu2   O7    S    
C13   C19   T    
C32   C33   A    
C14   C20   T    
C39   H20   S    
C41   C42   A    
C25   C26   A    
C43   C44   A    
C38   H19   S    
Cu2   O6    S    
C37   C38   A    
C9    N3    S    
C45   H25   S    
C4    C22   D    
C11   C16   S    
N6    H30   S    
C47   C48   A    
C12   C15   S    
Cu1   Cu2   S    
C6    N7    S    
N8    H33   S    
N4    H15   S    
C1    O1    A    
C31   C32   A    
C50   H37   S    
C8    O6    A    
Cu1   N2    S    
C9    C11   S    
C51   H38   S    
C10   C12   S    
N2    C47   S    
C29   C30   A    
Cu1   O8    S    
N5    H28   S    
C30   C31   A    
C3    C21   D    
C3    C4    S    
C51   C52   A    
C5    N8    S    
C33   C34   A    
C56   C57   A    
C49   H36   S    
C15   C17   S    
C26   C27   A    
C8    C14   S    
C7    O7    A    
C57   H43   S    
C45   C46   A    
C11   C17   S    
C41   C46   A    
C34   H12   S    
C58   H44   S    
C25   H4    S    
C31   H9    S    
C55   H41   S    
C2    O2    A    
Cu1   O4    S    
C9    C15   S    
Cu2   O3    S    
C24   H3    S    
C10   C16   S    
N6    H29   S    
C24   C25   A    
C42   H22   S    
C48   C49   A    
C17   C19   S    
C36   C37   A    
C18   C20   S    
C28   H7    S    
C39   C40   A    
Cu2   O2    S    
C33   H11   S    
C44   C45   A    
C9    C18   S    
C7    C13   S    
C26   H5    S    
C16   C18   S    
C35   C36   A    
C12   C18   S    
C40   H21   S    
C52   H39   S    
C15   C41   S    
C16   C35   S    
C53   C58   A    
C35   C40   A    
