data_mof_unit_28868.cif
_audit_creation_date              2012-10-26T18:35:51-0400
_audit_creation_method            fapswitch 2.2
_symmetry_space_group_name_H-M    P1
_symmetry_Int_Tables_number       1
_space_group_crystal_system       triclinic
_cell_length_a                    10.874744
_cell_length_b                    12.72527
_cell_length_c                    13.881899
_cell_angle_alpha                 98.149541
_cell_angle_beta                  90.039371
_cell_angle_gamma                 92.230748
_cell_volume                      1900.15531682

loop_
_atom_site_label
_atom_site_type_symbol
_atom_type_description
_atom_site_fract_x
_atom_site_fract_y
_atom_site_fract_z
_atom_type_partial_charge
C1    C     C_R   0.498262 0.483457 0.315772 0.604511
C2    C     C_1   0.498466 0.473781 0.212349 0.065107
C3    C     C_2   0.464121 0.028952 0.479636 -0.149314
C4    C     C_R   0.259800 0.501979 0.498396 0.604045
C5    C     C_2   0.543482 0.971019 0.524523 0.235320
C6    C     C_1   0.528383 0.854434 0.518520 0.198681
C7    C     C_1   0.474007 0.145666 0.482848 0.228976
C8    C     C_R   0.501550 0.516570 0.684227 0.581683
C9    C     C_R   0.740570 0.498556 0.499252 0.581189
C10   C     C_3   0.070231 0.418893 0.409281 -0.137583
C11   C     C_3   0.925095 0.416582 0.407444 0.140499
C12   C     C_3   0.878470 0.496111 0.496048 -0.059208
C13   C     C_3   0.072270 0.465445 0.591773 0.063590
C14   C     C_3   0.072255 0.622737 0.484483 0.183797
C15   C     C_3   0.122744 0.506492 0.495663 -0.017784
C16   C     C_3   0.139277 0.407765 0.309938 -0.168344
C17   C     C_3   0.140174 0.291636 0.259439 -0.293152
C18   C     C_3   0.195123 0.284235 0.157651 -0.411058
C19   C     C_3   0.872913 0.363555 0.628885 -0.250638
C20   C     C_3   0.769536 0.383870 0.704265 -0.261144
C21   C     C_3   0.814316 0.383702 0.808547 -0.399216
C22   C     C_3   0.113874 0.713882 0.569327 -0.191078
C23   C     C_3   0.929480 0.467936 0.595544 -0.189629
C24   C     C_3   0.043493 0.819047 0.578132 -0.288714
C25   C     C_3   0.128274 0.916856 0.608190 -0.410181
C26   C     C_3   0.929330 0.610801 0.486711 -0.199395
C27   C     C_1   0.501869 0.526263 0.787716 0.041257
C28   C     C_2   0.501802 0.543579 0.978712 -0.101282
C29   C     C_2   0.499496 0.456129 0.021310 -0.125535
C30   C     C_1   0.498954 0.465106 0.125199 -0.014318
C31   C     C_1   0.501927 0.534781 0.874848 -0.027907
Cu1   Cu    Cu3+1 0.491980 0.395330 0.493960 1.071821
Cu2   Cu    Cu3+1 0.508020 0.604670 0.506040 1.113906
H1    H     H_    0.091703 0.341760 0.433378 0.090202
H2    H     H_    0.225242 0.437950 0.822754 0.372426
H3    H     H_    0.823902 0.982716 0.670586 0.360724
H4    H     H_    0.141569 0.330545 0.111372 0.201190
H5    H     H_    0.292130 0.315060 0.161934 0.151480
H6    H     H_    0.193111 0.199931 0.123216 0.162702
H7    H     H_    0.196683 0.244645 0.303306 0.154385
H8    H     H_    0.045849 0.254646 0.254688 0.227898
H9    H     H_    0.102916 0.459906 0.260963 0.282373
H10   H     H_    0.237288 0.432744 0.320700 0.156522
H11   H     H_    0.859872 0.389029 0.136840 0.376045
H12   H     H_    0.892515 0.662736 0.550247 0.104431
H13   H     H_    0.851352 0.305369 0.816978 0.178793
H14   H     H_    0.886771 0.446758 0.828058 0.225950
H15   H     H_    0.736225 0.398816 0.859476 0.145171
H16   H     H_    0.728553 0.461108 0.699531 0.144886
H17   H     H_    0.695806 0.320851 0.688358 0.224711
H18   H     H_    0.836302 0.308167 0.565877 0.184103
H19   H     H_    0.944162 0.317999 0.660502 0.187741
H20   H     H_    0.173388 0.911380 0.679025 0.168723
H21   H     H_    0.200087 0.923699 0.552366 0.188402
H22   H     H_    0.073680 0.989506 0.615957 0.162015
H23   H     H_    0.905563 0.535173 0.651471 0.194878
H24   H     H_    0.993990 0.828295 0.510283 0.219325
H25   H     H_    0.971550 0.818272 0.635004 0.169575
H26   H     H_    0.098538 0.686723 0.639767 0.200369
H27   H     H_    0.213375 0.733637 0.564113 0.219156
H28   H     H_    0.074110 0.827678 0.343847 0.365681
H29   H     H_    0.497867 0.377641 0.978516 0.142992
H30   H     H_    0.503386 0.622046 0.021534 0.166107
H31   H     H_    0.387401 0.987608 0.438474 0.096222
H32   H     H_    0.896441 0.335650 0.421852 0.125617
H33   H     H_    0.097405 0.380956 0.584602 0.150767
H34   H     H_    0.887567 0.641795 0.424468 0.230467
N1    N     N_1   0.479930 0.238040 0.484880 -0.172593
N2    N     N_1   0.520070 0.761960 0.515120 -0.184185
O1    O     O_R   0.492240 0.399110 0.356330 -0.487276
O2    O     O_2   0.055686 0.573535 0.777886 -0.314766
O3    O     O_3   0.188989 0.408036 0.758767 -0.527531
O4    O     O_2   0.748607 0.094317 0.528269 -0.306601
O5    O     O_2   0.624140 0.108952 0.676414 -0.297350
O6    O     O_3   0.754834 0.941730 0.634563 -0.532043
O7    O     O_2   0.732768 0.346619 0.291348 -0.279475
O8    O     O_2   0.795552 0.531767 0.289337 -0.266113
O9    O     O_3   0.919832 0.386425 0.190123 -0.548109
O10   O     O_2   0.243042 0.626728 0.335135 -0.278145
O11   O     O_2   0.028467 0.636782 0.289933 -0.260212
O12   O     O_R   0.505790 0.575900 0.366540 -0.456596
O13   O     O_3   0.141105 0.802729 0.382250 -0.535426
O14   O     O_R   0.310920 0.411610 0.494880 -0.523668
O15   O     O_R   0.324460 0.588390 0.505090 -0.458881
O16   O     O_R   0.494210 0.424100 0.633460 -0.497218
O17   O     O_R   0.507760 0.600890 0.643670 -0.476008
O18   O     O_R   0.675540 0.411610 0.494910 -0.480339
O19   O     O_R   0.689080 0.588390 0.505120 -0.507080
O20   O     O_2   0.254962 0.585475 0.700089 -0.305311
S1    S     S_3+6 0.144249 0.513843 0.709485 -0.049802
S2    S     S_3+6 0.670333 0.033465 0.592310 -0.000374
S3    S     S_3+6 0.842020 0.422849 0.293106 0.007383
S4    S     S_3+6 0.121731 0.669562 0.369567 -0.013212

loop_
_geom_bond_atom_site_label_1
_geom_bond_atom_site_label_2
_ccdc_geom_bond_type
C6    N2    T    
C24   C25   S    
O8    S3    D    
C13   S1    S    
C19   C20   S    
Cu2   O17   S    
C23   H23   S    
C3    H31   S    
C4    O14   A    
C12   C23   S    
C29   C30   S    
C26   H34   S    
C8    O16   A    
C28   C29   D    
Cu2   O19   S    
C25   H20   S    
O10   S4    D    
C3    C7    S    
C10   C15   S    
C9    O19   A    
C22   H27   S    
C5    C6    S    
C1    O12   A    
C13   C23   S    
C1    C2    S    
C20   H17   S    
C26   H12   S    
C7    N1    T    
C19   H19   S    
O11   S4    D    
C16   C17   S    
C14   S4    S    
O6    S2    S    
Cu1   N1    S    
C21   H15   S    
O13   S4    S    
C11   S3    S    
C9    C12   S    
C13   H33   S    
C27   C31   T    
C25   H21   S    
O4    S2    D    
C22   H26   S    
C24   H24   S    
Cu1   O1    S    
O9    S3    S    
Cu1   O18   S    
C12   C26   S    
C17   H7    S    
O5    S2    D    
C19   C23   S    
C18   H6    S    
C20   H16   S    
H3    O6    S    
O3    S1    S    
C4    O15   A    
C17   C18   S    
C10   H1    S    
C14   C26   S    
C16   H10   S    
C5    S2    S    
O7    S3    D    
H2    O3    S    
C13   C15   S    
C22   C24   S    
C16   H9    S    
C21   H13   S    
Cu1   O14   S    
C29   H29   S    
C18   H4    S    
C28   C31   S    
C25   H22   S    
C3    C5    D    
C11   C12   S    
Cu2   N2    S    
C1    O1    A    
C2    C30   T    
Cu1   Cu2   S    
C14   C22   S    
C4    C15   S    
H11   O9    S    
C18   H5    S    
C10   C16   S    
C9    O18   A    
O2    S1    D    
Cu1   O16   S    
C8    O17   A    
Cu2   O15   S    
C17   H8    S    
C10   C11   S    
C28   H30   S    
C19   H18   S    
H28   O13   S    
C20   C21   S    
C24   H25   S    
C8    C27   S    
C14   C15   S    
O20   S1    D    
Cu2   O12   S    
C11   H32   S    
C21   H14   S    
