data_mof_unit_46419.cif
_audit_creation_date              2012-10-26T19:42:20-0400
_audit_creation_method            fapswitch 2.2
_symmetry_space_group_name_H-M    P1
_symmetry_Int_Tables_number       1
_space_group_crystal_system       triclinic
_cell_length_a                    9.605591
_cell_length_b                    10.774841
_cell_length_c                    17.297139
_cell_angle_alpha                 92.541049
_cell_angle_beta                  86.153924
_cell_angle_gamma                 90.080396
_cell_volume                      1784.44124177

loop_
_atom_site_label
_atom_site_type_symbol
_atom_type_description
_atom_site_fract_x
_atom_site_fract_y
_atom_site_fract_z
_atom_type_partial_charge
C1    C     C_R   0.499750 0.737391 0.502571 0.543049
C2    C     C_R   0.526321 0.499511 0.265308 0.011866
C3    C     C_R   0.340344 0.879119 0.626646 -0.081019
C4    C     C_R   0.481946 0.496784 0.649647 0.538615
C5    C     C_R   0.262577 0.947905 0.684544 0.252132
C6    C     C_R   0.262265 0.077114 0.684410 -0.069860
C7    C     C_R   0.339494 0.138086 0.626463 -0.140901
C8    C     C_R   0.417242 0.070189 0.566441 0.017717
C9    C     C_R   0.417578 0.938935 0.566538 -0.013076
C10   C     C_R   0.499388 0.871572 0.507892 0.008963
C11   C     C_R   0.583796 0.932718 0.452929 -0.137499
C12   C     C_R   0.349351 0.507412 0.778224 -0.119329
C13   C     C_R   0.583567 0.060735 0.452841 -0.145406
C14   C     C_R   0.498923 0.129484 0.507717 0.019886
C15   C     C_R   0.868352 0.335247 0.396698 -0.088411
C16   C     C_R   0.499621 0.262918 0.502397 0.525725
C17   C     C_R   0.946487 0.254804 0.346155 -0.171099
C18   C     C_R   0.089943 0.254717 0.346195 -0.166151
C19   C     C_R   0.156155 0.335050 0.396793 -0.085950
C20   C     C_R   0.080796 0.418951 0.449266 0.157462
C21   C     C_R   0.931270 0.419028 0.449250 0.159516
C22   C     C_R   0.920435 0.576987 0.548343 0.009474
C23   C     C_R   0.409028 0.499449 0.145846 -0.105410
C24   C     C_R   0.068286 0.576956 0.548328 0.007908
C25   C     C_R   0.517994 0.499904 0.350087 0.532881
C26   C     C_R   0.473042 0.480214 0.733120 -0.032683
C27   C     C_R   0.587315 0.430056 0.767429 -0.081691
C28   C     C_R   0.580086 0.409947 0.846396 0.253730
C29   C     C_R   0.457942 0.443224 0.892224 0.042670
C30   C     C_R   0.342021 0.488933 0.857491 -0.126347
C31   C     C_R   0.403037 0.501027 0.226188 -0.126798
C32   C     C_R   0.656027 0.497837 0.222748 -0.131600
C33   C     C_R   0.661902 0.496392 0.142031 -0.097546
C34   C     C_R   0.538550 0.495067 0.103209 0.040064
C35   C     C_2   0.449922 0.437167 0.976661 -0.086468
C36   C     C_2   0.547557 0.491815 0.018239 -0.082536
Cl1   Cl    Cl    0.167498 0.871498 0.758425 -0.597258
Cl2   Cl    Cl    0.723221 0.337208 0.884502 -0.594255
Cu1   Cu    Cu3+1 0.359340 0.500010 0.500010 0.925513
Cu2   Cu    Cu3+1 0.640660 0.499990 0.499990 0.939219
H1    H     H_    0.681613 0.403985 0.732632 0.170076
H2    H     H_    0.894996 0.191937 0.306680 0.124825
H3    H     H_    0.301512 0.503763 0.257523 0.135004
H4    H     H_    0.150724 0.191805 0.306730 0.129443
H5    H     H_    0.266452 0.327069 0.392078 0.183908
H6    H     H_    0.118751 0.640091 0.587978 0.137979
H7    H     H_    0.752616 0.497192 0.251644 0.131370
H8    H     H_    0.638047 0.534260 0.988939 0.172514
H9    H     H_    0.247154 0.513571 0.892196 0.146192
H10   H     H_    0.312159 0.503541 0.117534 0.110231
H11   H     H_    0.259381 0.544573 0.752494 0.170090
H12   H     H_    0.762627 0.494434 0.109797 0.131204
H13   H     H_    0.357733 0.395680 0.004578 0.123924
H14   H     H_    0.647793 0.880815 0.408716 0.130677
H15   H     H_    0.341523 0.779262 0.630437 0.150321
H16   H     H_    0.203485 0.130762 0.729879 0.166313
H17   H     H_    0.339410 0.238431 0.630300 0.151822
H18   H     H_    0.647437 0.106430 0.408559 0.110335
H19   H     H_    0.860646 0.640147 0.587992 0.139200
H20   H     H_    0.759221 0.327405 0.391877 0.178132
N1    N     N_R   0.852190 0.498790 0.499250 -0.248467
N2    N     N_R   0.148060 0.498710 0.499220 -0.248791
O1    O     O_R   0.381190 0.680360 0.500010 -0.502813
O2    O     O_R   0.618760 0.680340 0.500000 -0.494299
O3    O     O_R   0.367440 0.500030 0.613600 -0.513799
O4    O     O_R   0.605010 0.500010 0.613590 -0.499583
O5    O     O_R   0.381240 0.319660 0.500000 -0.527030
O6    O     O_R   0.618810 0.319640 0.499990 -0.514468
O7    O     O_R   0.394990 0.499990 0.386410 -0.523508
O8    O     O_R   0.632560 0.499970 0.386400 -0.525898

loop_
_geom_bond_atom_site_label_1
_geom_bond_atom_site_label_2
_ccdc_geom_bond_type
C4    C26   S    
C19   H5    S    
C6    C7    A    
C3    C9    A    
C5    Cl1   S    
C35   H13   S    
Cu1   O1    S    
C9    C10   A    
C27   H1    S    
C21   N1    A    
C19   C20   A    
Cu2   O2    S    
C28   Cl2   S    
C23   C34   A    
C24   H6    S    
C32   C33   A    
C17   C18   A    
Cu1   O7    S    
C7    C8    A    
C16   O5    A    
Cu2   O4    S    
C13   C14   A    
C33   H12   S    
C4    O4    A    
C11   C13   A    
C26   C27   A    
C29   C30   A    
C11   H14   S    
Cu2   O8    S    
C16   O6    A    
C1    O1    A    
C22   C24   A    
C27   C28   A    
C28   C29   A    
C30   H9    S    
C33   C34   A    
Cu1   O3    S    
C36   H8    S    
C2    C25   S    
C34   C36   S    
C20   N2    A    
C5    C6    A    
C32   H7    S    
C14   C16   S    
C15   C21   A    
C25   O7    A    
C10   C11   A    
C1    C10   S    
Cu2   O6    S    
C1    O2    A    
C3    C5    A    
C18   H4    S    
Cu1   Cu2   S    
C12   H11   S    
C20   C21   A    
C2    C32   A    
C18   C19   A    
C15   H20   S    
C12   C26   A    
C22   H19   S    
C15   C17   A    
Cu1   N2    S    
C29   C35   S    
C4    O3    A    
C8    C9    A    
C23   H10   S    
C24   N2    A    
C25   O8    A    
C8    C14   A    
C12   C30   A    
C3    H15   S    
C17   H2    S    
Cu1   O5    S    
C7    H17   S    
C31   H3    S    
Cu2   N1    S    
C13   H18   S    
C6    H16   S    
C2    C31   A    
C22   N1    A    
C35   C36   D    
C23   C31   A    
