data_mof_unit_15366.cif
_audit_creation_date              2012-12-10T20:30:14-0500
_audit_creation_method            fapswitch 2.2
_symmetry_space_group_name_H-M    P1
_symmetry_Int_Tables_number       1
_space_group_crystal_system       triclinic
_cell_length_a                    9.982196
_cell_length_b                    10.631757
_cell_length_c                    13.111043
_cell_angle_alpha                 92.29644
_cell_angle_beta                  70.241378
_cell_angle_gamma                 88.238488
_cell_volume                      1307.0274462

loop_
_atom_site_label
_atom_site_type_symbol
_atom_type_description
_atom_site_fract_x
_atom_site_fract_y
_atom_site_fract_z
_atom_type_partial_charge
Br1   Br    Br    0.210191 0.895915 0.682693 -0.384930
Br2   Br    Br    0.124545 0.878326 0.456781 -0.360549
Br3   Br    Br    0.243395 0.328423 0.310829 -0.487965
Br4   Br    Br    0.006012 0.645717 0.807197 -0.342291
Br5   Br    Br    0.773351 0.799786 0.626083 -0.325858
Br6   Br    Br    0.109728 0.354645 0.831749 -0.463906
Br7   Br    Br    0.238149 0.619411 0.173967 -0.401018
Br8   Br    Br    0.826386 0.834996 0.349844 -0.300486
C1    C     C_R   0.503447 0.739066 0.489287 0.959335
C2    C     C_R   0.377203 0.454526 0.817288 -0.159290
C3    C     C_R   0.393419 0.940816 0.465153 0.027584
C4    C     C_R   0.422478 0.485105 0.702274 0.944607
C5    C     C_R   0.514740 0.868481 0.459027 -0.199506
C6    C     C_R   0.647537 0.926697 0.420308 0.324766
C7    C     C_R   0.648069 0.058416 0.428380 -0.177878
C8    C     C_R   0.517502 0.128059 0.463352 -0.101884
C9    C     C_R   0.396291 0.068305 0.463008 0.054353
C10   C     C_3   0.244116 0.089489 0.532517 -0.407688
C11   C     C_3   0.240694 0.947413 0.536038 0.435414
C12   C     C_R   0.449920 0.479400 0.975128 0.017259
C13   C     C_R   0.887820 0.533853 0.591751 0.025626
C14   C     C_R   0.965727 0.441988 0.417711 -0.054163
C15   C     C_R   0.108570 0.438748 0.418482 0.343666
C16   C     C_R   0.505687 0.260172 0.490700 0.938437
C17   C     C_R   0.028137 0.532501 0.592880 0.064975
C18   C     C_3   0.992631 0.651261 0.664487 0.089152
C19   C     C_3   0.838349 0.644804 0.670257 0.075935
C20   C     C_R   0.579476 0.497972 0.296229 0.849548
C21   C     C_R   0.757958 0.326116 0.030032 -0.106905
C22   C     C_R   0.630167 0.469180 0.180364 -0.014610
C23   C     C_R   0.478018 0.428041 0.867603 -0.034575
C24   C     C_R   0.234661 0.456108 0.881565 0.263157
C25   C     C_R   0.197669 0.497761 0.990552 -0.192889
C26   C     C_R   0.305921 0.526917 0.033807 0.174138
C27   C     C_2   0.046955 0.502536 0.061824 1.091494
C28   C     C_2   0.605432 0.253819 0.723968 1.004298
C29   C     C_R   0.559273 0.461665 0.021368 0.106596
C30   C     C_R   0.672872 0.370823 0.972094 0.174797
C31   C     C_R   0.692673 0.315833 0.870250 -0.268699
C32   C     C_R   0.596569 0.341805 0.817415 -0.127448
C33   C     C_R   0.556037 0.522026 0.118842 -0.139009
C34   C     C_R   0.729058 0.368892 0.136823 -0.117826
H1    H     H_    0.780439 0.321461 0.186236 0.180173
H2    H     H_    0.497256 0.609238 0.149592 0.195248
H3    H     H_    0.083665 0.373543 0.158636 0.331196
H4    H     H_    0.818188 0.268029 0.650502 0.300340
H5    H     H_    0.747974 0.104799 0.410190 0.202654
H6    H     H_    0.230885 0.139526 0.611724 0.243752
H7    H     H_    0.178794 0.131631 0.487652 0.234875
H8    H     H_    0.941302 0.393424 0.352805 0.189333
H9    H     H_    0.047239 0.730468 0.620826 0.215650
H10   H     H_    0.764823 0.616003 0.749573 0.164636
H11   H     H_    0.777329 0.243846 0.835838 0.186153
H12   H     H_    0.838186 0.250619 0.996127 0.183298
N1    N     N_R   0.856940 0.500860 0.500710 -0.095790
N2    N     N_R   0.142580 0.500820 0.500710 -0.117547
O1    O     O_R   0.385310 0.683210 0.499990 -0.590621
O2    O     O_R   0.004933 0.433363 0.154559 -0.802963
O3    O     O_2   0.497740 0.206114 0.719404 -0.572650
O4    O     O_R   0.736270 0.218249 0.644041 -0.737718
O5    O     O_R   0.614650 0.683240 0.500000 -0.538509
O6    O     O_R   0.328390 0.499940 0.653610 -0.549232
O7    O     O_R   0.557730 0.499980 0.653620 -0.636969
O8    O     O_R   0.385350 0.316760 0.500000 -0.602325
O9    O     O_R   0.614690 0.316790 0.500010 -0.615351
O10   O     O_R   0.442270 0.500020 0.346380 -0.564630
O11   O     O_R   0.671610 0.500060 0.346390 -0.595890
O12   O     O_2   0.958667 0.568921 0.041190 -0.497007
Zn1   Zn    Zn3+2 0.346870 0.499980 0.499990 1.059066
Zn2   Zn    Zn3+2 0.653130 0.500020 0.500010 1.035063

loop_
_geom_bond_atom_site_label_1
_geom_bond_atom_site_label_2
_ccdc_geom_bond_type
C21   C30   A    
O5    Zn2   S    
C20   O10   A    
O7    Zn2   S    
C22   C33   A    
C29   C30   A    
C5    C6    A    
C21   C34   A    
N1    Zn2   S    
C4    O6    A    
Br4   C18   S    
C6    C7    A    
C17   N2    A    
C7    H5    S    
C14   H8    S    
C28   O3    D    
C12   C26   A    
C24   C25   A    
O11   Zn2   S    
C20   C22   S    
C9    C10   S    
C13   C19   S    
C15   N2    A    
C8    C16   S    
C31   H11   S    
O8    Zn1   S    
C23   C32   A    
C13   C17   A    
C12   C29   A    
C3    C5    A    
C3    C11   S    
C18   C19   S    
C14   N1    A    
C2    C4    S    
C16   O9    A    
C27   O2    S    
C1    O5    A    
C27   O12   D    
C25   C27   S    
C25   C26   A    
C1    O1    A    
C29   C33   A    
C30   C31   A    
C33   H2    S    
Br2   C11   S    
H3    O2    S    
Br1   C11   S    
C18   H9    S    
C21   H12   S    
O9    Zn2   S    
O10   Zn1   S    
C2    C24   A    
C28   C32   S    
C20   O11   A    
C19   H10   S    
O1    Zn1   S    
C16   O8    A    
N2    Zn1   S    
C34   H1    S    
Br7   C26   S    
C31   C32   A    
C13   N1    A    
C4    O7    A    
C1    C5    S    
C14   C15   A    
C10   C11   S    
Br6   C24   S    
Br8   C6    S    
H4    O4    S    
C17   C18   S    
Br5   C19   S    
Br3   C15   S    
C2    C23   A    
C22   C34   A    
O6    Zn1   S    
C7    C8    A    
C10   H7    S    
C10   H6    S    
C8    C9    A    
C28   O4    S    
C12   C23   A    
C3    C9    A    
