data_mof_unit_68438.cif
_audit_creation_date              2012-12-11T14:19:15-0500
_audit_creation_method            fapswitch 2.2
_symmetry_space_group_name_H-M    P1
_symmetry_Int_Tables_number       1
_space_group_crystal_system       triclinic
_cell_length_a                    8.203517
_cell_length_b                    12.580943
_cell_length_c                    15.12116
_cell_angle_alpha                 95.617988
_cell_angle_beta                  99.302126
_cell_angle_gamma                 97.386962
_cell_volume                      1516.04814522

loop_
_atom_site_label
_atom_site_type_symbol
_atom_type_description
_atom_site_fract_x
_atom_site_fract_y
_atom_site_fract_z
_atom_type_partial_charge
Ba1   Ba    Ba6+2 0.153570 0.551840 0.456200 1.636000
Ba2   Ba    Ba6+2 0.656590 0.448150 0.543720 1.630403
C1    C     C_3   0.283545 0.818056 0.116518 -0.358358
C2    C     C_R   0.726112 0.815631 0.468609 -0.282577
C3    C     C_R   0.693523 0.995350 0.431879 -0.095409
C4    C     C_3   0.856158 0.836271 0.255004 0.349346
C5    C     C_R   0.627311 0.886984 0.430316 0.002316
C6    C     C_R   0.888120 0.851162 0.514790 0.049498
C7    C     C_R   0.954610 0.963481 0.521527 -0.062052
C8    C     C_R   0.855892 0.036665 0.478673 -0.061787
C9    C     C_R   0.921962 0.149072 0.485800 0.052265
C10   C     C_R   0.182464 0.113473 0.570944 -0.001027
C11   C     C_R   0.116947 0.004843 0.568440 -0.084092
C12   C     C_3   0.342570 0.786334 0.209687 0.344909
C13   C     C_R   0.230460 0.463522 0.767514 -0.283391
C14   C     C_R   0.131645 0.427018 0.827977 0.018641
C15   C     C_R   0.196459 0.439381 0.920759 -0.129956
C16   C     C_3   0.807147 0.936085 0.211386 -0.241793
C17   C     C_R   0.362931 0.490351 0.954653 0.008435
C18   C     C_R   0.457068 0.530338 0.890715 -0.128087
C19   C     C_R   0.389449 0.519398 0.798877 0.039756
C20   C     C_R   0.600067 0.560190 0.087568 -0.143447
C21   C     C_R   0.667637 0.574418 0.179349 0.012984
C22   C     C_R   0.414152 0.479852 0.212344 0.064900
C23   C     C_3   0.607087 0.778059 0.677939 0.269855
C24   C     C_R   0.345753 0.463463 0.119716 -0.116778
C25   C     C_R   0.435855 0.505472 0.054832 0.007030
C26   C     C_R   0.572594 0.538325 0.241688 -0.281205
C27   C     C_3   0.724255 0.310103 0.270666 0.303160
C28   C     C_3   0.676831 0.276960 0.169245 -0.392457
C29   C     C_3   0.086982 0.690317 0.729442 0.300913
C30   C     C_3   0.153655 0.726481 0.829312 -0.397293
C31   C     C_3   0.219162 0.224244 0.343357 0.271007
C32   C     C_3   0.233062 0.104672 0.331023 -0.323083
C33   C     C_R   0.802310 0.923098 0.110876 0.128081
C34   C     C_3   0.570014 0.892904 0.675272 -0.338674
C35   C     C_R   0.923424 0.983785 0.073136 -0.052780
C36   C     C_R   0.931372 0.961148 0.981862 -0.089835
C37   C     C_R   0.814795 0.880771 0.927041 -0.070797
C38   C     C_R   0.689946 0.823326 0.963337 -0.069058
C39   C     C_R   0.685220 0.843127 0.055085 -0.032256
C40   C     C_3   0.912203 0.162323 0.736615 0.341308
C41   C     C_3   0.947302 0.057428 0.771368 -0.411878
C42   C     C_3   0.430940 0.209327 0.790706 0.354137
C43   C     C_3   0.484095 0.180274 0.885795 0.196411
C44   C     C_R   0.083242 0.184883 0.532988 -0.290635
H1    H     H_    0.258840 0.713498 0.218780 0.112450
H2    H     H_    0.087350 0.233965 0.343021 0.013738
H3    H     H_    0.296884 0.259513 0.409371 0.058981
H4    H     H_    0.153318 0.834931 0.110149 0.164575
H5    H     H_    0.177453 0.068501 0.261251 0.127507
H6    H     H_    0.168306 0.061734 0.378979 0.072847
H7    H     H_    0.366236 0.094050 0.342983 0.136037
H8    H     H_    0.470933 0.766649 0.213081 -0.062119
H9    H     H_    0.288510 0.751136 0.063788 0.069806
H10   H     H_    0.743571 0.779696 0.696432 0.027435
H11   H     H_    0.562713 0.734607 0.608931 0.043470
H12   H     H_    0.562245 0.216056 0.154007 0.138658
H13   H     H_    0.592966 0.936342 0.744489 0.128930
H14   H     H_    0.649245 0.936343 0.633467 0.068235
H15   H     H_    0.437427 0.891404 0.645500 0.140162
H16   H     H_    0.363971 0.891818 0.105463 0.119393
H17   H     H_    0.682428 0.951315 0.224988 0.069871
H18   H     H_    0.801872 0.145471 0.681429 0.097629
H19   H     H_    0.023178 0.195423 0.709203 -0.046673
H20   H     H_    0.947931 0.994730 0.714668 0.082448
H21   H     H_    0.070393 0.070049 0.816723 0.164214
H22   H     H_    0.848594 0.030232 0.809208 0.124280
H23   H     H_    0.653158 0.347906 0.133880 0.062060
H24   H     H_    0.294584 0.211854 0.779346 -0.055223
H25   H     H_    0.498069 0.290805 0.786971 0.031437
H26   H     H_    0.456066 0.243454 0.935449 0.039401
H27   H     H_    0.621249 0.178677 0.899753 0.081181
H28   H     H_    0.948123 0.863488 0.318198 0.055409
H29   H     H_    0.615826 0.046321 0.397323 0.102129
H30   H     H_    0.194686 0.953909 0.603013 0.104545
H31   H     H_    0.135022 0.269121 0.537080 0.067291
H32   H     H_    0.673777 0.731580 0.465119 0.070698
H33   H     H_    0.681121 0.591465 0.044092 0.070939
H34   H     H_    0.780108 0.241722 0.143556 0.124397
H35   H     H_    0.113782 0.409956 0.964356 0.074896
H36   H     H_    0.224234 0.415560 0.100362 0.077073
H37   H     H_    0.582230 0.572393 0.909446 0.067321
H38   H     H_    0.626269 0.549562 0.312787 0.069486
H39   H     H_    0.742133 0.794162 0.274398 -0.086328
H40   H     H_    0.179694 0.454590 0.696089 0.063459
H41   H     H_    0.895745 0.008558 0.244083 0.061865
H42   H     H_    0.617600 0.339715 0.296180 0.016254
H43   H     H_    0.833070 0.375204 0.283787 0.065206
H44   H     H_    0.453929 0.023789 0.870627 0.320001
H45   H     H_    0.182820 0.653688 0.698574 0.025184
H46   H     H_    0.015674 0.045474 0.114683 0.069709
H47   H     H_    0.029777 0.004919 0.954366 0.110094
H48   H     H_    0.821864 0.861964 0.856685 0.081286
H49   H     H_    0.599125 0.761789 0.921018 0.084195
H50   H     H_    0.594959 0.793143 0.083304 0.042742
H51   H     H_    0.973444 0.629934 0.722741 0.059229
H52   H     H_    0.274114 0.781182 0.837833 0.144296
H53   H     H_    0.063075 0.769953 0.859652 0.123564
H54   H     H_    0.172893 0.656107 0.866131 0.060844
O1    O     O_2   0.168170 0.764170 0.543850 -0.456287
O2    O     O_2   0.785633 0.423722 0.821665 -0.493138
O3    O     O_3   0.878195 0.232293 0.807591 -0.603035
O4    O     O_3   0.898670 0.629780 0.545890 -0.496719
O5    O     O_3   0.409490 0.443300 0.392340 -0.488547
O6    O     O_2   0.674250 0.555830 0.719690 -0.466888
O7    O     O_3   0.528587 0.731977 0.743984 -0.653844
O8    O     O_2   0.517425 0.114366 0.560122 -0.487823
O9    O     O_3   0.471918 0.132542 0.727132 -0.614817
O10   O     O_3   0.365980 0.695510 0.380810 -0.489758
O11   O     O_2   0.293541 0.885257 0.442104 -0.478446
O12   O     O_3   0.272353 0.270964 0.270726 -0.634307
O13   O     O_3   0.049180 0.780799 0.688228 -0.645975
O14   O     O_3   0.337928 0.872182 0.275477 -0.609208
O15   O     O_2   0.136040 0.444100 0.280280 -0.471169
O16   O     O_3   0.934510 0.640480 0.335500 -0.477342
O17   O     O_2   0.009410 0.573042 0.176765 -0.499280
O18   O     O_3   0.396059 0.080641 0.896747 -0.735892
O19   O     O_3   0.928252 0.768768 0.196565 -0.602996
O20   O     O_2   0.642110 0.235770 0.456130 -0.463152
O21   O     O_3   0.911620 0.370210 0.454030 -0.498770
O22   O     O_3   0.444310 0.304480 0.619110 -0.478747
O23   O     O_3   0.763245 0.219598 0.311598 -0.644338
O24   O     O_3   0.400800 0.556680 0.607590 -0.470362
O25   O     O_3   0.875770 0.359510 0.664420 -0.484217
P1    P     P_3+3 0.998660 0.747790 0.570900 0.967207
P2    P     P_3+3 0.306970 0.411860 0.294270 0.982984
P3    P     P_3+3 0.885121 0.635647 0.219409 0.950751
P4    P     P_3+3 0.811620 0.252200 0.429030 0.966050
P5    P     P_3+3 0.916385 0.364453 0.781928 0.956187
P6    P     P_3+3 0.407257 0.835669 0.382534 0.951945
P7    P     P_3+3 0.497937 0.591319 0.720359 0.942670
P8    P     P_3+3 0.402645 0.164789 0.618642 0.948100

loop_
_geom_bond_atom_site_label_1
_geom_bond_atom_site_label_2
_ccdc_geom_bond_type
C43   O18   S    
C40   H18   S    
C26   H38   S    
O14   P6    S    
C17   C18   A    
C23   H10   S    
C2    C6    A    
C34   H13   S    
C40   O3    S    
C27   H43   S    
C19   P7    S    
O6    P7    D    
C32   H5    S    
C35   C36   A    
C4    H39   S    
H44   O18   S    
C33   C35   A    
C22   C24   A    
C20   H33   S    
C36   C37   A    
C16   H17   S    
Ba2   O21   S    
C39   H50   S    
C31   H3    S    
C13   C14   A    
C28   H12   S    
Ba2   P4    S    
O15   P2    D    
O24   P7    S    
C42   H25   S    
C43   H27   S    
Ba1   Ba2   S    
C7    C11   A    
C27   H42   S    
C1    H9    S    
O25   P5    S    
C14   C15   A    
O12   P2    S    
O1    P1    D    
C40   H19   S    
C42   H24   S    
Ba1   O16   S    
C17   C25   S    
C7    C8    A    
C5    P6    S    
C28   H34   S    
O19   P3    S    
C24   H36   S    
O23   P4    S    
C43   H26   S    
C23   H11   S    
C2    C5    A    
C9    P4    S    
O3    P5    S    
C1    H4    S    
C4    H28   S    
Ba2   O22   S    
C4    C16   S    
O5    P2    S    
O9    P8    S    
O20   P4    D    
C22   C26   A    
Ba1   P1    S    
C10   C44   A    
C37   C38   A    
C3    C5    A    
Ba2   O20   S    
C6    C7    A    
O13   P1    S    
C12   O14   S    
Ba2   O6    S    
C30   H54   S    
C3    H29   S    
O22   P8    S    
C2    H32   S    
C27   C28   S    
Ba1   O10   S    
C22   P2    S    
C29   C30   S    
C11   H30   S    
Ba2   O4    S    
C31   C32   S    
C24   C25   A    
O10   P6    S    
C31   O12   S    
C21   C26   A    
C18   C19   A    
Ba1   O4    S    
C1    C12   S    
C13   H40   S    
O11   P6    D    
C38   C39   A    
C12   H8    S    
C37   H48   S    
C29   H45   S    
C20   C25   A    
C40   C41   S    
C38   H49   S    
C34   H15   S    
Ba1   O1    S    
C4    O19   S    
C28   H23   S    
C14   P5    S    
C42   C43   S    
C23   O7    S    
C16   C33   S    
C1    H16   S    
C6    P1    S    
C35   H46   S    
Ba1   P2    S    
O21   P4    S    
O7    P7    S    
C34   H14   S    
C44   H31   S    
C12   H1    S    
Ba2   O24   S    
C41   H22   S    
Ba2   O5    S    
C32   H6    S    
C16   H41   S    
C30   H53   S    
C10   P8    S    
Ba1   O24   S    
O8    P8    D    
C42   O9    S    
C13   C19   A    
C41   H20   S    
C27   O23   S    
C36   H47   S    
C15   C17   A    
C30   H52   S    
C15   H35   S    
C29   H51   S    
C33   C39   A    
O17   P3    D    
Ba1   O21   S    
C8    C9    A    
C23   C34   S    
Ba2   O25   S    
C3    C8    A    
O4    P1    S    
C10   C11   A    
C32   H7    S    
C41   H21   S    
O16   P3    S    
C18   H37   S    
C31   H2    S    
C20   C21   A    
C9    C44   A    
Ba1   O15   S    
C29   O13   S    
Ba1   O5    S    
C21   P3    S    
O2    P5    D    
