data_mof_unit_38275.cif
_audit_creation_date              2012-12-11T14:05:40-0500
_audit_creation_method            fapswitch 2.2
_symmetry_space_group_name_H-M    P1
_symmetry_Int_Tables_number       1
_space_group_crystal_system       monoclinic
_cell_length_a                    17.479579
_cell_length_b                    17.47958
_cell_length_c                    17.479583
_cell_angle_alpha                 90.000012
_cell_angle_beta                  90.0
_cell_angle_gamma                 90.0
_cell_volume                      5340.63661882

loop_
_atom_site_label
_atom_site_type_symbol
_atom_type_description
_atom_site_fract_x
_atom_site_fract_y
_atom_site_fract_z
_atom_type_partial_charge
C1    C     C_R   0.677516 0.775616 0.224384 0.018423
C2    C     C_R   0.322484 0.775616 0.224384 0.018423
C3    C     C_R   0.904182 0.815866 0.616614 -0.127145
C4    C     C_R   0.095818 0.383385 0.815866 -0.127145
C5    C     C_R   0.904182 0.616615 0.184134 -0.127145
C6    C     C_R   0.095818 0.815866 0.616614 -0.127145
C7    C     C_R   0.904182 0.184134 0.383385 -0.127145
C8    C     C_R   0.815866 0.904182 0.616614 -0.127145
C9    C     C_R   0.184134 0.095818 0.383385 -0.127145
C10   C     C_R   0.616615 0.904182 0.184134 -0.127145
C11   C     C_R   0.383385 0.095818 0.815866 -0.127145
C12   C     C_R   0.184134 0.904182 0.383385 -0.127145
C13   C     C_R   0.224384 0.322484 0.775616 0.018424
C14   C     C_R   0.815866 0.095818 0.616614 -0.127145
C15   C     C_R   0.383385 0.904182 0.815866 -0.127144
C16   C     C_R   0.616614 0.095818 0.184134 -0.127145
C17   C     C_R   0.184134 0.095818 0.616614 -0.127145
C18   C     C_R   0.815866 0.904182 0.383385 -0.127145
C19   C     C_R   0.383385 0.095818 0.184134 -0.127145
C20   C     C_R   0.616615 0.904182 0.815866 -0.127145
C21   C     C_R   0.815866 0.095818 0.383385 -0.127145
C22   C     C_R   0.184134 0.904182 0.616614 -0.127145
C23   C     C_R   0.616614 0.095818 0.815866 -0.127145
C24   C     C_R   0.775616 0.677516 0.224384 0.018424
C25   C     C_R   0.383385 0.904182 0.184134 -0.127145
C26   C     C_3   0.649296 0.649296 0.161907 -1.004374
C27   C     C_3   0.350704 0.350704 0.838093 -1.004375
C28   C     C_3   0.350704 0.649296 0.161907 -1.004375
C29   C     C_3   0.649296 0.350704 0.838093 -1.004374
C30   C     C_3   0.350704 0.350704 0.161907 -1.004376
C31   C     C_3   0.649296 0.649296 0.838093 -1.004376
C32   C     C_3   0.649296 0.350704 0.161907 -1.004375
C33   C     C_3   0.350704 0.649296 0.838093 -1.004375
C34   C     C_3   0.161907 0.649296 0.649296 -1.004375
C35   C     C_R   0.322484 0.775616 0.775616 0.018423
C36   C     C_3   0.838093 0.350704 0.350704 -1.004376
C37   C     C_3   0.161907 0.350704 0.649296 -1.004374
C38   C     C_3   0.838093 0.649296 0.350704 -1.004374
C39   C     C_3   0.161907 0.350704 0.350704 -1.004376
C40   C     C_3   0.838093 0.649296 0.649296 -1.004376
C41   C     C_3   0.161907 0.649296 0.350704 -1.004375
C42   C     C_3   0.838093 0.350704 0.649296 -1.004375
C43   C     C_3   0.649296 0.161907 0.649296 -1.004375
C44   C     C_3   0.350704 0.838093 0.350704 -1.004375
C45   C     C_3   0.649296 0.161907 0.350704 -1.004377
C46   C     C_R   0.677516 0.224384 0.224384 0.018423
C47   C     C_3   0.350704 0.838093 0.649296 -1.004377
C48   C     C_3   0.350704 0.161907 0.350704 -1.004375
C49   C     C_3   0.649296 0.838093 0.649296 -1.004375
C50   C     C_3   0.350704 0.161907 0.649296 -1.004375
C51   C     C_3   0.649296 0.838093 0.350704 -1.004375
C52   C     C_R   0.775616 0.677516 0.775616 0.018424
C53   C     C_R   0.224384 0.322484 0.224384 0.018424
C54   C     C_R   0.224384 0.224384 0.677516 0.018423
C55   C     C_R   0.775616 0.775616 0.322484 0.018423
C56   C     C_R   0.224384 0.775616 0.322484 0.018423
C57   C     C_R   0.322484 0.224384 0.775616 0.018424
C58   C     C_R   0.775616 0.224384 0.677516 0.018423
C59   C     C_R   0.775616 0.224384 0.322484 0.018424
C60   C     C_R   0.224384 0.775616 0.677516 0.018424
C61   C     C_R   0.775616 0.775616 0.677516 0.018423
C62   C     C_R   0.224384 0.224384 0.322484 0.018423
C63   C     C_R   0.637462 0.828770 0.828770 0.091564
C64   C     C_R   0.362538 0.171230 0.171230 0.091564
C65   C     C_R   0.171230 0.637462 0.828770 0.091563
C66   C     C_R   0.828770 0.362538 0.171230 0.091563
C67   C     C_R   0.362538 0.171230 0.828770 0.091563
C68   C     C_R   0.224384 0.677516 0.224384 0.018424
C69   C     C_R   0.637462 0.828770 0.171230 0.091563
C70   C     C_R   0.828770 0.362538 0.828770 0.091563
C71   C     C_R   0.171230 0.637462 0.171230 0.091563
C72   C     C_R   0.637462 0.171230 0.171230 0.091563
C73   C     C_R   0.362538 0.828770 0.828770 0.091563
C74   C     C_R   0.171230 0.362538 0.171230 0.091563
C75   C     C_R   0.828770 0.637462 0.828770 0.091563
C76   C     C_R   0.362538 0.828770 0.171230 0.091564
C77   C     C_R   0.637462 0.171230 0.828770 0.091564
C78   C     C_R   0.828770 0.637462 0.171229 0.091564
C79   C     C_R   0.775616 0.322484 0.775616 0.018423
C80   C     C_R   0.171230 0.362538 0.828770 0.091564
C81   C     C_R   0.828770 0.171230 0.637462 0.091563
C82   C     C_R   0.171230 0.828770 0.362538 0.091563
C83   C     C_R   0.828770 0.828770 0.362538 0.091563
C84   C     C_R   0.171230 0.171230 0.637462 0.091563
C85   C     C_R   0.171230 0.171230 0.362538 0.091563
C86   C     C_R   0.828770 0.828770 0.637462 0.091563
C87   C     C_R   0.171230 0.828770 0.637462 0.091563
C88   C     C_R   0.828770 0.171230 0.362538 0.091563
C89   C     C_R   0.705519 0.705519 0.196371 0.177055
C90   C     C_R   0.322484 0.224384 0.224384 0.018423
C91   C     C_R   0.294481 0.294481 0.803629 0.177055
C92   C     C_R   0.294481 0.705519 0.196371 0.177055
C93   C     C_R   0.705519 0.294481 0.803629 0.177055
C94   C     C_R   0.294481 0.294481 0.196371 0.177055
C95   C     C_R   0.705519 0.705519 0.803629 0.177055
C96   C     C_R   0.705519 0.294481 0.196371 0.177055
C97   C     C_R   0.294481 0.705519 0.803629 0.177055
C98   C     C_R   0.196371 0.705519 0.705519 0.177055
C99   C     C_R   0.803629 0.294481 0.294481 0.177055
C100  C     C_R   0.196371 0.294481 0.705519 0.177055
C101  C     C_R   0.677516 0.775616 0.775616 0.018423
C102  C     C_R   0.803629 0.705519 0.294481 0.177055
C103  C     C_R   0.196371 0.294481 0.294481 0.177055
C104  C     C_R   0.803629 0.705519 0.705519 0.177055
C105  C     C_R   0.196371 0.705519 0.294481 0.177056
C106  C     C_R   0.803629 0.294481 0.705519 0.177056
C107  C     C_R   0.705519 0.196371 0.705519 0.177055
C108  C     C_R   0.294481 0.803629 0.294481 0.177056
C109  C     C_R   0.705519 0.196371 0.294481 0.177055
C110  C     C_R   0.294481 0.803629 0.705519 0.177055
C111  C     C_R   0.294481 0.196371 0.294481 0.177056
C112  C     C_R   0.775616 0.322484 0.224384 0.018423
C113  C     C_R   0.705519 0.803629 0.705519 0.177056
C114  C     C_R   0.294481 0.196371 0.705519 0.177056
C115  C     C_R   0.705519 0.803629 0.294481 0.177056
C116  C     C_R   0.616615 0.815866 0.904182 -0.127145
C117  C     C_R   0.383385 0.184134 0.095818 -0.127145
C118  C     C_R   0.184134 0.616614 0.904182 -0.127145
C119  C     C_R   0.815866 0.383385 0.095818 -0.127145
C120  C     C_R   0.383385 0.184134 0.904182 -0.127145
C121  C     C_R   0.616614 0.815866 0.095818 -0.127145
C122  C     C_R   0.815866 0.383385 0.904182 -0.127145
C123  C     C_R   0.224384 0.677516 0.775616 0.018424
C124  C     C_R   0.184134 0.616614 0.095818 -0.127145
C125  C     C_R   0.616614 0.184134 0.095818 -0.127145
C126  C     C_R   0.383385 0.815866 0.904182 -0.127145
C127  C     C_R   0.184134 0.383385 0.095818 -0.127145
C128  C     C_R   0.815866 0.616614 0.904182 -0.127145
C129  C     C_R   0.383385 0.815866 0.095818 -0.127145
C130  C     C_R   0.616615 0.184134 0.904182 -0.127145
C131  C     C_R   0.815866 0.616614 0.095818 -0.127145
C132  C     C_R   0.184134 0.383385 0.904182 -0.127145
C133  C     C_R   0.904182 0.616614 0.815866 -0.127145
C134  C     C_R   0.677516 0.224384 0.775616 0.018424
C135  C     C_R   0.095818 0.383385 0.184134 -0.127145
C136  C     C_R   0.904182 0.184134 0.616614 -0.127145
C137  C     C_R   0.095818 0.815866 0.383385 -0.127145
C138  C     C_R   0.904182 0.383385 0.184134 -0.127145
C139  C     C_R   0.095818 0.616614 0.815866 -0.127145
C140  C     C_R   0.904182 0.815866 0.383385 -0.127145
C141  C     C_R   0.095818 0.184134 0.616614 -0.127145
C142  C     C_R   0.095818 0.616615 0.184134 -0.127145
C143  C     C_R   0.904182 0.383385 0.815866 -0.127145
C144  C     C_R   0.095818 0.184134 0.383385 -0.127145
H1    H     H_    0.616209 0.762521 0.934350 0.107202
H2    H     H_    0.383791 0.762521 0.934350 0.107202
H3    H     H_    0.409898 0.818884 0.337628 0.255903
H4    H     H_    0.350055 0.901209 0.350055 0.227420
H5    H     H_    0.337628 0.818884 0.409898 0.255902
H6    H     H_    0.649945 0.098791 0.350055 0.227420
H7    H     H_    0.662372 0.181116 0.409898 0.255903
H8    H     H_    0.590102 0.181116 0.337628 0.255903
H9    H     H_    0.350055 0.901208 0.649945 0.227420
H10   H     H_    0.409898 0.818884 0.662372 0.255903
H11   H     H_    0.337628 0.818884 0.590102 0.255903
H12   H     H_    0.350055 0.098791 0.350055 0.227420
H13   H     H_    0.237479 0.383791 0.065650 0.107202
H14   H     H_    0.409898 0.181116 0.337628 0.255903
H15   H     H_    0.337628 0.181116 0.409898 0.255902
H16   H     H_    0.649945 0.901209 0.649945 0.227420
H17   H     H_    0.662372 0.818884 0.590102 0.255902
H18   H     H_    0.590102 0.818884 0.662372 0.255903
H19   H     H_    0.409898 0.181116 0.662372 0.255903
H20   H     H_    0.350055 0.098791 0.649945 0.227420
H21   H     H_    0.337628 0.181116 0.590102 0.255902
H22   H     H_    0.662372 0.818884 0.409898 0.255902
H23   H     H_    0.649945 0.901208 0.350055 0.227420
H24   H     H_    0.762521 0.616209 0.934350 0.107202
H25   H     H_    0.590102 0.818884 0.337628 0.255902
H26   H     H_    0.383791 0.762521 0.065650 0.107202
H27   H     H_    0.616209 0.237479 0.934350 0.107202
H28   H     H_    0.762521 0.616209 0.065650 0.107202
H29   H     H_    0.237479 0.383791 0.934350 0.107202
H30   H     H_    0.934350 0.616209 0.762521 0.107203
H31   H     H_    0.065650 0.383791 0.237479 0.107203
H32   H     H_    0.934350 0.237479 0.616209 0.107202
H33   H     H_    0.383791 0.237479 0.065650 0.107202
H34   H     H_    0.065650 0.762521 0.383791 0.107202
H35   H     H_    0.934350 0.383791 0.237479 0.107202
H36   H     H_    0.065650 0.616209 0.762521 0.107202
H37   H     H_    0.934350 0.762521 0.383791 0.107202
H38   H     H_    0.065650 0.237479 0.616209 0.107202
H39   H     H_    0.065650 0.616209 0.237479 0.107202
H40   H     H_    0.934350 0.383791 0.762521 0.107203
H41   H     H_    0.065650 0.237479 0.383791 0.107202
H42   H     H_    0.934350 0.762521 0.616209 0.107202
H43   H     H_    0.065650 0.383791 0.762521 0.107202
H44   H     H_    0.237479 0.616209 0.934350 0.107202
H45   H     H_    0.934350 0.616209 0.237479 0.107202
H46   H     H_    0.065650 0.762521 0.616209 0.107202
H47   H     H_    0.934350 0.237479 0.383791 0.107202
H48   H     H_    0.762521 0.934350 0.616209 0.107202
H49   H     H_    0.237479 0.065650 0.383791 0.107202
H50   H     H_    0.616209 0.934350 0.237479 0.107202
H51   H     H_    0.383791 0.065650 0.762521 0.107202
H52   H     H_    0.237479 0.934350 0.383791 0.107202
H53   H     H_    0.762521 0.065650 0.616209 0.107202
H54   H     H_    0.383791 0.934350 0.762521 0.107202
H55   H     H_    0.762521 0.383791 0.065650 0.107202
H56   H     H_    0.616209 0.065650 0.237479 0.107202
H57   H     H_    0.237479 0.065650 0.616209 0.107202
H58   H     H_    0.762521 0.934350 0.383791 0.107202
H59   H     H_    0.383791 0.065650 0.237479 0.107202
H60   H     H_    0.616209 0.934350 0.762521 0.107202
H61   H     H_    0.762521 0.065650 0.383791 0.107202
H62   H     H_    0.237479 0.934350 0.616209 0.107202
H63   H     H_    0.616209 0.065650 0.762521 0.107203
H64   H     H_    0.383791 0.934350 0.237479 0.107203
H65   H     H_    0.649945 0.649945 0.098791 0.227419
H66   H     H_    0.383791 0.237479 0.934350 0.107202
H67   H     H_    0.662372 0.590102 0.181116 0.255902
H68   H     H_    0.590102 0.662372 0.181116 0.255902
H69   H     H_    0.350055 0.350055 0.901209 0.227420
H70   H     H_    0.409898 0.337628 0.818884 0.255903
H71   H     H_    0.337628 0.409898 0.818884 0.255903
H72   H     H_    0.350055 0.649945 0.098791 0.227420
H73   H     H_    0.409898 0.662372 0.181116 0.255903
H74   H     H_    0.337628 0.590102 0.181116 0.255903
H75   H     H_    0.649945 0.350055 0.901209 0.227419
H76   H     H_    0.662372 0.409898 0.818884 0.255902
H77   H     H_    0.616209 0.762521 0.065650 0.107202
H78   H     H_    0.590102 0.337628 0.818884 0.255903
H79   H     H_    0.409898 0.337628 0.181116 0.255903
H80   H     H_    0.350055 0.350055 0.098791 0.227420
H81   H     H_    0.337628 0.409898 0.181116 0.255903
H82   H     H_    0.662372 0.590102 0.818884 0.255903
H83   H     H_    0.649945 0.649945 0.901208 0.227420
H84   H     H_    0.590102 0.662372 0.818884 0.255903
H85   H     H_    0.662372 0.409898 0.181116 0.255902
H86   H     H_    0.649945 0.350055 0.098791 0.227420
H87   H     H_    0.590102 0.337628 0.181116 0.255903
H88   H     H_    0.762521 0.383791 0.934350 0.107202
H89   H     H_    0.409898 0.662372 0.818884 0.255903
H90   H     H_    0.350055 0.649945 0.901209 0.227420
H91   H     H_    0.337628 0.590102 0.818884 0.255903
H92   H     H_    0.098791 0.649945 0.649945 0.227420
H93   H     H_    0.181116 0.662372 0.590102 0.255903
H94   H     H_    0.181116 0.590102 0.662372 0.255903
H95   H     H_    0.901209 0.350055 0.350055 0.227420
H96   H     H_    0.818884 0.409898 0.337628 0.255903
H97   H     H_    0.818884 0.337628 0.409898 0.255903
H98   H     H_    0.098791 0.350055 0.649945 0.227420
H99   H     H_    0.237479 0.616209 0.065650 0.107202
H100  H     H_    0.181116 0.409898 0.662372 0.255902
H101  H     H_    0.181116 0.337628 0.590102 0.255902
H102  H     H_    0.901209 0.649945 0.350055 0.227420
H103  H     H_    0.818884 0.662372 0.409898 0.255902
H104  H     H_    0.818884 0.590102 0.337628 0.255903
H105  H     H_    0.181116 0.409898 0.337628 0.255903
H106  H     H_    0.098791 0.350055 0.350055 0.227420
H107  H     H_    0.181116 0.337628 0.409898 0.255902
H108  H     H_    0.818884 0.662372 0.590102 0.255902
H109  H     H_    0.901208 0.649945 0.649945 0.227420
H110  H     H_    0.616209 0.237479 0.065650 0.107202
H111  H     H_    0.818884 0.590102 0.662372 0.255903
H112  H     H_    0.181116 0.662372 0.409898 0.255902
H113  H     H_    0.098791 0.649945 0.350055 0.227420
H114  H     H_    0.181116 0.590102 0.337628 0.255902
H115  H     H_    0.818884 0.409898 0.662372 0.255902
H116  H     H_    0.901208 0.350055 0.649945 0.227420
H117  H     H_    0.818884 0.337628 0.590102 0.255902
H118  H     H_    0.662372 0.181116 0.590102 0.255902
H119  H     H_    0.649945 0.098791 0.649945 0.227420
H120  H     H_    0.590102 0.181116 0.662372 0.255903
N1    N     N_R   0.584840 0.879720 0.932190 -0.043404
N2    N     N_R   0.415160 0.879720 0.932190 -0.043404
N3    N     N_R   0.120280 0.415160 0.067810 -0.043404
N4    N     N_R   0.879720 0.584840 0.932190 -0.043404
N5    N     N_R   0.415160 0.879720 0.067810 -0.043404
N6    N     N_R   0.584840 0.120280 0.932190 -0.043404
N7    N     N_R   0.879720 0.584840 0.067810 -0.043404
N8    N     N_R   0.120280 0.415160 0.932190 -0.043404
N9    N     N_R   0.932190 0.584840 0.879720 -0.043404
N10   N     N_R   0.067810 0.415160 0.120280 -0.043404
N11   N     N_R   0.932190 0.120280 0.584840 -0.043404
N12   N     N_R   0.415160 0.120280 0.067810 -0.043404
N13   N     N_R   0.067810 0.879720 0.415160 -0.043404
N14   N     N_R   0.932190 0.415160 0.120280 -0.043404
N15   N     N_R   0.067810 0.584840 0.879720 -0.043404
N16   N     N_R   0.932190 0.879720 0.415160 -0.043404
N17   N     N_R   0.067810 0.120280 0.584840 -0.043404
N18   N     N_R   0.067810 0.584840 0.120280 -0.043404
N19   N     N_R   0.932190 0.415160 0.879720 -0.043404
N20   N     N_R   0.067810 0.120280 0.415160 -0.043404
N21   N     N_R   0.932190 0.879720 0.584840 -0.043404
N22   N     N_R   0.067810 0.415160 0.879720 -0.043404
N23   N     N_R   0.120280 0.584840 0.932190 -0.043404
N24   N     N_R   0.932190 0.584840 0.120280 -0.043404
N25   N     N_R   0.067810 0.879720 0.584840 -0.043404
N26   N     N_R   0.932190 0.120280 0.415160 -0.043404
N27   N     N_R   0.879720 0.932190 0.584840 -0.043404
N28   N     N_R   0.120280 0.067810 0.415160 -0.043404
N29   N     N_R   0.584840 0.932190 0.120280 -0.043404
N30   N     N_R   0.415160 0.067810 0.879720 -0.043404
N31   N     N_R   0.120280 0.932190 0.415160 -0.043404
N32   N     N_R   0.879720 0.067810 0.584840 -0.043404
N33   N     N_R   0.415160 0.932190 0.879720 -0.043404
N34   N     N_R   0.879720 0.415160 0.067810 -0.043404
N35   N     N_R   0.584840 0.067810 0.120280 -0.043404
N36   N     N_R   0.120280 0.067810 0.584840 -0.043404
N37   N     N_R   0.879720 0.932190 0.415160 -0.043404
N38   N     N_R   0.415160 0.067810 0.120280 -0.043404
N39   N     N_R   0.584840 0.932190 0.879720 -0.043404
N40   N     N_R   0.879720 0.067810 0.415160 -0.043404
N41   N     N_R   0.120280 0.932190 0.584840 -0.043404
N42   N     N_R   0.584840 0.067810 0.879720 -0.043404
N43   N     N_R   0.415160 0.932190 0.120280 -0.043404
N44   N     N_R   0.415160 0.120280 0.932190 -0.043404
N45   N     N_R   0.584840 0.879720 0.067810 -0.043404
N46   N     N_R   0.879720 0.415160 0.932190 -0.043404
N47   N     N_R   0.120280 0.584840 0.067810 -0.043404
N48   N     N_R   0.584840 0.120280 0.067810 -0.043404
Ni1   Ni    Ni4+2 0.500000 0.880920 0.000000 0.209601
Ni2   Ni    Ni4+2 0.119080 1.000000 0.500000 0.209601
Ni3   Ni    Ni4+2 0.500000 0.000000 0.119080 0.209601
Ni4   Ni    Ni4+2 0.500000 1.000000 0.880920 0.209601
Ni5   Ni    Ni4+2 0.500000 0.119080 0.000000 0.209601
Ni6   Ni    Ni4+2 0.119080 0.500000 0.000000 0.209601
Ni7   Ni    Ni4+2 0.880920 0.500000 0.000000 0.209601
Ni8   Ni    Ni4+2 0.000000 0.500000 0.880920 0.209601
Ni9   Ni    Ni4+2 1.000000 0.500000 0.119080 0.209601
Ni10  Ni    Ni4+2 0.000000 0.119080 0.500000 0.209601
Ni11  Ni    Ni4+2 0.000000 0.880920 0.500000 0.209601
Ni12  Ni    Ni4+2 0.880920 1.000000 0.500000 0.209601

loop_
_geom_bond_atom_site_label_1
_geom_bond_atom_site_label_2
_ccdc_geom_bond_type
C28   H72   S    
C11   N30   A    
C49   C113  S    
C80   C132  A    
N38   Ni3   S    
C101  C113  A    
C52   C75   S    
C41   H112  S    
C41   C105  S    
C36   H97   S    
C139  N15   A    
C11   H51   S    
C60   C98   A    
C116  H1    S    
C130  N6    A    
C9    H49   S    
N30   N44   A    
N25   N41   A    
C73   C126  A    
C37   H101  S    
C75   C128  A    
N39   Ni4   S    
N36   Ni2   S    
C65   C118  A    
C49   H16   S    
C67   C120  A    
C127  H13   S    
C46   C72   S    
C17   N36   A    
C37   H100  S    
N13   Ni11  S    
C12   H52   S    
C85   C144  A    
C54   C84   S    
C83   C140  A    
C62   C85   S    
C117  H33   S    
C120  H66   S    
C29   H78   S    
C32   H86   S    
C50   H20   S    
C51   H25   S    
C61   C104  A    
N4    Ni7   S    
N45   Ni1   S    
C47   H9    S    
N6    Ni5   S    
C48   H14   S    
N41   Ni2   S    
C50   C114  S    
C7    C88   A    
C16   N35   A    
C130  H27   S    
C50   H21   S    
C19   H59   S    
C22   C87   A    
C23   C77   A    
C17   H57   S    
C42   C106  S    
C118  N23   A    
C127  N3    A    
C10   N29   A    
C15   C73   A    
C116  N1    A    
C119  N34   A    
C55   C83   S    
C81   C136  A    
C23   H63   S    
C70   C79   S    
C132  N8    A    
C43   H118  S    
C143  N19   A    
C72   C125  A    
C25   C76   A    
C143  H40   S    
C21   N40   A    
C5    H45   S    
C30   C94   S    
C142  N18   A    
C43   H120  S    
C8    H48   S    
C54   C114  A    
C2    C108  A    
C59   C109  A    
C36   C99   S    
C8    C86   A    
C34   H94   S    
C65   C139  A    
C10   C69   A    
C46   C96   A    
C15   N33   A    
N7    Ni7   S    
C23   N42   A    
C26   H68   S    
C1    C115  A    
C14   C81   A    
N34   Ni7   S    
C136  H32   S    
C140  N16   A    
C51   H23   S    
N18   N47   A    
N19   N46   A    
N7    N24   A    
N14   N34   A    
C137  N13   A    
C70   C143  A    
N16   N37   A    
C4    C80   A    
C107  C134  A    
N28   Ni2   S    
N9    Ni8   S    
C7    N26   A    
N46   Ni7   S    
N47   Ni6   S    
C22   H62   S    
C124  N47   A    
C58   C107  A    
C56   C108  A    
C42   H116  S    
C9    C85   A    
N5    N43   A    
C62   C111  A    
C27   H70   S    
C27   C91   S    
C25   H64   S    
C49   H17   S    
C16   H56   S    
C12   N31   A    
C21   C88   A    
C31   H84   S    
C138  N14   A    
N23   Ni6   S    
N8    Ni6   S    
C90   C111  A    
C42   H117  S    
C138  H35   S    
N17   N36   A    
C144  H41   S    
C14   H53   S    
C133  N9    A    
C129  H26   S    
N2    Ni1   S    
C61   C86   S    
C79   C106  A    
N15   N23   A    
C70   C122  A    
C74   C127  A    
C66   C138  A    
C38   H104  S    
C19   N38   A    
C131  N7    A    
C41   H113  S    
N20   N28   A    
N15   Ni8   S    
C66   C119  A    
C136  N11   A    
N43   Ni3   S    
C77   C134  S    
C33   H89   S    
N25   Ni11  S    
C53   C94   A    
N18   Ni9   S    
C56   C82   S    
C30   H79   S    
N21   N27   A    
C17   C84   A    
C20   C63   A    
C97   C123  A    
C43   H119  S    
N6    N42   A    
C39   H106  S    
N27   Ni12  S    
N1    Ni1   S    
C125  H110  S    
N35   N48   A    
C121  N45   A    
C68   C105  A    
C31   H82   S    
C126  N2    A    
C37   C100  S    
C13   C91   A    
C95   C101  A    
N24   Ni9   S    
N2    N33   A    
C8    N27   A    
C28   H73   S    
C53   C74   S    
C16   C72   A    
C64   C90   S    
N3    Ni6   S    
C25   N43   A    
N10   Ni9   S    
C55   C102  A    
C119  H55   S    
N22   Ni8   S    
N44   Ni5   S    
C10   H50   S    
C40   H108  S    
N5    Ni1   S    
C38   H102  S    
C18   N37   A    
C44   H3    S    
C52   C95   A    
C45   H6    S    
N12   Ni5   S    
C29   H76   S    
C137  H34   S    
C1    C89   A    
C33   H91   S    
N29   N45   A    
C142  H39   S    
C48   H12   S    
C13   C80   S    
C3    C86   A    
C27   H71   S    
C7    H47   S    
C90   C94   A    
C131  H28   S    
C14   N32   A    
C20   H60   S    
C58   C81   S    
C15   H54   S    
N31   Ni2   S    
C4    N22   A    
C64   C117  A    
N20   Ni10  S    
N14   Ni9   S    
C19   C64   A    
C74   C135  A    
N37   Ni12  S    
C18   C83   A    
C128  N4    A    
C18   H58   S    
C43   C107  S    
C124  H99   S    
C141  N17   A    
N29   Ni3   S    
C35   C110  A    
N30   Ni4   S    
C40   H109  S    
C24   C78   S    
N26   N40   A    
C2    C76   S    
C3    N21   A    
C32   H85   S    
C52   C104  A    
C57   C91   A    
C50   H19   S    
N33   Ni4   S    
C9    N28   A    
C75   C133  A    
C39   C103  S    
C47   H10   S    
C122  H88   S    
C44   H5    S    
C45   H8    S    
C29   C93   S    
C55   C115  A    
C84   C141  A    
C53   C103  A    
C68   C71   S    
C31   C95   S    
C34   C98   S    
C24   C102  A    
C77   C130  A    
C65   C123  S    
C51   C115  S    
C56   C105  A    
C60   C110  A    
N19   Ni8   S    
C39   H107  S    
C46   C109  A    
C27   H69   S    
C121  H77   S    
C33   C97   S    
C45   H7    S    
C5    C78   A    
N12   N38   A    
C36   H96   S    
N3    N10   A    
C31   H83   S    
C59   C99   A    
C63   C101  S    
C34   H92   S    
C24   C89   A    
N26   Ni10  S    
C126  H2    S    
C26   C89   S    
C96   C112  A    
C22   N41   A    
C4    H43   S    
C79   C93   A    
C82   C137  A    
C99   C112  A    
N8    N22   A    
C122  N46   A    
N11   Ni10  S    
C141  H38   S    
C21   H61   S    
C34   H93   S    
C59   C88   S    
C139  H36   S    
N16   Ni11  S    
N21   Ni11  S    
C40   H111  S    
C68   C92   A    
N13   N31   A    
N4    N9    A    
C144  N20   A    
C26   H67   S    
C133  H30   S    
C45   C109  S    
C6    N25   A    
N35   Ni3   S    
C1    C69   S    
C32   H87   S    
C30   H81   S    
C54   C100  A    
C57   C67   S    
C117  N12   A    
C60   C87   S    
C11   C67   A    
C44   C108  S    
C98   C123  A    
C48   H15   S    
C20   N39   A    
C71   C124  A    
C93   C134  A    
C118  H44   S    
C30   H80   S    
C6    C87   A    
C58   C106  A    
C135  H31   S    
C78   C131  A    
C42   H115  S    
C40   C104  S    
C76   C129  A    
C39   H105  S    
C69   C121  A    
C6    H46   S    
C120  N44   A    
C12   C82   A    
C28   C92   S    
N40   Ni12  S    
C125  N48   A    
C2    C92   A    
C49   H18   S    
C71   C142  A    
C32   C96   S    
C61   C113  A    
C63   C116  A    
C3    H42   S    
C62   C103  A    
C35   C73   S    
C28   H74   S    
C37   H98   S    
N17   Ni10  S    
N1    N39   A    
C57   C114  A    
C47   C110  S    
C140  H37   S    
C135  N10   A    
N42   Ni4   S    
C13   C100  A    
C38   C102  S    
C47   H11   S    
C36   H95   S    
C38   H103  S    
C44   H4    S    
C26   H65   S    
C132  H29   S    
C41   H114  S    
C129  N5    A    
N11   N32   A    
C29   H75   S    
C48   C111  S    
C5    N24   A    
N32   Ni12  S    
C128  H24   S    
N48   Ni5   S    
C51   H22   S    
C66   C112  S    
C35   C97   A    
C33   H90   S    
