data_mof_unit_20103.cif
_audit_creation_date              2012-12-10T18:57:41-0500
_audit_creation_method            fapswitch 2.2
_symmetry_space_group_name_H-M    P1
_symmetry_Int_Tables_number       1
_space_group_crystal_system       triclinic
_cell_length_a                    10.920795
_cell_length_b                    10.902166
_cell_length_c                    9.563416
_cell_angle_alpha                 90.829399
_cell_angle_beta                  88.721088
_cell_angle_gamma                 90.237846
_cell_volume                      1138.21211654

loop_
_atom_site_label
_atom_site_type_symbol
_atom_type_description
_atom_site_fract_x
_atom_site_fract_y
_atom_site_fract_z
_atom_type_partial_charge
C1    C     C_R   0.500182 0.262528 0.498329 0.798944
C2    C     C_R   0.498598 0.129324 0.493287 -0.179789
C3    C     C_R   0.491050 0.059067 0.366165 -0.018527
C4    C     C_R   0.487299 0.930489 0.371589 -0.213819
C5    C     C_R   0.494897 0.869162 0.499557 -0.118571
C6    C     C_R   0.500124 0.940546 0.620176 0.108089
C7    C     C_3   0.509364 0.936761 0.775198 -0.391500
C8    C     C_3   0.509849 0.077825 0.771735 -0.412830
C9    C     C_R   0.562773 0.587851 0.072284 0.160273
C10   C     C_R   0.429135 0.420170 0.074962 -0.004545
C11   C     C_R   0.430230 0.419159 0.926110 -0.053266
C12   C     C_R   0.265564 0.494912 0.501619 0.843601
C13   C     C_R   0.558110 0.591403 0.925750 0.217121
C14   C     C_3   0.688937 0.629345 0.910275 -0.506870
C15   C     C_3   0.697763 0.618263 0.069018 -0.166992
C16   C     C_R   0.498461 0.737025 0.500753 0.846572
C17   C     C_R   0.734372 0.503671 0.498857 0.803027
C18   C     C_2   0.934861 0.456211 0.406404 -0.177948
C19   C     C_2   0.865101 0.522504 0.496280 0.258836
C20   C     C_2   0.067383 0.470934 0.393995 -0.075716
C21   C     C_2   0.134193 0.479625 0.508629 -0.268706
C22   C     C_R   0.501143 0.064114 0.616994 0.105449
Cu1   Cu    Cu3+1 0.499990 0.499980 0.640670 0.976928
Cu2   Cu    Cu3+1 0.500010 0.500020 0.359330 1.007704
H1    H     H_    0.893038 0.388394 0.338388 0.141221
H2    H     H_    0.598205 0.119642 0.803354 0.208216
H3    H     H_    0.373312 0.354257 0.131052 0.152742
H4    H     H_    0.375772 0.351951 0.870823 0.138588
H5    H     H_    0.745050 0.561447 0.849890 0.242501
H6    H     H_    0.698851 0.723894 0.870341 0.218872
H7    H     H_    0.110126 0.467411 0.290365 0.190570
H8    H     H_    0.091457 0.471225 0.611776 0.195861
H9    H     H_    0.480934 0.878675 0.274418 0.204583
H10   H     H_    0.426104 0.897233 0.826422 0.216644
H11   H     H_    0.597800 0.898386 0.808290 0.215934
H12   H     H_    0.426417 0.119944 0.820308 0.209998
N1    N     N_R   0.500780 0.500930 0.147930 -0.173884
N2    N     N_R   0.500780 0.500890 0.852020 -0.182060
O1    O     O_R   0.500000 0.319640 0.618810 -0.590469
O2    O     O_R   0.500010 0.319680 0.381230 -0.560217
O3    O     O_R   0.321940 0.499980 0.618760 -0.578455
O4    O     O_R   0.321950 0.500020 0.381180 -0.589383
O5    O     O_R   0.499990 0.680320 0.618770 -0.575670
O6    O     O_R   0.500000 0.680360 0.381190 -0.591701
O7    O     O_R   0.678050 0.499980 0.618820 -0.577675
O8    O     O_R   0.678060 0.500020 0.381240 -0.561355
C23   C     C_2   0.783360 0.513783 0.101103 0.892862
O9    O     O_2   0.893847 0.532494 0.102236 -0.572229
O10   O     O_R   0.738046 0.394439 0.115458 -0.737344
H13   H     H_    0.805338 0.331478 0.124270 0.333488
C24   C     C_2   0.724334 0.737568 0.146268 0.877836
O11   O     O_2   0.677723 0.833275 0.109071 -0.617205
O12   O     O_R   0.800180 0.738159 0.262184 -0.711376
H14   H     H_    0.808873 0.822756 0.306351 0.349944
Cl1   Cl    Cl    0.920230 0.646186 0.599383 -0.606744
C25   C     C_2   0.490416 0.112416 0.225185 0.891832
O13   O     O_2   0.401180 0.097792 0.151706 -0.623462
O14   O     O_R   0.594767 0.172139 0.172990 -0.708483
H15   H     H_    0.585158 0.199250 0.072898 0.338561

loop_
_geom_bond_atom_site_label_1
_geom_bond_atom_site_label_2
_ccdc_geom_bond_type
C10   H3    S    
C2    C22   A    
C11   N2    A    
C8    C22   S    
Cu1   Cu2   S    
O10   H13   S    
C12   O3    A    
Cu1   O7    S    
C15   C24   S    
Cu1   N2    S    
Cu2   O4    S    
C3    C25   S    
C16   O6    A    
C23   O9    D    
Cu1   O3    S    
C15   C23   S    
Cu2   O8    S    
C8    H2    S    
C9    N1    A    
C2    C3    A    
C9    C15   S    
C7    C8    S    
C23   O10   S    
O12   H14   S    
C20   C21   D    
C24   O11   D    
C16   O5    A    
C13   N2    A    
C6    C7    S    
C18   H1    S    
C11   H4    S    
C14   H6    S    
C10   N1    A    
Cu1   O1    S    
C7    H10   S    
C25   O14   S    
Cu2   N1    S    
C18   C20   S    
C5    C6    A    
Cu2   O6    S    
C21   H8    S    
C10   C11   A    
C1    O1    A    
C14   H5    S    
C17   C19   S    
C3    C4    A    
C6    C22   A    
Cu1   O5    S    
C17   O8    A    
C1    C2    S    
C8    H12   S    
C19   Cl1   S    
C25   O13   D    
C9    C13   A    
C4    H9    S    
C18   C19   D    
C5    C16   S    
C12   O4    A    
C1    O2    A    
Cu2   O2    S    
O14   H15   S    
C13   C14   S    
C7    H11   S    
C12   C21   S    
C14   C15   S    
C17   O7    A    
C4    C5    A    
C24   O12   S    
C20   H7    S    
