data_mof_unit_53891.cif
_audit_creation_date              2012-12-11T15:43:15-0500
_audit_creation_method            fapswitch 2.2
_symmetry_space_group_name_H-M    P1
_symmetry_Int_Tables_number       1
_space_group_crystal_system       triclinic
_cell_length_a                    18.9783
_cell_length_b                    11.076065
_cell_length_c                    18.716016
_cell_angle_alpha                 90.310277
_cell_angle_beta                  90.083231
_cell_angle_gamma                 89.948798
_cell_volume                      3934.13459803

loop_
_atom_site_label
_atom_site_type_symbol
_atom_type_description
_atom_site_fract_x
_atom_site_fract_y
_atom_site_fract_z
_atom_type_partial_charge
C1    C     C_R   0.712419 0.333067 0.138366 0.554424
C2    C     C_R   0.921389 0.956298 0.059047 -0.117829
C3    C     C_R   0.767442 0.505267 0.562096 -0.004587
C4    C     C_R   0.731470 0.384998 0.349556 0.601560
C5    C     C_R   0.269109 0.380285 0.649032 0.536384
C6    C     C_R   0.231470 0.884998 0.349556 0.601560
C7    C     C_R   0.769109 0.880285 0.649032 0.536383
C8    C     C_R   0.530889 0.155989 0.352313 0.602915
C9    C     C_R   0.467038 0.156681 0.646312 0.548828
C10   C     C_R   0.030889 0.655989 0.352313 0.602915
C11   C     C_R   0.967038 0.656681 0.646313 0.548828
C12   C     C_R   0.729410 0.016386 0.361937 0.608211
C13   C     C_R   0.433597 0.479726 0.987258 -0.107422
C14   C     C_R   0.273184 0.025417 0.638966 0.544688
C15   C     C_R   0.229410 0.516386 0.361937 0.608210
C16   C     C_R   0.773183 0.525417 0.638966 0.544687
C17   C     C_R   0.497027 0.173217 0.925240 0.026292
C18   C     C_R   0.505341 0.155343 0.073900 0.033479
C19   C     C_R   0.997027 0.673217 0.925240 0.026292
C20   C     C_R   0.005341 0.655343 0.073900 0.033479
C21   C     C_R   0.476508 0.273467 0.969462 0.100189
C22   C     C_R   0.473368 0.257422 0.044350 0.102163
C23   C     C_R   0.976507 0.773467 0.969462 0.100189
C24   C     C_R   0.421389 0.456297 0.059047 -0.117829
C25   C     C_R   0.973368 0.757422 0.044350 0.102163
C26   C     C_R   0.529214 0.061845 0.029279 -0.114297
C27   C     C_R   0.525949 0.070942 0.956318 -0.158307
C28   C     C_R   0.029214 0.561845 0.029279 -0.114297
C29   C     C_R   0.025949 0.570942 0.956318 -0.158307
C30   C     C_3   0.975919 0.293866 0.626868 -0.027652
C31   C     C_3   0.047493 0.242456 0.421880 -0.098599
C32   C     C_3   0.475920 0.793866 0.626868 -0.027652
C33   C     C_3   0.547479 0.742467 0.421854 -0.098585
C34   C     C_3   0.770320 0.160564 0.839956 -0.109962
C35   C     C_R   0.739801 0.939079 0.916441 0.022477
C36   C     C_3   0.088430 0.016316 0.057998 -0.017025
C37   C     C_3   0.270320 0.660564 0.839956 -0.109962
C38   C     C_3   0.588430 0.516316 0.057998 -0.017025
C39   C     C_R   0.223930 0.855489 0.063177 -0.013061
C40   C     C_R   0.239801 0.439079 0.916441 0.022476
C41   C     C_R   0.723930 0.355489 0.063177 -0.013061
C42   C     C_R   0.690032 0.882484 0.959773 -0.064944
C43   C     C_R   0.291241 0.852856 0.034120 -0.044510
C44   C     C_R   0.190032 0.382484 0.959773 -0.064944
C45   C     C_R   0.269234 0.377481 0.853906 0.601640
C46   C     C_R   0.791241 0.352856 0.034120 -0.044510
C47   C     C_R   0.682998 0.914201 0.030916 -0.004510
C48   C     C_R   0.301948 0.879252 0.963317 0.026327
C49   C     C_R   0.182998 0.414201 0.030916 -0.004510
C50   C     C_R   0.801948 0.379252 0.963317 0.026327
C51   C     C_R   0.769316 0.068719 0.016679 -0.141515
C52   C     C_R   0.176847 0.899944 0.945248 -0.124417
C53   C     C_R   0.269316 0.568719 0.016679 -0.141515
C54   C     C_R   0.676847 0.399944 0.945248 -0.124417
C55   C     C_R   0.770336 0.047182 0.942345 0.243090
C56   C     C_R   0.212419 0.833067 0.138366 0.554424
C57   C     C_R   0.165989 0.877331 0.017758 0.228550
C58   C     C_R   0.270336 0.547182 0.942345 0.243090
C59   C     C_R   0.665989 0.377331 0.017758 0.228550
C60   C     C_3   0.675388 0.752785 0.974799 0.263951
C61   C     C_3   0.356910 0.914947 0.057685 0.279940
C62   C     C_3   0.175388 0.252785 0.974799 0.263951
C63   C     C_3   0.856910 0.414947 0.057685 0.279941
C64   C     C_3   0.666901 0.788682 0.052754 0.251187
C65   C     C_3   0.368465 0.945638 0.979733 0.296673
C66   C     C_3   0.166901 0.288682 0.052754 0.251187
C67   C     C_R   0.769234 0.877481 0.853906 0.601641
C68   C     C_3   0.868465 0.445638 0.979733 0.296672
C69   C     C_R   0.727863 0.998287 0.062499 -0.065082
C70   C     C_R   0.245603 0.909708 0.918964 0.025392
C71   C     C_R   0.227863 0.498287 0.062499 -0.065082
C72   C     C_R   0.745603 0.409708 0.918964 0.025392
C73   C     C_R   0.531629 0.153679 0.147039 0.511857
C74   C     C_R   0.468120 0.157073 0.853270 0.570873
C75   C     C_R   0.031629 0.653679 0.147039 0.511856
C76   C     C_R   0.968120 0.657073 0.853270 0.570874
C77   C     C_R   0.495240 0.166155 0.574807 -0.047103
C78   C     C_R   0.460758 0.389880 0.942702 -0.054917
C79   C     C_R   0.505369 0.156763 0.424921 -0.032959
C80   C     C_R   0.995240 0.666155 0.574807 -0.047102
C81   C     C_R   0.005368 0.656763 0.424921 -0.032959
C82   C     C_R   0.526100 0.066152 0.540886 -0.065141
C83   C     C_R   0.528366 0.061504 0.468049 0.005283
C84   C     C_R   0.026100 0.566152 0.540886 -0.065137
C85   C     C_R   0.028365 0.561504 0.468048 0.005279
C86   C     C_R   0.479844 0.261090 0.457748 0.345875
C87   C     C_R   0.475850 0.266676 0.532219 0.402107
C88   C     C_R   0.979844 0.761090 0.457748 0.345877
C89   C     C_R   0.441809 0.346369 0.087925 -0.066862
C90   C     C_R   0.975851 0.766675 0.532219 0.402107
C91   C     C_3   0.521205 0.929746 0.545743 0.164801
C92   C     C_3   0.514328 0.928595 0.464779 0.195013
C93   C     C_3   0.021205 0.429746 0.545743 0.164791
C94   C     C_3   0.014327 0.428594 0.464779 0.195018
C95   C     C_R   0.745530 0.926207 0.581125 0.020671
C96   C     C_R   0.248241 0.942311 0.417879 0.096934
C97   C     C_R   0.245530 0.426207 0.581125 0.020674
C98   C     C_R   0.748241 0.442311 0.417879 0.096932
C99   C     C_R   0.763967 0.041389 0.556821 -0.035691
C100  C     C_R   0.960758 0.889880 0.942702 -0.054917
C101  C     C_R   0.191639 0.960733 0.463769 -0.025460
C102  C     C_R   0.263967 0.541389 0.556821 -0.035690
C103  C     C_R   0.691639 0.460732 0.463769 -0.025454
C104  C     C_R   0.761315 0.066190 0.484586 0.058303
C105  C     C_R   0.200528 0.992113 0.533365 -0.007572
C106  C     C_R   0.261315 0.566190 0.484586 0.058303
C107  C     C_R   0.700528 0.492112 0.533365 -0.007563
C108  C     C_R   0.713755 0.869215 0.459956 -0.093042
C109  C     C_R   0.324469 0.014156 0.513776 -0.098395
C110  C     C_R   0.213755 0.369215 0.459957 -0.093049
C111  C     C_R   0.941809 0.846369 0.087925 -0.066862
C112  C     C_R   0.824469 0.514157 0.513776 -0.098396
C113  C     C_R   0.715985 0.843031 0.532483 -0.156290
C114  C     C_R   0.314715 0.983536 0.440600 -0.083205
C115  C     C_R   0.215984 0.343031 0.532483 -0.156298
C116  C     C_R   0.814715 0.483536 0.440600 -0.083207
C117  C     C_3   0.828644 0.117658 0.566731 0.282987
C118  C     C_3   0.129702 0.883630 0.479560 0.263078
C119  C     C_3   0.328644 0.617659 0.566731 0.282986
C120  C     C_3   0.629703 0.383628 0.479560 0.263078
C121  C     C_R   0.727206 0.019891 0.140073 0.531981
C122  C     C_R   0.933597 0.979726 0.987258 -0.107422
C123  C     C_R   0.258488 0.969873 0.852154 0.620223
C124  C     C_R   0.227206 0.519891 0.140073 0.531981
C125  C     C_R   0.758488 0.469873 0.852154 0.620223
C126  C     C_3   0.830223 0.130459 0.486623 0.300310
C127  C     C_3   0.139174 0.918347 0.557216 0.300214
C128  C     C_3   0.330223 0.630459 0.486623 0.300308
C129  C     C_3   0.639174 0.418346 0.557216 0.300216
C130  C     C_R   0.737398 0.981094 0.435519 0.036557
C131  C     C_R   0.267441 0.005268 0.562096 -0.004584
C132  C     C_R   0.237398 0.481095 0.435519 0.036560
Cr1   Cr    Cr6+3 0.772010 0.169670 0.250090 1.082625
Cr2   Cr    Cr6+3 0.383290 0.010760 0.749160 1.025722
Cr3   Cr    Cr6+3 0.116710 0.510760 0.250840 1.105124
Cr4   Cr    Cr6+3 0.883290 0.510760 0.749160 1.025722
Cr5   Cr    Cr6+3 0.227990 0.169670 0.749910 1.045147
Cr6   Cr    Cr6+3 0.272010 0.669670 0.250090 1.082617
Cr7   Cr    Cr6+3 0.727990 0.669670 0.749910 1.045148
Cr8   Cr    Cr6+3 0.615000 0.323260 0.249260 1.060385
Cr9   Cr    Cr6+3 0.385000 0.323260 0.750740 1.112799
Cr10  Cr    Cr6+3 0.115000 0.823260 0.249260 1.060388
Cr11  Cr    Cr6+3 0.885000 0.823260 0.750740 1.112798
Cr12  Cr    Cr6+3 0.616710 0.010760 0.250840 1.105109
F1    F     F_    0.458692 0.356930 0.418111 -0.623419
F2    F     F_    0.084841 0.990615 0.582058 -0.610046
F3    F     F_    0.324922 0.747828 0.465754 -0.658917
F4    F     F_    0.584841 0.490613 0.582058 -0.610036
F5    F     F_    0.234049 0.180835 0.964457 -0.604605
F6    F     F_    0.906304 0.333546 0.082890 -0.633417
F7    F     F_    0.734049 0.680835 0.964458 -0.604605
F8    F     F_    0.406304 0.833546 0.082890 -0.633419
F9    F     F_    0.598080 0.779189 0.076328 -0.671144
F10   F     F_    0.361553 0.068071 0.967473 -0.608725
F11   F     F_    0.098080 0.279189 0.076328 -0.671143
F12   F     F_    0.448420 0.367624 0.561748 -0.495629
F13   F     F_    0.861553 0.568070 0.967473 -0.608725
F14   F     F_    0.958692 0.856930 0.418111 -0.623418
F15   F     F_    0.948421 0.867624 0.561748 -0.495629
F16   F     F_    0.887669 0.058713 0.591185 -0.568547
F17   F     F_    0.143890 0.762708 0.467233 -0.674365
F18   F     F_    0.387669 0.558713 0.591186 -0.568548
F19   F     F_    0.643891 0.262707 0.467234 -0.674366
F20   F     F_    0.824922 0.247828 0.465754 -0.658917
H1    H     H_    0.551568 0.980590 0.050924 0.230280
H2    H     H_    0.375636 0.041334 0.532572 0.145007
H3    H     H_    0.196554 0.300257 0.422739 0.160326
H4    H     H_    0.875636 0.541334 0.532572 0.145007
H5    H     H_    0.700872 0.753316 0.549204 0.143770
H6    H     H_    0.358456 0.984577 0.403743 0.105298
H7    H     H_    0.200872 0.253317 0.549204 0.143763
H8    H     H_    0.858456 0.484577 0.403743 0.105300
H9    H     H_    0.817288 0.203143 0.595984 0.139532
H10   H     H_    0.081479 0.919351 0.453862 0.199427
H11   H     H_    0.317288 0.703144 0.595984 0.139532
H12   H     H_    0.542290 0.994173 0.924179 0.122982
H13   H     H_    0.581480 0.419349 0.453862 0.199428
H14   H     H_    0.873482 0.080081 0.459583 0.204933
H15   H     H_    0.153389 0.842498 0.593212 0.145733
H16   H     H_    0.373481 0.580081 0.459583 0.204932
H17   H     H_    0.653390 0.342496 0.593212 0.145730
H18   H     H_    0.473466 0.416595 0.888919 0.135805
H19   H     H_    0.434807 0.332754 0.144707 0.127020
H20   H     H_    0.973465 0.916595 0.888919 0.135805
H21   H     H_    0.934807 0.832754 0.144707 0.127021
H22   H     H_    0.924128 0.069195 0.966531 0.176603
H23   H     H_    0.051568 0.480590 0.050924 0.230280
H24   H     H_    0.901254 0.026703 0.093583 0.172382
H25   H     H_    0.424128 0.569196 0.966531 0.176603
H26   H     H_    0.401255 0.526703 0.093583 0.172381
H27   H     H_    0.804531 0.134309 0.039240 0.165682
H28   H     H_    0.132042 0.922582 0.911927 0.122813
H29   H     H_    0.304531 0.634309 0.039240 0.165683
H30   H     H_    0.632042 0.422582 0.911927 0.122813
H31   H     H_    0.626795 0.719448 0.948142 0.124076
H32   H     H_    0.347734 0.993845 0.093503 0.157001
H33   H     H_    0.126795 0.219448 0.948142 0.124076
H34   H     H_    0.042291 0.494172 0.924179 0.122982
H35   H     H_    0.847734 0.493845 0.093503 0.157001
H36   H     H_    0.706662 0.749332 0.089663 0.161220
H37   H     H_    0.415596 0.903080 0.955062 0.151163
H38   H     H_    0.206662 0.249332 0.089663 0.161220
H39   H     H_    0.915596 0.403080 0.955062 0.151163
H40   H     H_    0.013643 0.326740 0.668215 0.098003
H41   H     H_    0.927262 0.266705 0.655183 0.170736
H42   H     H_    0.997726 0.213293 0.598969 0.200852
H43   H     H_    0.999685 0.234720 0.387661 0.149303
H44   H     H_    0.038394 0.199065 0.474493 0.163657
H45   H     H_    0.572162 0.890624 0.564804 0.125516
H46   H     H_    0.090292 0.191776 0.394761 0.133338
H47   H     H_    0.513639 0.826745 0.668217 0.098007
H48   H     H_    0.427262 0.766699 0.655179 0.170739
H49   H     H_    0.497732 0.713297 0.598970 0.200848
H50   H     H_    0.499702 0.734772 0.387587 0.149286
H51   H     H_    0.538320 0.699065 0.474455 0.163677
H52   H     H_    0.590295 0.691771 0.394772 0.133332
H53   H     H_    0.717587 0.194926 0.856245 0.083941
H54   H     H_    0.763352 0.089596 0.798748 0.122518
H55   H     H_    0.799353 0.233842 0.813098 0.150836
H56   H     H_    0.460447 0.909397 0.444316 0.146703
H57   H     H_    0.136071 0.062959 0.078765 0.178548
H58   H     H_    0.047908 0.028112 0.099905 0.177642
H59   H     H_    0.069928 0.059980 0.008203 0.130255
H60   H     H_    0.217587 0.694926 0.856245 0.083941
H61   H     H_    0.263352 0.589596 0.798748 0.122518
H62   H     H_    0.299354 0.733842 0.813099 0.150836
H63   H     H_    0.636071 0.562959 0.078765 0.178548
H64   H     H_    0.547908 0.528112 0.099905 0.177641
H65   H     H_    0.569928 0.559980 0.008203 0.130255
H66   H     H_    0.072162 0.390624 0.564804 0.125503
H67   H     H_    0.960446 0.409396 0.444316 0.146712
H68   H     H_    0.696555 0.800257 0.422739 0.160329
O1    O     O_R   0.787520 0.042810 0.170440 -0.519764
O2    O     O_R   0.454050 0.051210 0.669140 -0.503227
O3    O     O_R   0.045950 0.551210 0.330860 -0.493024
O4    O     O_R   0.954050 0.551210 0.669140 -0.503225
O5    O     O_R   0.681390 0.959480 0.325510 -0.472504
O6    O     O_R   0.318610 0.959480 0.674490 -0.503192
O7    O     O_R   0.181390 0.459480 0.325510 -0.472501
O8    O     O_R   0.818610 0.459480 0.674490 -0.503192
O9    O     O_3   0.667900 0.167900 0.250060 -0.331661
O10   O     O_3   0.332100 0.167900 0.749940 -0.283011
O11   O     O_3   0.167900 0.667900 0.250060 -0.331662
O12   O     O_R   0.212480 0.042810 0.829560 -0.488773
O13   O     O_3   0.832100 0.667900 0.749940 -0.283011
O14   O     O_R   0.765640 0.292100 0.175020 -0.500732
O15   O     O_R   0.234360 0.292100 0.824980 -0.483643
O16   O     O_R   0.265640 0.792100 0.175020 -0.500733
O17   O     O_R   0.734360 0.792100 0.824980 -0.483644
O18   O     O_R   0.670190 0.408840 0.168540 -0.499904
O19   O     O_R   0.329810 0.408840 0.831460 -0.490801
O20   O     O_R   0.170190 0.908840 0.168540 -0.499903
O21   O     O_R   0.829810 0.908840 0.831460 -0.490801
O22   O     O_R   0.556620 0.251410 0.175160 -0.502422
O23   O     O_R   0.287520 0.542810 0.170440 -0.519765
O24   O     O_R   0.443380 0.251410 0.824840 -0.517938
O25   O     O_R   0.056620 0.751410 0.175160 -0.502422
O26   O     O_R   0.943380 0.751410 0.824840 -0.517938
O27   O     O_R   0.545960 0.049620 0.170320 -0.489172
O28   O     O_R   0.454040 0.049620 0.829680 -0.510614
O29   O     O_R   0.045960 0.549620 0.170320 -0.489170
O30   O     O_R   0.954040 0.549620 0.829680 -0.510614
O31   O     O_R   0.681390 0.958010 0.176690 -0.461852
O32   O     O_R   0.318610 0.958010 0.823310 -0.496378
O33   O     O_R   0.181390 0.458010 0.176690 -0.461851
O34   O     O_R   0.712480 0.542810 0.829560 -0.488773
O35   O     O_R   0.818610 0.458010 0.823310 -0.496378
O36   O     O_R   0.787510 0.044390 0.330970 -0.494934
O37   O     O_R   0.212490 0.044390 0.669030 -0.490249
O38   O     O_R   0.287510 0.544390 0.330970 -0.494935
O39   O     O_R   0.712490 0.544390 0.669030 -0.490249
O40   O     O_R   0.765630 0.293570 0.323840 -0.453035
O41   O     O_R   0.234370 0.293570 0.676160 -0.555052
O42   O     O_R   0.265630 0.793570 0.323840 -0.453037
O43   O     O_R   0.734370 0.793570 0.676160 -0.555052
O44   O     O_R   0.670190 0.410420 0.329080 -0.525483
O45   O     O_R   0.556610 0.252880 0.323980 -0.439303
O46   O     O_R   0.329810 0.410420 0.670920 -0.404278
O47   O     O_R   0.170190 0.910420 0.329080 -0.525481
O48   O     O_R   0.829810 0.910420 0.670920 -0.404278
O49   O     O_3   0.958952 0.385343 0.577570 -0.563798
O50   O     O_3   0.068411 0.364029 0.430209 -0.568663
O51   O     O_3   0.458952 0.885343 0.577570 -0.563801
O52   O     O_3   0.568412 0.864027 0.430213 -0.568670
O53   O     O_3   0.810742 0.121262 0.899166 -0.576110
O54   O     O_3   0.099686 0.891907 0.046096 -0.586922
O55   O     O_3   0.310742 0.621262 0.899167 -0.576111
O56   O     O_R   0.443390 0.252880 0.676020 -0.424510
O57   O     O_3   0.599686 0.391907 0.046096 -0.586922
O58   O     O_R   0.056610 0.752880 0.323980 -0.439303
O59   O     O_R   0.943390 0.752880 0.676020 -0.424510
O60   O     O_R   0.545950 0.051210 0.330860 -0.493037

loop_
_geom_bond_atom_site_label_1
_geom_bond_atom_site_label_2
_ccdc_geom_bond_type
C4    O40   A    
C36   O54   S    
C107  C129  S    
C105  C131  A    
C106  C132  A    
C56   O16   A    
C10   O3    A    
C12   C130  S    
Cr6   O42   S    
Cr4   O35   S    
C66   F11   S    
C95   C99   A    
C34   O53   S    
C15   O7    A    
Cr3   O11   S    
C35   C42   A    
C50   C72   A    
C120  F19   S    
C15   C132  S    
C128  H16   S    
C88   F14   S    
C48   C65   S    
C97   C115  A    
C117  C126  S    
Cr9   O56   S    
C91   H45   S    
Cr1   O14   S    
C94   O50   S    
C119  C128  S    
C21   C22   A    
Cr2   O6    S    
C96   C114  A    
Cr7   O17   S    
Cr11  O26   S    
C2    C111  A    
C40   C58   A    
C28   H23   S    
C47   C64   S    
C62   C66   S    
C34   H55   S    
C20   C28   A    
C17   C21   A    
C82   C91   S    
C60   F7    S    
C108  C113  A    
C19   C23   A    
C120  H13   S    
C31   H43   S    
C39   C56   S    
C3    C112  A    
C9    C77   S    
C61   H32   S    
C67   O17   A    
C1    C41   S    
C37   H62   S    
Cr4   O8    S    
Cr9   O19   S    
C5    O41   A    
Cr6   O23   S    
C53   C71   A    
C86   F1    S    
C16   O39   A    
C43   C61   S    
Cr6   O38   S    
C117  H9    S    
C76   O30   A    
C28   C29   A    
C48   C70   A    
C27   H12   S    
C53   C58   A    
C73   O27   A    
C128  F3    S    
C59   O57   S    
C74   O28   A    
Cr9   O10   S    
C72   C125  S    
C60   C64   S    
C44   C62   S    
Cr7   O39   S    
C77   C82   A    
C22   C89   A    
C126  H14   S    
C51   C55   A    
C84   C93   S    
C81   C88   A    
C109  H2    S    
C73   O22   A    
C61   C65   S    
C49   C71   A    
C24   H26   S    
C51   C69   A    
Cr12  O31   S    
Cr6   O11   S    
C75   O29   A    
C54   H30   S    
C37   O55   S    
C8    O45   A    
C33   H51   S    
C34   H53   S    
C10   O58   A    
C101  C118  S    
C89   H19   S    
C122  H22   S    
C90   F15   S    
C47   C69   A    
C91   O51   S    
C32   O51   S    
C108  C130  A    
C23   C100  A    
C125  O35   A    
Cr7   O43   S    
C124  O23   A    
C38   H65   S    
C54   C59   A    
C49   C66   S    
C105  C127  S    
C120  C129  S    
C17   C27   A    
Cr8   O18   S    
C11   C80   S    
C91   C92   S    
C32   H47   S    
C30   H41   S    
C64   F9    S    
C38   O57   S    
C20   C75   S    
C78   H18   S    
C12   O36   A    
C63   F6    S    
C118  H10   S    
C99   C117  S    
C110  H3    S    
C35   C67   S    
C123  O32   A    
Cr2   O2    S    
C109  C114  A    
C5    C97   S    
C18   C73   S    
C118  C127  S    
C112  C116  A    
C51   H27   S    
C108  H68   S    
C63   C68   S    
C18   C22   A    
Cr9   O24   S    
C5    O46   A    
C62   H33   S    
C103  C107  A    
C46   C63   S    
C127  H15   S    
C92   O52   S    
C45   O19   A    
Cr4   O4    S    
C37   H61   S    
Cr11  O48   S    
C6    O42   A    
C25   C111  A    
C66   H38   S    
C40   C44   A    
C16   O8    A    
C29   H34   S    
Cr11  O21   S    
C87   F12   S    
C96   C101  A    
C36   H57   S    
C81   C85   A    
C3    C16   S    
C60   H31   S    
C38   H63   S    
C93   H66   S    
Cr10  O58   S    
C26   H1    S    
C53   H29   S    
C103  C120  S    
C18   C26   A    
C80   C84   A    
Cr12  O60   S    
C26   C27   A    
C19   C76   S    
Cr9   O46   S    
Cr5   O15   S    
C20   C25   A    
C98   C103  A    
C106  C128  S    
C124  O33   A    
C55   O53   S    
C116  H8    S    
Cr8   O9    S    
Cr12  O27   S    
Cr2   O10   S    
C119  H11   S    
C13   C78   A    
C75   O25   A    
C21   C78   A    
C109  C131  A    
C8    C79   S    
C110  C132  A    
C15   O38   A    
C97   C102  A    
C11   O59   A    
C99   C104  A    
C33   O52   S    
C104  C130  A    
Cr5   O37   S    
C117  F16   S    
C6    O47   A    
C119  F18   S    
C14   C131  S    
C2    C122  A    
C40   C45   S    
C14   O37   A    
Cr10  O20   S    
Cr4   O30   S    
C84   C85   A    
C115  H7    S    
C14   O6    A    
C86   C87   A    
Cr1   O40   S    
C113  H5    S    
C102  C119  S    
C30   O49   S    
Cr10  O25   S    
Cr12  O9    S    
Cr1   O1    S    
C36   H59   S    
Cr5   O10   S    
C12   O5    A    
C88   C90   A    
C121  O1    A    
Cr3   O3    S    
Cr8   O22   S    
C7    O48   A    
C19   C29   A    
C7    C95   S    
C11   O4    A    
Cr2   O32   S    
C65   H37   S    
C9    O2    A    
Cr8   O45   S    
C33   H50   S    
C34   H54   S    
C10   C81   S    
C31   H44   S    
C79   C83   A    
C31   H46   S    
C56   O20   A    
Cr12  O5    S    
C100  H20   S    
C2    H24   S    
C52   C57   A    
C127  F2    S    
C82   C83   A    
C50   C68   S    
C110  C115  A    
C79   C86   A    
C39   C57   A    
C44   C49   A    
C118  F17   S    
C93   C94   S    
C62   F5    S    
C4    C98   S    
C125  O34   A    
C24   C89   A    
C45   O15   A    
C93   O49   S    
C83   C92   S    
C7    O43   A    
C1    O14   A    
C32   H48   S    
Cr10  O11   S    
C112  H4    S    
C13   H25   S    
C52   H28   S    
C92   H56   S    
C129  F4    S    
Cr1   O9    S    
Cr5   O12   S    
C70   C123  S    
Cr3   O7    S    
C41   C46   A    
C43   C48   A    
C68   H39   S    
C126  F20   S    
C123  O12   A    
C33   H52   S    
C94   H67   S    
C58   O55   S    
C67   O21   A    
C101  C105  A    
C111  H21   S    
C35   C55   A    
C4    O44   A    
C71   C124  S    
C31   O50   S    
C52   C70   A    
C41   C59   A    
C42   C60   S    
C1    O18   A    
C39   C43   A    
C3    C107  A    
C76   O26   A    
Cr11  O13   S    
C13   C24   A    
C65   F10   S    
C85   C94   S    
C98   C116  A    
C69   C121  S    
C54   C72   A    
C77   C87   A    
C32   H49   S    
Cr11  O59   S    
Cr7   O34   S    
Cr3   O29   S    
C6    C96   S    
C17   C74   S    
C36   H58   S    
Cr1   O36   S    
C38   H64   S    
C8    O60   A    
C114  H6    S    
C129  H17   S    
C9    O56   A    
C37   H60   S    
Cr10  O47   S    
C57   O54   S    
C30   H40   S    
C46   C50   A    
Cr8   O44   S    
C64   H36   S    
C121  O31   A    
C30   H42   S    
C95   C113  A    
Cr5   O41   S    
C63   H35   S    
Cr4   O13   S    
C102  C106  A    
C100  C122  A    
C42   C47   A    
C23   C25   A    
C80   C90   A    
C61   F8    S    
Cr6   O16   S    
C104  C126  S    
Cr2   O28   S    
Cr3   O33   S    
C74   O24   A    
C68   F13   S    
Cr7   O13   S    
