data_mof_unit_20557.cif
_audit_creation_date              2012-12-10T18:57:08-0500
_audit_creation_method            fapswitch 2.2
_symmetry_space_group_name_H-M    P1
_symmetry_Int_Tables_number       1
_space_group_crystal_system       triclinic
_cell_length_a                    10.710602
_cell_length_b                    9.850648
_cell_length_c                    10.636033
_cell_angle_alpha                 89.568406
_cell_angle_beta                  90.054539
_cell_angle_gamma                 89.926773
_cell_volume                      1122.13596266

loop_
_atom_site_label
_atom_site_type_symbol
_atom_type_description
_atom_site_fract_x
_atom_site_fract_y
_atom_site_fract_z
_atom_type_partial_charge
C1    C     C_R   0.259901 0.500029 0.500302 0.905130
C2    C     C_R   0.740058 0.499922 0.499849 0.881731
C3    C     C_R   0.596285 0.072218 0.447280 -0.045778
C4    C     C_R   0.403908 0.071607 0.553144 -0.041510
C5    C     C_R   0.596471 0.928475 0.447750 -0.051427
C6    C     C_R   0.403852 0.927813 0.553036 -0.056494
C7    C     C_R   0.498071 0.500579 0.260416 0.910608
C8    C     C_R   0.497973 0.499524 0.739529 0.933617
C9    C     C_R   0.581930 0.572925 0.062900 -0.052072
C10   C     C_R   0.583105 0.569516 0.935449 -0.110476
C11   C     C_R   0.489927 0.503354 0.128740 -0.190295
C12   C     C_R   0.491200 0.499663 0.871164 -0.132097
C13   C     C_R   0.386726 0.446230 0.066185 0.143305
C14   C     C_R   0.387118 0.444914 0.934439 0.117086
C15   C     C_3   0.723182 0.566301 0.927447 0.015513
C16   C     C_3   0.722094 0.574210 0.073029 0.070481
C17   C     C_R   0.063951 0.376558 0.492532 -0.113581
C18   C     C_R   0.936208 0.376523 0.492092 -0.103008
C19   C     C_R   0.872502 0.499935 0.500396 0.003021
C20   C     C_R   0.127379 0.500037 0.500920 -0.015044
C21   C     C_R   0.935881 0.623359 0.509514 -0.107493
C22   C     C_R   0.063662 0.623407 0.509753 -0.124740
H1    H     H_    0.112559 0.280366 0.485648 0.162787
H2    H     H_    0.887848 0.280346 0.484868 0.154547
H3    H     H_    0.887245 0.719523 0.516585 0.159185
H4    H     H_    0.112037 0.719579 0.516933 0.156795
H5    H     H_    0.673295 0.126713 0.404886 0.135524
H6    H     H_    0.327090 0.125642 0.595846 0.148355
H7    H     H_    0.673995 0.874527 0.406670 0.155207
H8    H     H_    0.326998 0.873297 0.595676 0.140734
N1    N     N_R   0.500000 0.857200 0.500000 -0.090155
N2    N     N_R   0.500000 0.142810 0.500000 -0.084907
O1    O     O_R   0.316770 0.614620 0.499990 -0.631893
O2    O     O_R   0.683230 0.614620 0.500010 -0.637499
O3    O     O_R   0.316800 0.385290 0.500000 -0.622120
O4    O     O_R   0.683200 0.385290 0.500000 -0.631175
O5    O     O_R   0.500000 0.614690 0.316780 -0.586907
O6    O     O_R   0.500000 0.614690 0.683220 -0.626688
O7    O     O_R   0.500020 0.385360 0.316780 -0.615069
O8    O     O_R   0.499980 0.385360 0.683220 -0.590193
Zn1   Zn    Zn3+2 0.500000 0.653120 0.500000 0.977684
Zn2   Zn    Zn3+2 0.500000 0.346880 0.500000 0.988806
I1    I     I_    0.233544 0.362472 0.169757 -0.195854
I2    I     I_    0.233893 0.360887 0.831839 -0.246423
I3    I     I_    0.795253 0.381130 0.845148 -0.261557
I4    I     I_    0.782808 0.761659 0.157594 -0.271967
C23   C     C_2   0.772914 0.689856 0.860165 0.504160
H9    H     H_    0.709714 0.766751 0.823255 0.066419
O9    O     O_2   0.885259 0.705154 0.847254 -0.511311
C24   C     C_2   0.774194 0.450850 0.140093 0.464442
H10   H     H_    0.720268 0.357779 0.146269 0.060640
O10   O     O_2   0.879424 0.452791 0.184139 -0.508046

loop_
_geom_bond_atom_site_label_1
_geom_bond_atom_site_label_2
_ccdc_geom_bond_type
C24   O10   D    
C9    C11   A    
C9    C10   A    
O4    Zn2   S    
C23   H9    S    
C15   C23   S    
C8    C12   S    
O1    Zn1   S    
C2    O2    A    
C3    H5    S    
C24   H10   S    
C7    O5    A    
C1    O1    A    
C23   O9    D    
C17   H1    S    
C13   C14   A    
C7    C11   S    
C11   C13   A    
C21   H3    S    
C4    N2    A    
O2    Zn1   S    
C10   C12   A    
C18   H2    S    
C14   I2    S    
C4    H6    S    
C9    C16   S    
C12   C14   A    
C17   C18   A    
O7    Zn2   S    
C5    H7    S    
C10   C15   S    
C8    O6    A    
O5    Zn1   S    
C3    N2    A    
C16   C24   S    
C5    N1    A    
N2    Zn2   S    
C15   I3    S    
C2    O4    A    
C15   C16   S    
C13   I1    S    
C17   C20   A    
C8    O8    A    
C1    O3    A    
O6    Zn1   S    
C4    C6    A    
C18   C19   A    
C22   H4    S    
C16   I4    S    
O3    Zn2   S    
C7    O7    A    
C1    C20   S    
C6    N1    A    
N1    Zn1   S    
C19   C21   A    
C2    C19   S    
C21   C22   A    
C6    H8    S    
C20   C22   A    
O8    Zn2   S    
C3    C5    A    
