data_mof_unit_42198.cif
_audit_creation_date              2012-10-26T20:21:44-0400
_audit_creation_method            fapswitch 2.2
_symmetry_space_group_name_H-M    P1
_symmetry_Int_Tables_number       1
_space_group_crystal_system       triclinic
_cell_length_a                    15.863453
_cell_length_b                    14.869103
_cell_length_c                    9.627551
_cell_angle_alpha                 90.002474
_cell_angle_beta                  89.948266
_cell_angle_gamma                 89.999099
_cell_volume                      2270.90071203

loop_
_atom_site_label
_atom_site_type_symbol
_atom_type_description
_atom_site_fract_x
_atom_site_fract_y
_atom_site_fract_z
_atom_type_partial_charge
C1    C     C_R   0.118880 0.381310 0.499868 0.579564
C2    C     C_R   0.002653 0.579342 0.925791 0.155876
C3    C     C_R   0.997340 0.579338 0.074228 0.156077
C4    C     C_R   0.002668 0.420662 0.925776 0.155999
C5    C     C_R   0.497350 0.920660 0.074209 0.155882
C6    C     C_R   0.502656 0.079340 0.925787 0.155941
C7    C     C_R   0.497340 0.079339 0.074224 0.155975
C8    C     C_R   0.502663 0.920662 0.925774 0.156074
C9    C     C_R   0.767090 0.298933 0.379036 0.386094
C10   C     C_R   0.232812 0.701182 0.621043 0.386006
C11   C     C_R   0.204288 0.734385 0.378244 0.361033
C12   C     C_R   0.881117 0.618687 0.500133 0.579631
C13   C     C_R   0.795794 0.265517 0.621700 0.361000
C14   C     C_R   0.232920 0.298953 0.620962 0.386077
C15   C     C_R   0.767000 0.700954 0.379104 0.386154
C16   C     C_R   0.795880 0.734587 0.621639 0.360986
C17   C     C_R   0.204184 0.265487 0.378310 0.361024
C18   C     C_R   0.267176 0.798829 0.378971 0.386032
C19   C     C_R   0.732897 0.201081 0.620972 0.386082
C20   C     C_R   0.704194 0.234495 0.378307 0.361008
C21   C     C_R   0.295706 0.765619 0.621768 0.361034
C22   C     C_R   0.732980 0.799024 0.620905 0.386134
C23   C     C_R   0.881117 0.381312 0.500130 0.579591
C24   C     C_R   0.267082 0.201051 0.379043 0.386072
C25   C     C_R   0.295820 0.234519 0.621695 0.361016
C26   C     C_R   0.704107 0.765397 0.378366 0.360981
C27   C     C_R   0.186151 0.685392 0.499569 -0.104787
C28   C     C_R   0.813844 0.314612 0.500438 -0.104722
C29   C     C_R   0.813842 0.685384 0.500444 -0.104670
C30   C     C_R   0.186151 0.314608 0.499561 -0.104746
C31   C     C_R   0.686147 0.185397 0.499566 -0.104726
C32   C     C_R   0.313842 0.814614 0.500438 -0.104793
C33   C     C_R   0.313850 0.185394 0.500441 -0.104744
C34   C     C_R   0.118882 0.618688 0.499871 0.579515
C35   C     C_R   0.686146 0.814602 0.499559 -0.104676
C36   C     C_2   0.979563 0.334508 0.146687 0.413916
C37   C     C_2   0.020439 0.665497 0.853311 0.414169
C38   C     C_2   0.979525 0.665477 0.146732 0.413763
C39   C     C_2   0.020496 0.334523 0.853283 0.413902
C40   C     C_2   0.479553 0.834508 0.146680 0.414070
C41   C     C_2   0.520458 0.165488 0.853306 0.413977
C42   C     C_2   0.479525 0.165483 0.146714 0.413936
C43   C     C_2   0.520485 0.834523 0.853278 0.413751
C44   C     C_R   0.618879 0.881308 0.499867 0.579627
C45   C     C_R   0.381119 0.118690 0.500133 0.579564
C46   C     C_R   0.381115 0.881314 0.500130 0.579526
C47   C     C_R   0.618880 0.118691 0.499870 0.579585
C48   C     C_R   0.997353 0.420660 0.074211 0.155948
Cu1   Cu    Cu3+1 0.000000 0.500000 0.640660 1.087401
Cu2   Cu    Cu3+1 0.000000 0.500000 0.359340 1.087511
Cu3   Cu    Cu3+1 0.500000 1.000000 0.640660 1.087506
Cu4   Cu    Cu3+1 0.500000 0.000000 0.359340 1.087407
F1    F     F_    0.780516 0.347113 0.261198 -0.482764
F2    F     F_    0.719463 0.152908 0.738820 -0.482769
F3    F     F_    0.660759 0.221483 0.258654 -0.533302
F4    F     F_    0.339045 0.778739 0.741499 -0.533125
F5    F     F_    0.719628 0.847307 0.738673 -0.482742
F6    F     F_    0.280501 0.152854 0.261213 -0.482815
F7    F     F_    0.339279 0.221538 0.741344 -0.533289
F8    F     F_    0.660586 0.778305 0.258779 -0.533456
F9    F     F_    0.219291 0.653120 0.738972 -0.482837
F10   F     F_    0.160955 0.721259 0.258515 -0.533153
F11   F     F_    0.839225 0.278534 0.741359 -0.533296
F12   F     F_    0.219503 0.347152 0.738798 -0.482776
F13   F     F_    0.780336 0.652655 0.261349 -0.482729
F14   F     F_    0.839406 0.721681 0.741227 -0.533416
F15   F     F_    0.160733 0.278476 0.258661 -0.533304
F16   F     F_    0.280683 0.846908 0.261055 -0.482799
H1    H     H_    0.006960 0.318414 0.245486 0.175683
H2    H     H_    0.993118 0.681547 0.754435 0.175730
H3    H     H_    0.007049 0.681648 0.245404 0.175566
H4    H     H_    0.993018 0.318375 0.754555 0.175646
H5    H     H_    0.506928 0.818422 0.245499 0.175763
H6    H     H_    0.493057 0.181586 0.754511 0.175668
H7    H     H_    0.506968 0.181608 0.245472 0.175653
H8    H     H_    0.492979 0.818359 0.754585 0.175549
N1    N     N_R   0.000000 0.500000 0.852070 -0.310173
N2    N     N_R   0.000000 0.500000 0.147930 -0.310105
N3    N     N_R   0.500000 1.000000 0.852070 -0.310107
N4    N     N_R   0.500000 0.000000 0.147930 -0.310167
O1    O     O_R   0.090170 0.409820 0.618740 -0.479616
O2    O     O_R   0.409830 0.090180 0.381260 -0.479632
O3    O     O_R   0.409830 0.090180 0.618740 -0.491234
O4    O     O_R   0.590170 0.909820 0.381260 -0.491281
O5    O     O_R   0.409830 0.909820 0.381260 -0.479631
O6    O     O_R   0.590170 0.090180 0.618740 -0.479624
O7    O     O_R   0.590170 0.090180 0.381260 -0.491236
O8    O     O_R   0.409830 0.909820 0.618740 -0.491178
O9    O     O_2   0.930947 0.279833 0.096239 -0.369329
O10   O     O_2   0.068980 0.720221 0.903822 -0.369166
O11   O     O_2   0.930758 0.720050 0.096441 -0.369330
O12   O     O_R   0.909830 0.590180 0.381260 -0.479565
O13   O     O_2   0.069240 0.279936 0.903623 -0.369155
O14   O     O_2   0.430945 0.779830 0.096213 -0.369124
O15   O     O_2   0.569087 0.220153 0.903738 -0.369250
O16   O     O_2   0.430836 0.220109 0.096327 -0.369196
O17   O     O_2   0.569251 0.779952 0.903578 -0.369350
O18   O     O_R   0.909830 0.590180 0.618740 -0.491286
O19   O     O_R   0.090170 0.409820 0.381260 -0.491234
O20   O     O_R   0.909830 0.409820 0.381260 -0.479611
O21   O     O_R   0.090170 0.590180 0.618740 -0.479686
O22   O     O_R   0.090170 0.590180 0.381260 -0.491177
O23   O     O_R   0.909830 0.409820 0.618740 -0.491225
O24   O     O_R   0.590170 0.909820 0.618740 -0.479568

loop_
_geom_bond_atom_site_label_1
_geom_bond_atom_site_label_2
_ccdc_geom_bond_type
C10   C27   A    
C36   O9    D    
C11   C18   A    
C12   C29   S    
C33   C45   S    
C45   O2    A    
C8    C43   S    
C11   F10   S    
C19   C31   A    
C1    O19   A    
C22   F5    S    
C44   O24   A    
C22   C35   A    
C42   H7    S    
C34   O22   A    
C37   O10   D    
C42   O16   D    
Cu4   O5    S    
Cu1   O21   S    
C18   F16   S    
C1    O1    A    
C15   F13   S    
C40   H5    S    
C7    C42   S    
C48   N2    A    
Cu4   O4    S    
C39   O13   D    
C41   H6    S    
C23   O23   A    
C3    C38   S    
C6    C41   S    
C8    N3    A    
C39   H4    S    
C13   C28   A    
C12   O18   A    
C46   O5    A    
C23   O20   A    
Cu1   O18   S    
C10   C21   A    
C31   C47   S    
C37   H2    S    
C17   C30   A    
C45   O3    A    
C9    F1    S    
C14   C30   A    
C20   F3    S    
Cu2   N2    S    
Cu3   O6    S    
C15   C29   A    
C46   O8    A    
C27   C34   S    
C21   C32   A    
C17   F15   S    
C17   C24   A    
C13   C19   A    
Cu3   Cu4   S    
C34   O21   A    
C47   O6    A    
C15   C26   A    
C16   C29   A    
C38   O11   D    
C47   O7    A    
C5    C8    A    
C9    C20   A    
C13   F11   S    
C4    C39   S    
C11   C27   A    
C14   F12   S    
Cu2   O19   S    
C23   C28   S    
C5    N4    A    
Cu4   O2    S    
C35   C44   S    
C19   F2    S    
Cu2   O12   S    
Cu2   O22   S    
C10   F9    S    
C18   C32   A    
Cu3   O3    S    
C36   H1    S    
C4    C48   A    
C43   H8    S    
C38   H3    S    
C16   C22   A    
C32   C46   S    
C12   O12   A    
Cu4   O7    S    
C43   O17   D    
C40   O14   D    
C44   O4    A    
Cu3   O8    S    
Cu1   O23   S    
C21   F4    S    
C6    C7    A    
Cu2   O20   S    
C24   C33   A    
C2    C3    A    
Cu3   O24   S    
C4    N1    A    
C2    N1    A    
C2    C37   S    
C6    N3    A    
C41   O15   D    
C1    C30   S    
Cu1   N1    S    
C36   C48   S    
Cu1   O1    S    
C14   C25   A    
Cu3   N3    S    
C26   C35   A    
C16   F14   S    
C24   F6    S    
Cu1   Cu2   S    
C5    C40   S    
C25   F7    S    
Cu4   N4    S    
C3    N2    A    
C26   F8    S    
C9    C28   A    
C25   C33   A    
C7    N4    A    
C20   C31   A    
