data_mof_unit_26657.cif
_audit_creation_date              2012-12-10T17:31:21-0500
_audit_creation_method            fapswitch 2.2
_symmetry_space_group_name_H-M    P1
_symmetry_Int_Tables_number       1
_space_group_crystal_system       triclinic
_cell_length_a                    18.993292
_cell_length_b                    18.459117
_cell_length_c                    12.362101
_cell_angle_alpha                 89.951308
_cell_angle_beta                  128.955884
_cell_angle_gamma                 90.052173
_cell_volume                      3370.36095826

loop_
_atom_site_label
_atom_site_type_symbol
_atom_type_description
_atom_site_fract_x
_atom_site_fract_y
_atom_site_fract_z
_atom_type_partial_charge
C1    C     C_R   0.610568 0.896931 0.650735 0.776393
C2    C     C_R   0.611401 0.102500 0.651720 0.774834
C3    C     C_R   0.110569 0.396931 0.650736 0.776370
C4    C     C_R   0.111406 0.602497 0.651726 0.774810
C5    C     C_R   0.242383 0.778666 0.034314 0.068866
C6    C     C_R   0.239597 0.219346 0.030923 0.068801
C7    C     C_R   0.742400 0.278645 0.034345 0.068862
C8    C     C_R   0.739597 0.719348 0.030928 0.068813
C9    C     C_R   0.665019 0.270987 0.026886 0.172493
C10   C     C_R   0.665478 0.731176 0.030304 0.169605
C11   C     C_R   0.164971 0.771054 0.026783 0.172475
C12   C     C_R   0.165474 0.231169 0.030292 0.169608
C13   C     C_R   0.587856 0.236878 0.912913 -0.242556
C14   C     C_R   0.588631 0.766800 0.918877 -0.246567
C15   C     C_R   0.087811 0.736947 0.912796 -0.242550
C16   C     C_R   0.088627 0.266792 0.918862 -0.246563
C17   C     C_R   0.588450 0.205844 0.811506 -0.206927
C18   C     C_R   0.587187 0.795978 0.814215 -0.202311
C19   C     C_R   0.088434 0.705876 0.811442 -0.206920
C20   C     C_R   0.087186 0.295974 0.814205 -0.202318
C21   C     C_R   0.316753 0.816756 0.147246 -0.262580
C22   C     C_R   0.313843 0.180304 0.141922 -0.234609
C23   C     C_R   0.816760 0.316760 0.147241 -0.262603
C24   C     C_R   0.813842 0.680304 0.141923 -0.234616
C25   C     C_R   0.239633 0.837157 0.242631 -0.196167
C26   C     C_R   0.243144 0.167349 0.249096 -0.208102
C27   C     C_R   0.739710 0.337064 0.242767 -0.196187
C28   C     C_R   0.743149 0.667354 0.249108 -0.208144
C29   C     C_R   0.674677 0.162210 0.735774 -0.105172
C30   C     C_R   0.670991 0.835098 0.731177 -0.106303
C31   C     C_R   0.174694 0.662198 0.735797 -0.105164
C32   C     C_R   0.170995 0.335100 0.731180 -0.106296
C33   C     C_R   0.683378 0.003319 0.283871 -0.301343
C34   C     C_R   0.183378 0.503308 0.283872 -0.301340
C35   C     C_R   0.342745 0.003216 0.624064 0.600700
C36   C     C_R   0.842744 0.503225 0.624062 0.600675
C37   C     C_R   0.308578 0.012373 0.696651 -0.460911
C38   C     C_R   0.808581 0.512388 0.696653 -0.460938
C39   C     C_R   0.385167 0.099707 0.343701 0.793738
C40   C     C_R   0.385129 0.900384 0.343732 0.798319
C41   C     C_R   0.885167 0.599707 0.343701 0.793796
C42   C     C_R   0.885138 0.400377 0.343744 0.798366
C43   C     C_R   0.365071 0.011965 0.841960 0.399577
C44   C     C_R   0.865072 0.511969 0.841961 0.399584
C45   C     C_R   0.460279 0.004843 0.920005 -0.105844
C46   C     C_R   0.960279 0.504841 0.920006 -0.105848
C47   C     C_R   0.493331 0.001282 0.842268 0.128433
C48   C     C_R   0.993331 0.501278 0.842269 0.128448
C49   C     C_R   0.524742 0.002998 0.071134 -0.004727
C50   C     C_R   0.024742 0.502995 0.071135 -0.004724
C51   C     C_R   0.618740 0.003136 0.138221 0.167238
C52   C     C_R   0.118741 0.503127 0.138222 0.167247
C53   C     C_R   0.648418 0.002358 0.060335 -0.263256
C54   C     C_R   0.148419 0.502347 0.060335 -0.263265
C55   C     C_R   0.587430 0.000439 0.916542 -0.113768
C56   C     C_R   0.087430 0.500432 0.916542 -0.113768
C57   C     C_R   0.501672 0.999369 0.160741 0.029433
C58   C     C_R   0.001671 0.499371 0.160741 0.029418
C59   C     C_R   0.655566 0.002331 0.364290 0.061913
C60   C     C_R   0.155566 0.502324 0.364290 0.061927
C61   C     C_R   0.665051 0.298837 0.132479 -0.209057
C62   C     C_R   0.668519 0.706249 0.140384 -0.198878
C63   C     C_R   0.164969 0.798944 0.132320 -0.209046
C64   C     C_R   0.168513 0.206240 0.140368 -0.198869
C65   C     C_R   0.313992 0.848770 0.246731 -0.050398
C66   C     C_R   0.314180 0.151590 0.246755 -0.064782
C67   C     C_R   0.814022 0.348741 0.246774 -0.050365
C68   C     C_R   0.814181 0.651592 0.246759 -0.064781
C69   C     C_R   0.748177 0.172437 0.736458 -0.184451
C70   C     C_R   0.741097 0.820729 0.725282 -0.192649
C71   C     C_R   0.248216 0.672399 0.736529 -0.184442
C72   C     C_R   0.241104 0.320737 0.725292 -0.192644
C73   C     C_R   0.316826 0.720533 0.828742 -0.155189
C74   C     C_R   0.306451 0.269188 0.811783 -0.157233
C75   C     C_R   0.816782 0.220576 0.828659 -0.155210
C76   C     C_R   0.806441 0.769179 0.811770 -0.157229
C77   C     C_R   0.315796 0.756509 0.926364 -0.205576
C78   C     C_R   0.306305 0.234231 0.911184 -0.153290
C79   C     C_R   0.815772 0.256532 0.926317 -0.205570
C80   C     C_R   0.806297 0.734225 0.911176 -0.153285
C81   C     C_R   0.743089 0.247274 0.929906 0.081047
C82   C     C_R   0.737802 0.748364 0.922577 0.078302
C83   C     C_R   0.243093 0.747273 0.929910 0.081042
C84   C     C_R   0.237805 0.248365 0.922577 0.078310
C85   C     C_R   0.668015 0.204579 0.824861 0.081932
C86   C     C_R   0.664579 0.793764 0.821748 0.079797
C87   C     C_R   0.168017 0.704584 0.824850 0.081937
C88   C     C_R   0.164581 0.293763 0.821746 0.079799
Cu1   Cu    Cu3+1 0.526340 0.000000 0.421010 0.930685
Cu2   Cu    Cu3+1 0.026340 0.500000 0.421010 0.930691
Cu3   Cu    Cu3+1 0.473640 0.000000 0.578990 0.959358
Cu4   Cu    Cu3+1 0.973640 0.500000 0.578990 0.959379
H1    H     H_    0.237949 0.859762 0.321701 0.183009
H2    H     H_    0.243713 0.147406 0.331917 0.173248
H3    H     H_    0.738056 0.359631 0.321891 0.182879
H4    H     H_    0.743717 0.647409 0.331929 0.173248
H5    H     H_    0.720240 0.002244 0.111409 0.146176
H6    H     H_    0.220241 0.502231 0.111410 0.146174
H7    H     H_    0.755211 0.004101 0.335330 0.137363
H8    H     H_    0.255212 0.504085 0.335330 0.137359
H9    H     H_    0.433765 0.994200 0.122967 0.192682
H10   H     H_    0.933765 0.494208 0.122970 0.192681
H11   H     H_    0.237565 0.022023 0.642148 0.145785
H12   H     H_    0.737570 0.522053 0.642158 0.145808
H13   H     H_    0.617522 0.999081 0.867356 0.206132
H14   H     H_    0.117523 0.499078 0.867356 0.206128
H15   H     H_    0.526642 0.234118 0.901993 0.138607
H16   H     H_    0.529462 0.772541 0.912867 0.135169
H17   H     H_    0.026579 0.734215 0.901828 0.138595
H18   H     H_    0.029455 0.272529 0.912846 0.135164
H19   H     H_    0.606642 0.292243 0.128245 0.134303
H20   H     H_    0.612613 0.715969 0.141287 0.133928
H21   H     H_    0.106532 0.792393 0.128023 0.134299
H22   H     H_    0.112604 0.215957 0.141266 0.133910
H23   H     H_    0.377833 0.823278 0.159955 0.150272
H24   H     H_    0.372662 0.171134 0.149389 0.161140
H25   H     H_    0.877809 0.323330 0.159880 0.150282
H26   H     H_    0.872659 0.671132 0.149386 0.161140
H27   H     H_    0.753992 0.141778 0.667720 0.151800
H28   H     H_    0.746499 0.850275 0.655032 0.154445
H29   H     H_    0.254044 0.641725 0.667818 0.151790
H30   H     H_    0.246509 0.350286 0.655047 0.154441
H31   H     H_    0.372470 0.791821 0.995824 0.117740
H32   H     H_    0.359953 0.195640 0.975538 0.151726
H33   H     H_    0.872449 0.291842 0.995774 0.117725
H34   H     H_    0.859944 0.695632 0.975527 0.151740
H35   H     H_    0.372951 0.728159 0.827774 0.132454
H36   H     H_    0.359457 0.257932 0.804884 0.133777
H37   H     H_    0.872892 0.228219 0.827658 0.132449
H38   H     H_    0.859442 0.757918 0.804864 0.133772
H39   H     H_    0.524906 0.184176 0.721600 0.174834
H40   H     H_    0.523701 0.818873 0.726548 0.177433
H41   H     H_    0.024896 0.684203 0.721530 0.174819
H42   H     H_    0.023700 0.318868 0.726537 0.177419
H43   H     H_    0.705215 0.002948 0.476589 0.120376
H44   H     H_    0.205216 0.502939 0.476589 0.120369
N1    N     N_R   0.566260 0.000000 0.302220 -0.194196
N2    N     N_R   0.066260 0.500000 0.302220 -0.194195
N3    N     N_R   0.434410 0.000000 0.697680 -0.236147
N4    N     N_R   0.934410 0.500000 0.697680 -0.236151
O1    O     O_R   0.608610 0.924520 0.551740 -0.580291
O2    O     O_R   0.608610 0.075480 0.551740 -0.579826
O3    O     O_R   0.108610 0.424520 0.551740 -0.580298
O4    O     O_R   0.108610 0.575480 0.551740 -0.579820
O5    O     O_R   0.564110 0.924510 0.685150 -0.607874
O6    O     O_R   0.564110 0.075490 0.685150 -0.604772
O7    O     O_R   0.064110 0.424510 0.685150 -0.607882
O8    O     O_R   0.064110 0.575490 0.685150 -0.604765
O9    O     O_R   0.435880 0.075470 0.314850 -0.589630
O10   O     O_R   0.435880 0.924530 0.314850 -0.604068
O11   O     O_R   0.935880 0.575470 0.314850 -0.589639
O12   O     O_R   0.935880 0.424530 0.314850 -0.604078
O13   O     O_R   0.391380 0.075460 0.448260 -0.543633
O14   O     O_R   0.391380 0.924540 0.448260 -0.533161
O15   O     O_R   0.891380 0.575460 0.448260 -0.543586
O16   O     O_R   0.891380 0.424540 0.448260 -0.533178
O17   O     O_3   0.287734 0.996745 0.479198 -0.541236
C89   C     C_3   0.195197 0.013117 0.406124 0.012339
H45   H     H_    0.187686 0.069672 0.428788 0.141003
H46   H     H_    0.163735 0.974071 0.433175 0.140486
C90   C     C_3   0.144047 0.006593 0.249933 -0.791924
H47   H     H_    0.125229 0.949373 0.216464 0.225966
H48   H     H_    0.080767 0.038975 0.192400 0.204271
H49   H     H_    0.185986 0.026092 0.221903 0.264624
O18   O     O_3   0.787732 0.496780 0.479188 -0.541177
C91   C     C_3   0.695174 0.513065 0.406136 0.012269
H50   H     H_    0.687593 0.569612 0.428741 0.141045
H51   H     H_    0.663784 0.473983 0.433257 0.140480
C92   C     C_3   0.644000 0.506509 0.249945 -0.791824
H52   H     H_    0.625438 0.449250 0.216597 0.226092
H53   H     H_    0.580565 0.538697 0.192400 0.204216
H54   H     H_    0.685812 0.526213 0.221810 0.264542
O19   O     O_3   0.327157 0.030515 0.904022 -0.591037
C93   C     C_3   0.269142 0.974364 0.884360 0.044215
H55   H     H_    0.306482 0.922111 0.926536 0.136713
H56   H     H_    0.209944 0.967105 0.772775 0.150792
C94   C     C_3   0.232757 0.993580 0.960847 -0.773290
H57   H     H_    0.194422 0.045276 0.920004 0.252708
H58   H     H_    0.186946 0.949976 0.945645 0.207799
H59   H     H_    0.289152 0.999610 0.073862 0.248974
O20   O     O_3   0.827157 0.530516 0.904022 -0.591036
C95   C     C_3   0.769153 0.474357 0.884369 0.044215
H60   H     H_    0.806510 0.422111 0.926582 0.136684
H61   H     H_    0.709964 0.467079 0.772780 0.150774
C96   C     C_3   0.732746 0.493578 0.960824 -0.773225
H62   H     H_    0.694389 0.545266 0.919938 0.252688
H63   H     H_    0.686949 0.449965 0.945640 0.207785
H64   H     H_    0.789134 0.499631 0.073841 0.248979

loop_
_geom_bond_atom_site_label_1
_geom_bond_atom_site_label_2
_ccdc_geom_bond_type
C26   H2    S    
C91   H51   S    
C3    O7    A    
O18   C91   S    
C17   H39   S    
C92   H52   S    
C14   C18   A    
C27   H3    S    
C20   H42   S    
C21   H23   S    
C90   H47   S    
C16   H18   S    
C32   C72   A    
O19   C93   S    
C15   C19   A    
C4    O4    A    
O17   C89   S    
C55   H13   S    
C2    C29   S    
C9    C61   A    
C1    C30   S    
C28   C68   A    
C5    C11   A    
C19   C87   A    
C6    C12   A    
C12   C64   A    
C9    C13   A    
Cu1   O1    S    
C96   H63   S    
Cu4   O8    S    
C59   N1    A    
Cu1   O2    S    
C6    C22   A    
C49   C57   A    
C48   C56   A    
C25   C63   A    
C45   C47   A    
C23   C67   A    
C26   C64   A    
C95   H60   S    
C22   C66   A    
C38   H12   S    
C27   C61   A    
C89   C90   S    
C35   N3    A    
C93   H55   S    
C11   C15   A    
C89   H46   S    
C1    O1    A    
C74   H36   S    
C12   C16   A    
C44   C46   A    
C22   H24   S    
C94   H58   S    
C18   H40   S    
C50   C52   A    
C90   H48   S    
C58   H10   S    
C30   C86   A    
C78   H32   S    
C60   H44   S    
C29   C85   A    
Cu2   O3    S    
C13   H15   S    
C21   C65   A    
C58   N2    A    
Cu1   O9    S    
C79   H33   S    
C33   C59   A    
Cu4   O7    S    
C34   C60   A    
C92   H53   S    
C40   O14   A    
C91   H50   S    
C10   C62   A    
C76   H38   S    
C30   C70   A    
C52   C54   A    
C81   C85   A    
C41   C68   S    
C29   C69   A    
C53   C55   A    
Cu2   Cu4   S    
C54   C56   A    
C14   H16   S    
C31   C87   A    
C28   C62   A    
C48   N4    A    
C57   N1    A    
C26   C66   A    
C84   C88   A    
C3    O3    A    
Cu3   O14   S    
C72   C74   A    
C10   C14   A    
C70   H28   S    
C37   H11   S    
C96   H64   S    
C49   C51   A    
O20   C95   S    
C69   H27   S    
C33   H7    S    
C95   C96   S    
C50   C58   A    
Cu2   N2    S    
C42   O16   A    
C35   O17   S    
C38   C44   A    
C6    C84   A    
C77   H31   S    
C43   C45   A    
C34   H8    S    
C45   C49   A    
C25   H1    S    
C16   C20   A    
C94   H59   S    
C40   O10   A    
Cu4   O16   S    
C93   H56   S    
C18   C86   A    
C36   N4    A    
C93   C94   S    
C56   H14   S    
Cu3   N3    S    
C19   H41   S    
Cu2   O12   S    
Cu1   O10   S    
C7    C81   A    
C39   O13   A    
C94   H57   S    
Cu1   N1    S    
C40   C65   S    
C70   C76   A    
C42   C67   S    
C2    O2    A    
C39   C66   S    
C17   C85   A    
C37   C43   A    
C32   C88   A    
C33   C51   A    
C1    O5    A    
C47   N3    A    
Cu4   N4    S    
Cu3   O5    S    
C90   H49   S    
C42   O12   A    
C35   C37   A    
C47   C55   A    
C7    C9    A    
C46   C50   A    
C73   C77   A    
C72   H30   S    
C24   H26   S    
C71   H29   S    
C76   C80   A    
Cu2   O11   S    
C83   C87   A    
C23   H25   S    
C79   C81   A    
C5    C83   A    
Cu3   O13   S    
C41   O11   A    
C2    O6    A    
C57   H9    S    
C39   O9    A    
C34   C52   A    
C5    C21   A    
C13   C17   A    
C28   H4    S    
C53   H5    S    
C36   C38   A    
C73   H35   S    
C82   C86   A    
C43   O19   S    
C15   H17   S    
C96   H62   S    
C89   H45   S    
C80   H34   S    
C61   H19   S    
C7    C23   A    
C20   C88   A    
C59   H43   S    
C36   O18   S    
C8    C24   A    
C80   C82   A    
C69   C75   A    
Cu4   O15   S    
C3    C32   S    
C95   H61   S    
C4    C31   S    
C27   C67   A    
C24   C68   A    
C63   H21   S    
C46   C48   A    
C78   C84   A    
C8    C82   A    
C62   H20   S    
C91   C92   S    
C8    C10   A    
Cu1   Cu3   S    
C74   C78   A    
C71   C73   A    
C25   C65   A    
C77   C83   A    
C54   H6    S    
C92   H54   S    
C64   H22   S    
C51   C53   A    
C11   C63   A    
C75   C79   A    
C44   O20   S    
Cu3   O6    S    
Cu2   O4    S    
C75   H37   S    
C60   N2    A    
C31   C71   A    
C41   O15   A    
C4    O8    A    
