data_mof_unit_36810.cif
_audit_creation_date              2012-12-11T16:12:54-0500
_audit_creation_method            fapswitch 2.2
_symmetry_space_group_name_H-M    P1
_symmetry_Int_Tables_number       1
_space_group_crystal_system       orthorhombic
_cell_length_a                    7.031613
_cell_length_b                    21.180915
_cell_length_c                    23.708754
_cell_angle_alpha                 90.0
_cell_angle_beta                  90.0
_cell_angle_gamma                 90.0
_cell_volume                      3531.08692092

loop_
_atom_site_label
_atom_site_type_symbol
_atom_type_description
_atom_site_fract_x
_atom_site_fract_y
_atom_site_fract_z
_atom_type_partial_charge
O1    O     O_R   0.615270 0.806540 0.192260 -0.536476
O2    O     O_R   0.384730 0.193460 0.807740 -0.535502
O3    O     O_R   0.384730 0.193460 0.692260 -0.536476
O4    O     O_R   0.615270 0.806540 0.307740 -0.535501
O5    O     O_R   0.115270 0.693460 0.307740 -0.536476
O6    O     O_R   0.884730 0.306540 0.692260 -0.535502
O7    O     O_R   0.884730 0.306540 0.807740 -0.536476
O8    O     O_R   0.115270 0.693460 0.192260 -0.535502
O9    O     O_R   0.285500 0.813970 0.307340 -0.533955
O10   O     O_R   0.714500 0.186030 0.692660 -0.533693
O11   O     O_R   0.714500 0.186030 0.807340 -0.533955
O12   O     O_R   0.285500 0.813970 0.192660 -0.533693
O13   O     O_R   0.785500 0.686030 0.192660 -0.533955
O14   O     O_R   0.214500 0.313970 0.807340 -0.533693
O15   O     O_R   0.214500 0.313970 0.692660 -0.533956
O16   O     O_R   0.785500 0.686030 0.307340 -0.533693
C1    C     C_R   0.453172 0.828746 0.326705 0.723022
C2    C     C_R   0.546798 0.171055 0.673456 0.725138
C3    C     C_R   0.546828 0.171254 0.826705 0.723023
C4    C     C_R   0.453202 0.828944 0.173456 0.725138
C5    C     C_R   0.953172 0.671254 0.173294 0.723024
C6    C     C_R   0.046798 0.328944 0.826544 0.725137
C7    C     C_R   0.046828 0.328746 0.673294 0.723024
C8    C     C_R   0.953202 0.671055 0.326544 0.725138
O17   O     O_3   0.448760 0.710460 0.250000 -0.368630
O18   O     O_3   0.551240 0.289540 0.750000 -0.368629
O19   O     O_3   0.948760 0.789540 0.250000 -0.368630
O20   O     O_3   0.051240 0.210460 0.750000 -0.368631
V1    V     V_3+5 0.173900 0.757330 0.250000 1.430339
V2    V     V_3+5 0.826100 0.242670 0.750000 1.430340
V3    V     V_3+5 0.673900 0.742670 0.250000 1.430339
V4    V     V_3+5 0.326100 0.257330 0.750000 1.430341
C9    C     C_3   0.095221 0.532004 0.545589 0.117190
C10   C     C_3   0.903508 0.476993 0.462054 0.249472
C11   C     C_3   0.904780 0.467995 0.045589 0.117188
C12   C     C_3   0.096493 0.523007 0.962054 0.249472
C13   C     C_3   0.595220 0.967995 0.954411 0.117189
C14   C     C_3   0.403507 0.023007 0.037946 0.249472
C15   C     C_3   0.404780 0.032005 0.454411 0.117189
C16   C     C_3   0.596493 0.976993 0.537946 0.249472
C17   C     C_3   0.901409 0.554776 0.521839 0.118937
C18   C     C_3   0.095191 0.454823 0.485129 0.244259
C19   C     C_3   0.098592 0.445224 0.021839 0.118937
C20   C     C_3   0.904810 0.545177 0.985129 0.244259
C21   C     C_3   0.401408 0.945224 0.978161 0.118937
C22   C     C_3   0.595190 0.045177 0.014871 0.244258
C23   C     C_3   0.598592 0.054776 0.478161 0.118938
C24   C     C_3   0.404810 0.954823 0.514870 0.244260
C25   C     C_1   0.956759 0.626120 0.372579 -0.200112
C26   C     C_1   0.042899 0.375037 0.628353 -0.219378
C27   C     C_1   0.043241 0.373879 0.872579 -0.200110
C28   C     C_1   0.957101 0.624963 0.128353 -0.219381
C29   C     C_1   0.456759 0.873879 0.127421 -0.200110
C30   C     C_1   0.542899 0.124963 0.871647 -0.219381
C31   C     C_1   0.543241 0.126120 0.627421 -0.200109
C32   C     C_1   0.457101 0.875037 0.371647 -0.219381
C33   C     C_3   0.169366 0.523665 0.484399 0.317301
C34   C     C_3   0.828254 0.485651 0.522983 0.319600
C35   C     C_3   0.830635 0.476335 0.984399 0.317300
C36   C     C_3   0.171747 0.514348 0.022983 0.319601
C37   C     C_3   0.669365 0.976335 0.015601 0.317300
C38   C     C_3   0.328253 0.014348 0.977017 0.319601
C39   C     C_3   0.330635 0.023665 0.515601 0.317300
C40   C     C_3   0.671747 0.985652 0.477017 0.319601
C41   C     C_3   0.975468 0.545768 0.460482 -0.095572
C42   C     C_3   0.022193 0.462545 0.546138 -0.094289
C43   C     C_3   0.024533 0.454232 0.960482 -0.095572
C44   C     C_3   0.977808 0.537455 0.046138 -0.094289
C45   C     C_3   0.475467 0.954231 0.039517 -0.095572
C46   C     C_3   0.522192 0.037455 0.953861 -0.094289
C47   C     C_3   0.524533 0.045768 0.539517 -0.095572
C48   C     C_3   0.477808 0.962545 0.453861 -0.094289
C49   C     C_1   0.959962 0.589453 0.411911 0.097376
C50   C     C_1   0.038956 0.414325 0.591095 0.093157
C51   C     C_1   0.040039 0.410546 0.911911 0.097377
C52   C     C_1   0.961045 0.585675 0.091096 0.093157
C53   C     C_1   0.459961 0.910547 0.088089 0.097377
C54   C     C_1   0.538955 0.085675 0.908904 0.093157
C55   C     C_1   0.540039 0.089454 0.588089 0.097377
C56   C     C_1   0.461045 0.914325 0.408904 0.093159
O21   O     O_3   0.808943 0.609329 0.540737 -0.659880
H1    H     H_    0.824854 0.609962 0.582257 0.304403
O22   O     O_3   0.195888 0.402267 0.465606 -0.605562
H2    H     H_    0.222536 0.411013 0.425307 0.332980
O23   O     O_3   0.191058 0.390671 0.040737 -0.659881
H3    H     H_    0.175144 0.390036 0.082256 0.304404
O24   O     O_3   0.804113 0.597732 0.965607 -0.605562
H4    H     H_    0.777465 0.588987 0.925307 0.332981
O25   O     O_3   0.308942 0.890671 0.959263 -0.659881
H5    H     H_    0.324856 0.890036 0.917744 0.304404
O26   O     O_3   0.695887 0.097732 0.034393 -0.605562
H6    H     H_    0.722534 0.088987 0.074693 0.332981
O27   O     O_3   0.691059 0.109329 0.459263 -0.659881
H7    H     H_    0.675144 0.109964 0.417744 0.304404
O28   O     O_3   0.304113 0.902268 0.534393 -0.605561
H8    H     H_    0.277465 0.911013 0.574693 0.332980
O29   O     O_3   0.186480 0.561025 0.591193 -0.658106
H9    H     H_    0.176577 0.607071 0.584402 0.303347
O30   O     O_3   0.803900 0.447825 0.418174 -0.602546
H10   H     H_    0.777991 0.404309 0.431491 0.331986
O31   O     O_3   0.813521 0.438974 0.091193 -0.658105
H11   H     H_    0.823422 0.392928 0.084401 0.303346
O32   O     O_3   0.196101 0.552175 0.918174 -0.602546
H12   H     H_    0.222010 0.595691 0.931492 0.331985
O33   O     O_3   0.686479 0.938974 0.908807 -0.658105
H13   H     H_    0.676578 0.892928 0.915598 0.303346
O34   O     O_3   0.303898 0.052175 0.081826 -0.602546
H14   H     H_    0.277990 0.095691 0.068508 0.331985
O35   O     O_3   0.313521 0.061026 0.408807 -0.658105
H15   H     H_    0.323422 0.107072 0.415598 0.303346
O36   O     O_3   0.696102 0.947825 0.581825 -0.602546
H16   H     H_    0.722010 0.904309 0.568508 0.331985
O37   O     O_3   0.652294 0.457530 0.537264 -0.543826
C57   C     C_3   0.568801 0.484400 0.585800 0.155798
H17   H     H_    0.415575 0.473846 0.582502 0.205841
H18   H     H_    0.583290 0.536278 0.587995 0.129220
C58   C     C_3   0.639017 0.454242 0.640618 -0.388533
H19   H     H_    0.647198 0.402181 0.635409 0.225470
H20   H     H_    0.781289 0.473489 0.651176 0.198784
C59   C     C_3   0.506157 0.469057 0.689814 -0.726049
H21   H     H_    0.494750 0.520921 0.695914 0.242269
H22   H     H_    0.563321 0.447598 0.729048 0.230131
H23   H     H_    0.362390 0.449271 0.681876 0.234268
O38   O     O_3   0.344283 0.536464 0.457253 -0.544024
C60   C     C_3   0.431067 0.592394 0.476820 0.165258
H24   H     H_    0.580725 0.589758 0.462777 0.201924
H25   H     H_    0.432691 0.595859 0.523275 0.140791
C61   C     C_3   0.346550 0.652295 0.450807 -0.406421
H26   H     H_    0.334431 0.646222 0.404423 0.220516
H27   H     H_    0.204156 0.661352 0.469287 0.206737
C62   C     C_3   0.471630 0.709735 0.462575 -0.723495
H28   H     H_    0.488517 0.716703 0.508745 0.250509
H29   H     H_    0.404323 0.752555 0.444364 0.229486
H30   H     H_    0.614019 0.703547 0.443011 0.230535
O39   O     O_3   0.347707 0.542469 0.037264 -0.543825
C63   C     C_3   0.431198 0.515600 0.085801 0.155792
H31   H     H_    0.584425 0.526152 0.082502 0.205843
H32   H     H_    0.416702 0.463722 0.087998 0.129216
C64   C     C_3   0.360988 0.545761 0.140619 -0.388525
H33   H     H_    0.352810 0.597822 0.135406 0.225470
H34   H     H_    0.218715 0.526517 0.151178 0.198781
C65   C     C_3   0.493850 0.530949 0.189814 -0.726048
H35   H     H_    0.505252 0.479085 0.195917 0.242267
H36   H     H_    0.436691 0.552412 0.229047 0.230132
H37   H     H_    0.637618 0.550732 0.181874 0.234268
O40   O     O_3   0.655718 0.463535 0.957253 -0.544024
C66   C     C_3   0.568933 0.407606 0.976821 0.165263
H38   H     H_    0.419276 0.410241 0.962776 0.201922
H39   H     H_    0.567303 0.404143 0.023276 0.140796
C67   C     C_3   0.653455 0.347705 0.950811 -0.406427
H40   H     H_    0.665576 0.353775 0.904426 0.220514
H41   H     H_    0.795849 0.338649 0.969292 0.206739
C68   C     C_3   0.528378 0.290264 0.962581 -0.723495
H42   H     H_    0.511489 0.283299 0.008752 0.250509
H43   H     H_    0.595687 0.247444 0.944372 0.229490
H44   H     H_    0.385989 0.296450 0.943016 0.230536
O41   O     O_3   0.152292 0.042469 0.962736 -0.543825
C69   C     C_3   0.068802 0.015600 0.914199 0.155792
H45   H     H_    0.915575 0.026152 0.917498 0.205843
H46   H     H_    0.083298 0.963722 0.912002 0.129216
C70   C     C_3   0.139012 0.045761 0.859381 -0.388524
H47   H     H_    0.147189 0.097822 0.864594 0.225470
H48   H     H_    0.281285 0.026517 0.848822 0.198781
C71   C     C_3   0.006150 0.030949 0.810185 -0.726047
H49   H     H_    0.994748 0.979085 0.804083 0.242267
H50   H     H_    0.063309 0.052412 0.770952 0.230131
H51   H     H_    0.862382 0.050732 0.818125 0.234268
O42   O     O_3   0.844282 0.963535 0.042747 -0.544024
C72   C     C_3   0.931067 0.907606 0.023179 0.165263
H52   H     H_    0.080724 0.910241 0.037224 0.201922
H53   H     H_    0.932697 0.904143 0.976724 0.140796
C73   C     C_3   0.846546 0.847705 0.049189 -0.406427
H54   H     H_    0.834425 0.853775 0.095574 0.220515
H55   H     H_    0.704152 0.838649 0.030708 0.206739
C74   C     C_3   0.971623 0.790264 0.037419 -0.723495
H56   H     H_    0.988511 0.783299 0.991248 0.250509
H57   H     H_    0.904313 0.747444 0.055628 0.229490
H58   H     H_    0.114012 0.796450 0.056984 0.230536
O43   O     O_3   0.847708 0.957531 0.462736 -0.543825
C75   C     C_3   0.931198 0.984400 0.414199 0.155793
H59   H     H_    0.084425 0.973848 0.417498 0.205843
H60   H     H_    0.916701 0.036278 0.412002 0.129215
C76   C     C_3   0.860988 0.954239 0.359381 -0.388524
H61   H     H_    0.852811 0.902178 0.364594 0.225470
H62   H     H_    0.718715 0.973483 0.348822 0.198781
C77   C     C_3   0.993850 0.969051 0.310185 -0.726047
H63   H     H_    0.005252 0.020915 0.304082 0.242267
H64   H     H_    0.936691 0.947588 0.270952 0.230131
H65   H     H_    0.137618 0.949268 0.318125 0.234268
O44   O     O_3   0.155718 0.036465 0.542747 -0.544024
C78   C     C_3   0.068933 0.092394 0.523179 0.165263
H66   H     H_    0.919277 0.089759 0.537224 0.201922
H67   H     H_    0.067303 0.095857 0.476724 0.140796
C79   C     C_3   0.153455 0.152296 0.549189 -0.406428
H68   H     H_    0.165576 0.146225 0.595573 0.220515
H69   H     H_    0.295849 0.161351 0.530707 0.206739
C80   C     C_3   0.028378 0.209736 0.537418 -0.723495
H70   H     H_    0.011490 0.216701 0.491248 0.250509
H71   H     H_    0.095688 0.252556 0.555627 0.229491
H72   H     H_    0.885989 0.203550 0.556983 0.230536

loop_
_geom_bond_atom_site_label_1
_geom_bond_atom_site_label_2
_ccdc_geom_bond_type
O17   V3    S    
C79   H69   S    
O24   H4    S    
O18   V4    S    
O41   C69   S    
C24   O28   S    
O12   V1    S    
O19   V1    S    
C72   H52   S    
C45   C53   S    
O28   H8    S    
C10   C18   S    
C11   O31   S    
C62   H30   S    
C61   H26   S    
C47   C55   S    
O29   H9    S    
C12   C43   S    
O39   C63   S    
C74   H57   S    
O23   H3    S    
C73   H54   S    
O16   V3    S    
O11   C3    A    
C71   H50   S    
O27   H7    S    
C12   O32   S    
O8    V1    S    
C11   C35   S    
C71   H49   S    
C66   H39   S    
C27   C51   T    
C17   C34   S    
O40   C66   S    
C76   H62   S    
C20   C44   S    
C64   C65   S    
C25   C49   T    
C79   C80   S    
C46   C54   S    
C20   C35   S    
C42   C50   S    
C21   C38   S    
O1    V3    S    
C41   C49   S    
C10   C41   S    
O3    C2    A    
O2    V4    S    
C14   O34   S    
C80   H71   S    
C38   C46   S    
C66   H38   S    
C35   C43   S    
C34   C42   S    
O22   H2    S    
O11   V2    S    
C73   H55   S    
C67   C68   S    
C34   O37   S    
O34   H14   S    
C68   H43   S    
C20   O24   S    
C11   C19   S    
C69   C70   S    
C59   H23   S    
O9    V1    S    
O15   C7    A    
C79   H68   S    
C14   C45   S    
O16   C8    A    
O7    V2    S    
C13   C46   S    
C69   H46   S    
C72   H53   S    
C65   H37   S    
O3    V4    S    
C24   C48   S    
C63   C64   S    
C18   C33   S    
C70   H48   S    
C75   H60   S    
C9    C42   S    
O21   H1    S    
C16   O36   S    
O5    V1    S    
O17   V1    S    
C57   C58   S    
C14   C22   S    
C22   C37   S    
O19   V3    S    
C78   H66   S    
C19   O23   S    
O31   H11   S    
O20   V4    S    
C66   C67   S    
C18   C42   S    
C63   H32   S    
C58   C59   S    
O14   V4    S    
O26   H6    S    
C40   O43   S    
C74   H58   S    
C63   H31   S    
C7    C26   S    
C17   C41   S    
C22   O26   S    
C12   C36   S    
C21   C45   S    
C24   C39   S    
C80   H72   S    
C29   C53   T    
C76   H61   S    
C78   H67   S    
O44   C78   S    
C13   O33   S    
O8    C5    A    
C60   C61   S    
C31   C55   T    
O10   V2    S    
C13   C37   S    
O30   H10   S    
C36   O39   S    
C32   C56   T    
C15   C48   S    
C17   O21   S    
O12   C4    A    
C10   O30   S    
C23   O27   S    
C38   O41   S    
O13   C5    A    
C68   H44   S    
C60   H25   S    
C1    C32   S    
C23   C47   S    
C16   C47   S    
C19   C36   S    
O15   V4    S    
O4    C1    A    
C2    C31   S    
C3    C30   S    
O9    C1    A    
O42   C72   S    
O6    V2    S    
C39   C47   S    
O18   V2    S    
C28   C52   T    
C60   H24   S    
C72   C73   S    
C67   H41   S    
C76   C77   S    
C43   C51   S    
C13   C21   S    
C62   H28   S    
C39   O44   S    
C61   C62   S    
C23   C40   S    
C70   C71   S    
C21   O25   S    
C59   H21   S    
C59   H22   S    
C73   C74   S    
C15   C23   S    
O37   C57   S    
C37   C45   S    
C8    C25   S    
C16   C24   S    
O1    C4    A    
C9    C33   S    
O36   H16   S    
O2    C3    A    
C67   H40   S    
O13   V3    S    
C71   H51   S    
C18   O22   S    
C33   C41   S    
C4    C29   S    
C62   H29   S    
C61   H27   S    
C57   H18   S    
C64   H33   S    
C75   C76   S    
C57   H17   S    
C44   C52   S    
O7    C6    A    
C15   C39   S    
O33   H13   S    
C16   C40   S    
C37   O42   S    
C9    C17   S    
O14   C6    A    
C77   H65   S    
C58   H20   S    
C77   H63   S    
C78   C79   S    
C48   C56   S    
C74   H56   S    
C70   H47   S    
C58   H19   S    
C33   O38   S    
C64   H34   S    
C26   C50   T    
C69   H45   S    
O5    C8    A    
C11   C44   S    
O10   C2    A    
O6    C7    A    
O20   V2    S    
C9    O29   S    
C40   C48   S    
C80   H70   S    
C22   C46   S    
O4    V3    S    
C12   C20   S    
O43   C75   S    
C35   O40   S    
C15   O35   S    
C36   C44   S    
C19   C43   S    
O35   H15   S    
O32   H12   S    
C10   C34   S    
C65   H35   S    
O38   C60   S    
C30   C54   T    
C68   H42   S    
O25   H5    S    
C77   H64   S    
C5    C28   S    
C65   H36   S    
C75   H59   S    
C6    C27   S    
C14   C38   S    
