data_mof_unit_23732.cif
_audit_creation_date              2012-12-10T18:07:22-0500
_audit_creation_method            fapswitch 2.2
_symmetry_space_group_name_H-M    P1
_symmetry_Int_Tables_number       1
_space_group_crystal_system       triclinic
_cell_length_a                    18.276465
_cell_length_b                    18.279213
_cell_length_c                    42.984309
_cell_angle_alpha                 90.003324
_cell_angle_beta                  90.003218
_cell_angle_gamma                 89.997685
_cell_volume                      14360.1719564

loop_
_atom_site_label
_atom_site_type_symbol
_atom_type_description
_atom_site_fract_x
_atom_site_fract_y
_atom_site_fract_z
_atom_type_partial_charge
C1    C     C_R   0.433712 0.999996 0.114919 -0.132636
C2    C     C_R   0.066287 0.500001 0.385081 -0.132080
C3    C     C_R   0.264746 0.789377 0.722485 0.225082
C4    C     C_R   0.210484 0.264628 0.277512 0.227654
C5    C     C_R   0.790287 0.736516 0.722576 0.226764
C6    C     C_R   0.263898 0.790628 0.277257 0.225908
C7    C     C_R   0.735251 0.210609 0.722486 0.225201
C8    C     C_R   0.196044 0.696299 0.250127 -0.033607
C9    C     C_R   0.803837 0.303853 0.749997 -0.032202
C10   C     C_R   0.303803 0.196185 0.249999 -0.035070
C11   C     C_R   0.696043 0.803701 0.750124 -0.033703
C12   C     C_R   0.803805 0.303811 0.250000 -0.035076
C13   C     C_R   0.500024 0.933726 0.614919 -0.132943
C14   C     C_R   0.196158 0.696152 0.749999 -0.032198
C15   C     C_R   0.696045 0.803703 0.249879 -0.033593
C16   C     C_R   0.303840 0.196149 0.750002 -0.032237
C17   C     C_R   0.196197 0.303815 0.749999 -0.035110
C18   C     C_R   0.803954 0.696296 0.250122 -0.033612
C19   C     C_R   0.303806 0.803811 0.750000 -0.035079
C20   C     C_R   0.696157 0.196153 0.249999 -0.032173
C21   C     C_R   0.803957 0.696299 0.749876 -0.033664
C22   C     C_R   0.196160 0.303850 0.250002 -0.032168
C23   C     C_R   0.696200 0.196183 0.750002 -0.035084
C24   C     C_R   0.499988 0.066280 0.385080 -0.131995
C25   C     C_R   0.303956 0.803702 0.249872 -0.033633
C26   C     C_R   0.499995 0.999984 0.065921 0.036672
C27   C     C_R   0.500000 0.999979 0.934079 0.036732
C28   C     C_R   0.999972 0.499991 0.065921 0.036796
C29   C     C_R   0.999973 0.499998 0.934079 0.036743
C30   C     C_R   0.999999 0.499999 0.565921 0.036680
C31   C     C_R   0.000003 0.500003 0.434079 0.036672
C32   C     C_R   0.500024 0.000001 0.565921 0.036795
C33   C     C_R   0.499996 0.000009 0.434079 0.036797
C34   C     C_3   0.306344 0.823074 0.176064 -0.076022
C35   C     C_R   0.066281 0.499991 0.614922 -0.132139
C36   C     C_3   0.696764 0.172662 0.823424 -0.069754
C37   C     C_3   0.174648 0.303325 0.176060 -0.073725
C38   C     C_3   0.824882 0.694251 0.823504 -0.069156
C39   C     C_3   0.696786 0.174559 0.176058 -0.073598
C40   C     C_3   0.303270 0.827351 0.823424 -0.069921
C41   C     C_3   0.825093 0.694477 0.176502 -0.069068
C42   C     C_3   0.172520 0.303121 0.823421 -0.069768
C43   C     C_3   0.302979 0.174381 0.823939 -0.073650
C44   C     C_3   0.694223 0.823532 0.176063 -0.075760
C45   C     C_3   0.174531 0.696854 0.823938 -0.073616
C46   C     C_R   0.933720 0.500004 0.385078 -0.132539
C47   C     C_3   0.827291 0.303299 0.176574 -0.069828
C48   C     C_3   0.693965 0.823327 0.823939 -0.075841
C49   C     C_3   0.303395 0.172795 0.176569 -0.069726
C50   C     C_3   0.825478 0.303178 0.823939 -0.073680
C51   C     C_3   0.175390 0.693960 0.176489 -0.069063
C52   C     C_3   0.803137 0.325464 0.676058 -0.073638
C53   C     C_3   0.193656 0.676930 0.323936 -0.076001
C54   C     C_3   0.675115 0.805756 0.676497 -0.069172
C55   C     C_3   0.327193 0.196577 0.323432 -0.069841
C56   C     C_3   0.196840 0.674507 0.676061 -0.073792
C57   C     C_R   0.500014 0.066272 0.614923 -0.131952
C58   C     C_3   0.803297 0.327319 0.323425 -0.069724
C59   C     C_3   0.325611 0.197008 0.676062 -0.073610
C60   C     C_3   0.674893 0.805519 0.323497 -0.069030
C61   C     C_3   0.805774 0.676472 0.323939 -0.075783
C62   C     C_3   0.196907 0.327498 0.676581 -0.069775
C63   C     C_3   0.674568 0.196805 0.323939 -0.073678
C64   C     C_3   0.327328 0.803259 0.676575 -0.069700
C65   C     C_3   0.196687 0.325348 0.323943 -0.073631
C66   C     C_3   0.806035 0.676680 0.676060 -0.075780
C67   C     C_3   0.324610 0.806042 0.323510 -0.069105
C68   C     C_R   0.499995 0.933734 0.385078 -0.133335
C69   C     C_3   0.672666 0.196706 0.676573 -0.069831
C70   C     C_R   0.433705 0.999991 0.082484 -0.119647
C71   C     C_R   0.566291 0.999979 0.917516 -0.119567
C72   C     C_R   0.999976 0.433711 0.082485 -0.119382
C73   C     C_R   0.566285 0.999984 0.885081 -0.132500
C74   C     C_R   0.999965 0.566279 0.917516 -0.119581
C75   C     C_R   0.566285 0.999983 0.082487 -0.119772
C76   C     C_R   0.433711 0.999984 0.917512 -0.119457
C77   C     C_R   0.999976 0.566271 0.082487 -0.119533
C78   C     C_R   0.999987 0.433719 0.917512 -0.119422
C79   C     C_R   0.933709 0.500006 0.582484 -0.119761
C80   C     C_R   0.066294 0.500002 0.417516 -0.119794
C81   C     C_R   0.500029 0.933720 0.582484 -0.119389
C82   C     C_R   0.499990 0.066288 0.417515 -0.119381
C83   C     C_R   0.066289 0.499991 0.582487 -0.119503
C84   C     C_R   0.999984 0.433720 0.114920 -0.131996
C85   C     C_R   0.933713 0.500004 0.417513 -0.119628
C86   C     C_R   0.500018 0.066280 0.582488 -0.119376
C87   C     C_R   0.499997 0.933728 0.417513 -0.119530
C88   C     C_R   0.499996 0.999995 0.131422 0.042281
C89   C     C_R   0.500002 0.999991 0.868578 0.042028
C90   C     C_R   0.999989 0.499994 0.131423 0.041243
C91   C     C_R   0.999989 0.500002 0.868577 0.041938
C92   C     C_R   0.999998 0.499999 0.631422 0.042459
C93   C     C_R   0.000003 0.500002 0.368578 0.042284
C94   C     C_R   0.500014 0.999998 0.631423 0.041506
C95   C     C_R   0.999974 0.566274 0.885081 -0.132483
C96   C     C_R   0.499993 0.000006 0.368577 0.041240
C97   C     C_R   0.000003 0.500003 0.468419 0.348580
C98   C     C_R   0.000001 0.500000 0.531581 0.348605
C99   C     C_R   0.500003 0.000008 0.468419 0.348584
C100  C     C_R   0.500019 0.000004 0.531582 0.348607
C101  C     C_R   0.499999 0.999977 0.968418 0.348603
C102  C     C_R   0.499996 0.999980 0.031581 0.348582
C103  C     C_R   0.999968 0.499995 0.968418 0.348608
C104  C     C_R   0.999968 0.499991 0.031581 0.348582
C105  C     C_R   0.499997 0.000002 0.334334 0.507461
C106  C     C_R   0.566279 0.999988 0.114922 -0.131984
C107  C     C_R   0.500004 0.999998 0.665666 0.507700
C108  C     C_R   0.000001 0.500001 0.334336 0.507959
C109  C     C_R   0.999999 0.500000 0.665664 0.508579
C110  C     C_R   0.999998 0.500001 0.834335 0.508306
C111  C     C_R   0.999998 0.499998 0.165665 0.507459
C112  C     C_R   0.500001 0.999998 0.834336 0.507974
C113  C     C_R   0.499998 0.999999 0.165664 0.507956
C114  C     C_R   0.359912 0.140083 0.249999 0.594971
C115  C     C_R   0.639884 0.859722 0.750133 0.593628
C116  C     C_R   0.859913 0.359915 0.250000 0.594942
C117  C     C_R   0.433719 0.999990 0.885078 -0.132040
C118  C     C_R   0.140080 0.640079 0.749999 0.593277
C119  C     C_R   0.639887 0.859727 0.249869 0.593775
C120  C     C_R   0.359920 0.140077 0.750001 0.593342
C121  C     C_R   0.139881 0.640280 0.250136 0.593747
C122  C     C_R   0.859918 0.359923 0.749998 0.593686
C123  C     C_R   0.359913 0.859915 0.750000 0.594505
C124  C     C_R   0.640080 0.140079 0.250000 0.593693
C125  C     C_R   0.860116 0.640278 0.749867 0.594010
C126  C     C_R   0.140081 0.359922 0.250001 0.593703
C127  C     C_R   0.640089 0.140083 0.750001 0.594913
C128  C     C_R   0.999984 0.566265 0.114922 -0.133335
C129  C     C_R   0.360119 0.859719 0.249864 0.593560
C130  C     C_R   0.140087 0.359917 0.749999 0.594749
C131  C     C_R   0.860113 0.640273 0.250131 0.593591
C132  C     C_R   0.290388 0.763366 0.222593 0.226788
C133  C     C_R   0.710626 0.235246 0.777515 0.225040
C134  C     C_R   0.235378 0.289516 0.222490 0.227852
C135  C     C_R   0.764001 0.709491 0.777278 0.225884
C136  C     C_R   0.710519 0.235329 0.222482 0.227668
C137  C     C_R   0.289387 0.764758 0.777515 0.225101
C138  C     C_R   0.764082 0.709580 0.222704 0.225879
C139  C     C_R   0.999995 0.433727 0.885077 -0.132053
C140  C     C_R   0.235189 0.289322 0.777525 0.225076
C141  C     C_R   0.289395 0.235250 0.777533 0.227663
C142  C     C_R   0.709797 0.763577 0.222561 0.226845
C143  C     C_R   0.235325 0.710545 0.777520 0.227667
C144  C     C_R   0.764729 0.289394 0.222488 0.225198
C145  C     C_R   0.709713 0.763485 0.777424 0.226744
C146  C     C_R   0.289437 0.235298 0.222495 0.225071
C147  C     C_R   0.764681 0.289466 0.777519 0.227827
C148  C     C_R   0.236101 0.709373 0.222743 0.225946
C149  C     C_R   0.789453 0.264681 0.722478 0.227614
C150  C     C_R   0.933715 0.500006 0.614919 -0.132041
C151  C     C_R   0.209611 0.736635 0.277407 0.226777
C152  C     C_R   0.735998 0.790509 0.722722 0.225854
C153  C     C_R   0.264692 0.210558 0.277504 0.225220
C154  C     C_R   0.210538 0.735310 0.722478 0.227722
C155  C     C_R   0.789401 0.264744 0.277512 0.225087
C156  C     C_R   0.264742 0.210601 0.722470 0.227670
C157  C     C_R   0.735914 0.790417 0.277297 0.225905
C158  C     C_R   0.790200 0.736420 0.277440 0.226862
C159  C     C_R   0.210682 0.264818 0.722474 0.225082
C160  C     C_R   0.735340 0.210530 0.277517 0.227830
H1    H     H_    0.381764 0.000001 0.127047 0.115602
H2    H     H_    0.118235 0.500000 0.372953 0.115596
H3    H     H_    0.344602 0.253225 0.682256 0.077839
H4    H     H_    0.301669 0.199127 0.652373 0.132041
H5    H     H_    0.639947 0.761475 0.313325 0.092632
H6    H     H_    0.637920 0.849988 0.331358 0.153395
H7    H     H_    0.703024 0.783915 0.344406 0.123267
H8    H     H_    0.842395 0.628140 0.324762 0.159748
H9    H     H_    0.749156 0.657614 0.318350 0.078100
H10   H     H_    0.805044 0.700241 0.347676 0.132348
H11   H     H_    0.241561 0.361200 0.687034 0.091689
H12   H     H_    0.152751 0.365461 0.669275 0.154543
H13   H     H_    0.500027 0.881785 0.627047 0.115620
H14   H     H_    0.217914 0.300553 0.655283 0.122519
H15   H     H_    0.626198 0.160292 0.325183 0.159373
H16   H     H_    0.655596 0.253059 0.317796 0.077868
H17   H     H_    0.698528 0.198815 0.347627 0.132087
H18   H     H_    0.361153 0.758684 0.687014 0.091805
H19   H     H_    0.365196 0.847455 0.669230 0.154538
H20   H     H_    0.300324 0.782180 0.655302 0.122518
H21   H     H_    0.160190 0.373733 0.325171 0.159515
H22   H     H_    0.252979 0.344279 0.317831 0.078160
H23   H     H_    0.198618 0.301387 0.347630 0.132134
H24   H     H_    0.499986 0.118220 0.372951 0.115356
H25   H     H_    0.749371 0.657858 0.681583 0.078079
H26   H     H_    0.842634 0.628329 0.675271 0.159794
H27   H     H_    0.805455 0.700460 0.652325 0.132455
H28   H     H_    0.361366 0.850606 0.331455 0.153094
H29   H     H_    0.359802 0.762119 0.313398 0.092888
H30   H     H_    0.296308 0.784331 0.344356 0.123384
H31   H     H_    0.638854 0.241300 0.687006 0.091835
H32   H     H_    0.634786 0.152511 0.669235 0.154344
H33   H     H_    0.699669 0.217758 0.655298 0.122551
H34   H     H_    0.118230 0.499986 0.627053 0.115221
H35   H     H_    0.881772 0.500005 0.372948 0.115535
H36   H     H_    0.500008 0.118212 0.627054 0.115293
H37   H     H_    0.499998 0.881793 0.372948 0.115975
H38   H     H_    0.381679 0.999992 0.070435 0.134487
H39   H     H_    0.618317 0.999975 0.929566 0.134453
H40   H     H_    0.999973 0.381693 0.070436 0.134416
H41   H     H_    0.618234 0.999984 0.872953 0.115541
H42   H     H_    0.999954 0.618296 0.929566 0.134441
H43   H     H_    0.618311 0.999978 0.070440 0.134374
H44   H     H_    0.381685 0.999984 0.929559 0.134418
H45   H     H_    0.999973 0.618289 0.070440 0.134553
H46   H     H_    0.999992 0.381700 0.929558 0.134428
H47   H     H_    0.881683 0.500012 0.570434 0.134372
H48   H     H_    0.118320 0.500001 0.429565 0.134386
H49   H     H_    0.500034 0.881703 0.570434 0.134523
H50   H     H_    0.499988 0.118306 0.429564 0.134416
H51   H     H_    0.118315 0.499986 0.570441 0.134435
H52   H     H_    0.999987 0.381780 0.127049 0.115352
H53   H     H_    0.881688 0.500005 0.429560 0.134471
H54   H     H_    0.500015 0.118299 0.570442 0.134410
H55   H     H_    0.500001 0.881711 0.429560 0.134556
H56   H     H_    0.342940 0.871427 0.175310 0.159772
H57   H     H_    0.249640 0.841886 0.181522 0.078085
H58   H     H_    0.305910 0.799274 0.152331 0.132510
H59   H     H_    0.741386 0.138887 0.812990 0.091946
H60   H     H_    0.652580 0.134761 0.830752 0.154580
H61   H     H_    0.717801 0.199657 0.844707 0.122544
H62   H     H_    0.126276 0.339841 0.174823 0.159363
H63   H     H_    0.999968 0.618215 0.872954 0.115575
H64   H     H_    0.155680 0.247058 0.182178 0.077870
H65   H     H_    0.198621 0.301365 0.152374 0.132103
H66   H     H_    0.859934 0.738243 0.813362 0.092651
H67   H     H_    0.861762 0.649741 0.831400 0.153199
H68   H     H_    0.796672 0.715900 0.844385 0.123320
H69   H     H_    0.660289 0.126179 0.174821 0.159494
H70   H     H_    0.753064 0.155621 0.182194 0.078133
H71   H     H_    0.698761 0.198507 0.152369 0.132112
H72   H     H_    0.258654 0.861135 0.812990 0.091856
H73   H     H_    0.347461 0.865243 0.830757 0.154327
H74   H     H_    0.618227 0.999986 0.127052 0.115533
H75   H     H_    0.282228 0.800359 0.844704 0.122530
H76   H     H_    0.862106 0.650022 0.168661 0.153323
H77   H     H_    0.859995 0.738571 0.186662 0.092637
H78   H     H_    0.796958 0.716019 0.155582 0.123331
H79   H     H_    0.138760 0.258520 0.812964 0.091750
H80   H     H_    0.134599 0.347290 0.830750 0.154478
H81   H     H_    0.199484 0.282062 0.844707 0.122525
H82   H     H_    0.339474 0.125999 0.825187 0.159432
H83   H     H_    0.246726 0.155450 0.817759 0.077803
H84   H     H_    0.300916 0.198294 0.847634 0.132047
H85   H     H_    0.381770 0.999994 0.872947 0.115266
H86   H     H_    0.750821 0.842429 0.181665 0.078276
H87   H     H_    0.657574 0.871841 0.175228 0.159717
H88   H     H_    0.694999 0.799751 0.152329 0.132309
H89   H     H_    0.126163 0.660339 0.825187 0.159454
H90   H     H_    0.155556 0.753100 0.817784 0.077963
H91   H     H_    0.198486 0.698890 0.847627 0.132049
H92   H     H_    0.861117 0.258715 0.187005 0.091907
H93   H     H_    0.865158 0.347498 0.169232 0.154354
H94   H     H_    0.800278 0.282234 0.155300 0.122559
H95   H     H_    0.657357 0.871670 0.824731 0.159782
H96   H     H_    0.999987 0.618207 0.127052 0.115976
H97   H     H_    0.750623 0.842160 0.818412 0.078030
H98   H     H_    0.694560 0.799545 0.847673 0.132459
H99   H     H_    0.258795 0.138963 0.186983 0.092051
H100  H     H_    0.347607 0.134939 0.169222 0.154560
H101  H     H_    0.282345 0.199836 0.155300 0.122587
H102  H     H_    0.873844 0.339695 0.825190 0.159342
H103  H     H_    0.844457 0.246931 0.817786 0.077812
H104  H     H_    0.801521 0.301150 0.847626 0.132057
H105  H     H_    0.140189 0.737873 0.186603 0.092828
H106  H     H_    0.138642 0.649394 0.168539 0.153175
H107  H     H_    0.000006 0.381787 0.872946 0.115250
H108  H     H_    0.203694 0.715684 0.155646 0.123361
H109  H     H_    0.839628 0.373848 0.674822 0.159463
H110  H     H_    0.746862 0.344393 0.682202 0.078100
H111  H     H_    0.801145 0.301523 0.652367 0.132085
H112  H     H_    0.250356 0.658110 0.318476 0.078236
H113  H     H_    0.157055 0.628581 0.324694 0.159738
H114  H     H_    0.194099 0.700735 0.347668 0.132496
H115  H     H_    0.638253 0.850273 0.668594 0.153153
H116  H     H_    0.640045 0.761782 0.686642 0.092591
H117  H     H_    0.703324 0.784084 0.655619 0.123314
H118  H     H_    0.881766 0.500012 0.627047 0.115503
H119  H     H_    0.361051 0.241156 0.313018 0.091924
H120  H     H_    0.365035 0.152360 0.330782 0.154301
H121  H     H_    0.300146 0.217638 0.344697 0.122592
H122  H     H_    0.160338 0.626131 0.674821 0.159348
H123  H     H_    0.253109 0.655563 0.682210 0.077823
H124  H     H_    0.198843 0.698441 0.652370 0.132021
H125  H     H_    0.758686 0.361114 0.312994 0.091992
H126  H     H_    0.847491 0.365203 0.330762 0.154582
H127  H     H_    0.782251 0.300316 0.344702 0.122558
H128  H     H_    0.373971 0.160481 0.674795 0.159381
N1    N     N_R   0.563881 0.999976 0.015476 -0.230756
N2    N     N_R   0.936118 0.500006 0.484524 -0.230740
N3    N     N_R   0.500011 0.063880 0.515477 -0.230668
N4    N     N_R   0.500012 0.936132 0.484524 -0.230712
N5    N     N_R   0.936117 0.500005 0.515472 -0.230756
N6    N     N_R   0.063887 0.499998 0.484528 -0.230748
N7    N     N_R   0.500019 0.936130 0.515472 -0.230695
N8    N     N_R   0.500003 0.063882 0.484528 -0.230671
N9    N     N_R   0.436114 0.999981 0.984524 -0.230701
N10   N     N_R   0.999963 0.563867 0.015476 -0.230727
N11   N     N_R   0.999973 0.436119 0.984524 -0.230669
N12   N     N_R   0.436112 0.999982 0.015472 -0.230715
N13   N     N_R   0.563883 0.999974 0.984528 -0.230736
N14   N     N_R   0.999973 0.436117 0.015472 -0.230675
N15   N     N_R   0.999963 0.563869 0.984528 -0.230725
N16   N     N_R   0.063886 0.499997 0.515476 -0.230712
O1    O     O_3   0.500000 0.000000 0.250000 -0.440574
O2    O     O_R   0.500000 0.939250 0.680570 -0.563211
O3    O     O_R   0.939250 0.500000 0.319430 -0.565546
O4    O     O_R   0.060750 0.500000 0.680570 -0.565058
O5    O     O_R   0.000000 0.439250 0.819430 -0.565158
O6    O     O_R   0.000000 0.560750 0.180570 -0.562709
O7    O     O_R   0.560750 0.000000 0.819430 -0.565711
O8    O     O_R   0.439250 0.000000 0.180570 -0.565612
O9    O     O_R   0.000000 0.560750 0.819430 -0.564688
O10   O     O_R   0.000000 0.439250 0.180570 -0.565263
O11   O     O_R   0.439250 0.000000 0.819430 -0.565137
O12   O     O_3   0.500000 0.000000 0.750000 -0.440676
O13   O     O_R   0.560750 0.000000 0.180570 -0.567133
O14   O     O_R   0.414500 0.146140 0.268270 -0.540980
O15   O     O_R   0.585500 0.853860 0.731730 -0.540607
O16   O     O_R   0.853860 0.414500 0.268270 -0.540500
O17   O     O_R   0.146140 0.585500 0.731730 -0.543512
O18   O     O_R   0.585500 0.853860 0.268270 -0.540473
O19   O     O_R   0.414500 0.146140 0.731730 -0.543398
O20   O     O_R   0.146140 0.585500 0.268270 -0.544368
O21   O     O_R   0.853860 0.414500 0.731730 -0.542757
O22   O     O_R   0.414500 0.853860 0.731730 -0.541089
O23   O     O_3   0.000000 0.500000 0.250000 -0.440570
O24   O     O_R   0.585500 0.146140 0.268270 -0.543410
O25   O     O_R   0.853860 0.585500 0.731730 -0.544266
O26   O     O_R   0.146140 0.414500 0.268270 -0.542701
O27   O     O_R   0.585500 0.146140 0.731730 -0.541008
O28   O     O_R   0.414500 0.853860 0.268270 -0.540492
O29   O     O_R   0.146140 0.414500 0.731730 -0.540958
O30   O     O_R   0.853860 0.585500 0.268270 -0.544488
O31   O     O_R   0.914500 0.646140 0.768270 -0.540376
O32   O     O_R   0.085500 0.353860 0.231730 -0.543441
O33   O     O_R   0.353860 0.914500 0.768270 -0.541083
O34   O     O_3   0.000000 0.500000 0.750000 -0.440392
O35   O     O_R   0.646140 0.085500 0.231730 -0.542749
O36   O     O_R   0.085500 0.353860 0.768270 -0.540963
O37   O     O_R   0.914500 0.646140 0.231730 -0.540483
O38   O     O_R   0.646140 0.085500 0.768270 -0.540524
O39   O     O_R   0.353860 0.914500 0.231730 -0.544587
O40   O     O_R   0.914500 0.353860 0.231730 -0.540964
O41   O     O_R   0.085500 0.646140 0.768270 -0.543323
O42   O     O_R   0.353860 0.085500 0.231730 -0.540435
O43   O     O_R   0.646140 0.914500 0.768270 -0.544499
O44   O     O_R   0.085500 0.646140 0.231730 -0.540474
O45   O     O_R   0.500000 0.939250 0.319430 -0.562707
O46   O     O_R   0.914500 0.353860 0.768270 -0.543429
O47   O     O_R   0.646140 0.914500 0.231730 -0.544266
O48   O     O_R   0.353860 0.085500 0.768270 -0.543409
O49   O     O_3   0.335518 0.770717 0.196897 -0.517946
O50   O     O_3   0.666398 0.226020 0.803382 -0.516844
O51   O     O_3   0.226798 0.333902 0.196628 -0.517050
O52   O     O_3   0.772645 0.664215 0.802850 -0.516202
O53   O     O_3   0.666159 0.226708 0.196610 -0.517301
O54   O     O_3   0.333626 0.773989 0.803381 -0.516882
O55   O     O_3   0.772792 0.664386 0.197108 -0.516325
O56   O     O_R   0.500000 0.060750 0.680570 -0.565247
O57   O     O_3   0.225918 0.333506 0.803404 -0.516824
O58   O     O_3   0.333681 0.226557 0.803424 -0.517292
O59   O     O_3   0.664833 0.771135 0.196820 -0.517907
O60   O     O_3   0.226697 0.666216 0.803396 -0.517362
O61   O     O_3   0.773933 0.333637 0.196626 -0.516676
O62   O     O_3   0.664672 0.770951 0.803143 -0.517990
O63   O     O_3   0.333720 0.226114 0.196641 -0.516799
O64   O     O_3   0.773312 0.333808 0.803394 -0.517073
O65   O     O_3   0.227543 0.663992 0.197197 -0.516165
O66   O     O_3   0.833788 0.273312 0.696601 -0.517357
O67   O     O_R   0.060750 0.500000 0.319430 -0.567212
O68   O     O_3   0.164480 0.729284 0.303103 -0.517963
O69   O     O_3   0.727356 0.835786 0.697150 -0.516293
O70   O     O_3   0.273865 0.166272 0.303355 -0.516655
O71   O     O_3   0.166197 0.726670 0.696602 -0.517270
O72   O     O_3   0.833649 0.273966 0.303376 -0.516785
O73   O     O_3   0.273430 0.166316 0.696581 -0.517313
O74   O     O_3   0.727201 0.835608 0.302894 -0.516214
O75   O     O_3   0.835166 0.728865 0.303180 -0.517887
O76   O     O_3   0.166505 0.274101 0.696592 -0.516807
O77   O     O_3   0.726729 0.166185 0.303390 -0.517068
O78   O     O_R   0.939250 0.500000 0.680570 -0.567174
O79   O     O_3   0.273962 0.833607 0.696620 -0.516847
O80   O     O_3   0.166095 0.273213 0.303375 -0.517320
O81   O     O_3   0.835329 0.729051 0.696857 -0.517901
O82   O     O_3   0.272455 0.836009 0.302802 -0.516272
O83   O     O_3   0.726031 0.166367 0.696623 -0.516686
O84   O     O_R   0.500000 0.060750 0.319430 -0.565246
Zn1   Zn    Zn3+2 0.413200 0.000000 0.224130 0.950504
Zn2   Zn    Zn3+2 0.086800 0.500000 0.275870 0.949260
Zn3   Zn    Zn3+2 0.500000 0.913200 0.724130 0.952445
Zn4   Zn    Zn3+2 0.500000 0.086800 0.275870 0.951397
Zn5   Zn    Zn3+2 0.086800 0.500000 0.724130 0.950622
Zn6   Zn    Zn3+2 0.913200 0.500000 0.275870 0.950481
Zn7   Zn    Zn3+2 0.500000 0.086800 0.724130 0.951087
Zn8   Zn    Zn3+2 0.500000 0.913200 0.275870 0.952868
Zn9   Zn    Zn3+2 0.586800 0.000000 0.775870 0.950714
Zn10  Zn    Zn3+2 0.000000 0.413200 0.224130 0.951378
Zn11  Zn    Zn3+2 0.000000 0.586800 0.775870 0.951298
Zn12  Zn    Zn3+2 0.586800 0.000000 0.224130 0.949253
Zn13  Zn    Zn3+2 0.413200 0.000000 0.775870 0.950560
Zn14  Zn    Zn3+2 1.000000 0.586800 0.224130 0.952871
Zn15  Zn    Zn3+2 0.000000 0.413200 0.775870 0.951152
Zn16  Zn    Zn3+2 0.913200 0.500000 0.724130 0.949578

loop_
_geom_bond_atom_site_label_1
_geom_bond_atom_site_label_2
_ccdc_geom_bond_type
C81   H49   S    
C55   H119  S    
C157  C158  A    
C24   H24   S    
N2    N5    A    
O39   Zn1   S    
C64   O79   S    
C134  O51   S    
C69   H31   S    
C58   O72   S    
O8    Zn1   S    
C107  O56   A    
C13   H13   S    
C32   C81   A    
C109  O4    A    
C48   H98   S    
O29   Zn5   S    
C39   H69   S    
O34   Zn5   S    
O2    Zn3   S    
C24   C96   A    
O35   Zn12  S    
C49   H100  S    
C92   C109  S    
O24   Zn4   S    
C6    C25   A    
C113  O13   A    
C42   H80   S    
C122  O46   A    
O14   Zn4   S    
C59   H4    S    
C156  O73   S    
C52   H110  S    
C29   C78   A    
C129  O39   A    
C3    C19   A    
C34   H58   S    
C40   H72   S    
C11   C115  S    
C38   H66   S    
C4    C153  A    
C107  O2    A    
C125  O25   A    
C100  N7    A    
O40   Zn10  S    
C41   H78   S    
C148  O65   S    
C134  C146  A    
C42   O57   S    
O9    Zn11  S    
C97   N6    A    
C31   C80   A    
C140  C141  A    
C99   N8    A    
C54   O69   S    
C71   C73   A    
O78   Zn16  S    
O34   Zn11  S    
C41   H77   S    
C73   H41   S    
C126  O32   A    
O15   Zn3   S    
C59   O73   S    
C60   O74   S    
C127  O38   A    
C101  N9    A    
C77   H45   S    
C15   C142  A    
C28   C104  S    
C121  O20   A    
C119  O18   A    
C9    C149  A    
C69   H33   S    
C132  O49   S    
C51   O65   S    
C114  O42   A    
O23   Zn10  S    
C6    C151  A    
O1    Zn4   S    
C144  O61   S    
O33   Zn13  S    
C66   H26   S    
O22   Zn3   S    
C3    O79   S    
C61   H9    S    
O12   Zn13  S    
C27   C71   A    
C146  O63   S    
C118  O17   A    
C139  H107  S    
C1    C70   A    
C40   H73   S    
C143  O60   S    
C43   H84   S    
C7    O83   S    
C60   H5    S    
C53   O68   S    
C49   O63   S    
C13   C94   A    
C61   H8    S    
C66   O81   S    
O20   Zn2   S    
O45   Zn8   S    
C26   C102  S    
C79   H47   S    
C51   H105  S    
C5    O81   S    
C142  O59   S    
C56   O71   S    
C27   C101  S    
C105  O84   A    
C8    C121  S    
C4    O80   S    
C67   O82   S    
C65   O80   S    
O23   Zn14  S    
C5    C21   A    
C54   H116  S    
C20   C160  A    
O1    Zn8   S    
C55   H121  S    
O21   Zn16  S    
C21   C135  A    
C31   C85   A    
C78   C139  A    
C2    H2    S    
C50   O64   S    
O34   Zn15  S    
C34   H57   S    
O16   Zn6   S    
O48   Zn13  S    
C19   C123  S    
C56   H123  S    
C105  O45   A    
C16   C120  S    
C102  N12   A    
O5    Zn15  S    
C158  O75   S    
C88   C113  S    
C44   H87   S    
C45   H89   S    
C111  O6    A    
C133  C147  A    
C130  O36   A    
O84   Zn4   S    
O17   Zn5   S    
C112  O11   A    
C119  O47   A    
C70   H38   S    
C155  O72   S    
C14   C154  A    
C84   C90   A    
C90   C111  S    
C40   H75   S    
O30   Zn6   S    
C36   H59   S    
C138  O55   S    
C65   H22   S    
O28   Zn8   S    
C43   H82   S    
C140  O57   S    
C94   C107  S    
C60   H7    S    
O25   Zn16  S    
C40   O54   S    
O37   Zn14  S    
C47   H94   S    
C64   H19   S    
C75   H43   S    
C29   C74   A    
O41   Zn11  S    
C3    C154  A    
C95   H63   S    
C32   C100  S    
C68   H37   S    
C33   C99   S    
C55   O70   S    
C86   H54   S    
C18   C131  S    
C4    C22   A    
C19   C137  A    
C26   C75   A    
C20   C136  A    
C48   H95   S    
C28   C77   A    
O12   Zn3   S    
C10   C146  A    
C102  N1    A    
C30   C79   A    
C123  O33   A    
C104  N10   A    
C53   H114  S    
C80   H48   S    
C89   C117  A    
C112  O7    A    
O32   Zn10  S    
C57   C94   A    
C98   N5    A    
C99   N4    A    
C98   N16   A    
C58   H126  S    
O46   Zn15  S    
O1    Zn1   S    
C106  H74   S    
C17   C130  S    
C28   C72   A    
O67   Zn2   S    
C30   C98   S    
C123  O22   A    
C45   O60   S    
C116  O40   A    
C16   C141  A    
C33   C87   A    
C34   H56   S    
C35   C92   A    
C49   H99   S    
C7    C23   A    
O26   Zn2   S    
C128  H96   S    
C15   C119  S    
C39   O53   S    
N10   N15   A    
C17   C159  A    
N11   N14   A    
C20   C124  S    
C59   H3    S    
O12   Zn7   S    
C91   C95   A    
O47   Zn12  S    
O18   Zn8   S    
C68   C87   A    
C66   H27   S    
C25   C132  A    
C36   H61   S    
C41   O55   S    
C38   H67   S    
C82   H50   S    
C96   C105  S    
N1    N13   A    
C156  C159  A    
C115  O15   A    
C116  O16   A    
C67   H30   S    
C63   H16   S    
C120  O48   A    
C130  O29   A    
C50   H104  S    
C103  N11   A    
C62   H11   S    
C89   C112  S    
C68   C96   A    
C91   C110  S    
C93   C108  S    
O1    Zn12  S    
C13   C81   A    
C37   O51   S    
C10   C153  A    
C56   H122  S    
C30   C83   A    
C18   C138  A    
C131  O30   A    
O31   Zn11  S    
C135  C145  A    
C16   C156  A    
C110  O9    A    
C33   C82   A    
N6    N16   A    
C10   C114  S    
C15   C157  A    
C44   H86   S    
C50   H103  S    
C46   C85   A    
C153  O70   S    
C1    C88   A    
C37   H65   S    
C1    H1    S    
C55   H120  S    
C147  O64   S    
C126  O26   A    
C152  O69   S    
C8    C148  A    
C69   H32   S    
C159  O76   S    
C2    C93   A    
C48   H97   S    
C57   H36   S    
C39   H70   S    
C138  C142  A    
C49   H101  S    
C111  O10   A    
C74   H42   S    
C43   H83   S    
C151  O68   S    
C60   H6    S    
C137  O54   S    
C78   H46   S    
C18   C158  A    
C124  O35   A    
O12   Zn9   S    
C64   H18   S    
C136  O53   S    
O13   Zn12  S    
C52   H109  S    
C53   H112  S    
C115  O43   A    
C51   H108  S    
C76   H44   S    
O4    Zn5   S    
C79   C150  A    
C91   C139  A    
C54   H117  S    
C92   C150  A    
C26   C70   A    
C135  O52   S    
C21   C125  S    
C27   C76   A    
C34   O49   S    
C67   H28   S    
C23   C127  S    
C50   H102  S    
O36   Zn15  S    
C14   C143  A    
C35   C83   A    
O34   Zn16  S    
C42   H79   S    
C84   H52   S    
C71   H39   S    
C117  H85   S    
C59   H128  S    
C42   H81   S    
C76   C117  A    
C56   H124  S    
C118  O41   A    
N3    N8    A    
C73   C89   A    
C136  C144  A    
C31   C97   S    
C44   H88   S    
C120  O19   A    
O3    Zn6   S    
C75   C106  A    
C38   O52   S    
C66   H25   S    
C87   H55   S    
C61   H10   S    
C45   H91   S    
O38   Zn9   S    
C149  O66   S    
O43   Zn9   S    
C43   O58   S    
O7    Zn9   S    
C69   O83   S    
C25   C129  S    
C36   H60   S    
O23   Zn2   S    
C46   H35   S    
C65   H21   S    
C57   C86   A    
C63   O77   S    
C5    C152  A    
C22   C134  A    
C37   H62   S    
C47   H93   S    
C100  N3    A    
C122  O21   A    
C64   H20   S    
C22   C126  S    
C52   H111  S    
C62   H14   S    
C51   H106  S    
C133  O50   S    
C29   C103  S    
C97   N2    A    
C44   O59   S    
C24   C82   A    
C7    C149  A    
O10   Zn10  S    
C108  O3    A    
C54   H115  S    
C14   C118  S    
C114  O14   A    
C52   O66   S    
C124  O24   A    
C131  O37   A    
O19   Zn7   S    
C101  N13   A    
C35   H34   S    
O6    Zn14  S    
C145  O62   S    
C53   H113  S    
C137  C143  A    
C32   C86   A    
C9    C122  S    
O23   Zn6   S    
C58   H127  S    
C113  O8    A    
C23   C133  A    
O44   Zn14  S    
C132  C148  A    
C109  O78   A    
C8    C151  A    
O42   Zn1   S    
C11   C145  A    
C36   O50   S    
C9    C147  A    
C12   C144  A    
C110  O5    A    
C48   O62   S    
C150  H118  S    
C39   H71   S    
C85   H53   S    
C45   H90   S    
C72   H40   S    
C88   C106  A    
C6    O82   S    
C62   O76   S    
C72   C84   A    
C47   H92   S    
C77   C128  A    
O11   Zn13  S    
C108  O67   A    
N9    N12   A    
C12   C155  A    
C154  O71   S    
C38   H68   S    
C65   H23   S    
C104  N14   A    
C155  C160  A    
C127  O27   A    
C74   C95   A    
C125  O31   A    
N4    N7    A    
C37   H64   S    
C160  O77   S    
C67   H29   S    
C63   H15   S    
C41   H76   S    
C62   H12   S    
C63   H17   S    
O56   Zn7   S    
C61   O75   S    
C157  O74   S    
O27   Zn7   S    
C129  O28   A    
C46   C93   A    
C103  N15   A    
C17   C140  A    
C121  O44   A    
C2    C80   A    
C11   C152  A    
C90   C128  A    
C12   C116  S    
C47   O61   S    
C83   H51   S    
C141  O58   S    
C58   H125  S    
