data_mof_unit_9017.cif
_audit_creation_date              2013-03-05T16:31:21-0500
_audit_creation_method            fapswitch 2.2
_symmetry_space_group_name_H-M    P1
_symmetry_Int_Tables_number       1
_space_group_crystal_system       triclinic
_cell_length_a                    9.542949
_cell_length_b                    10.828795
_cell_length_c                    13.531709
_cell_angle_alpha                 89.989136
_cell_angle_beta                  73.523119
_cell_angle_gamma                 89.863717
_cell_volume                      1340.92020445

loop_
_atom_site_label
_atom_site_type_symbol
_atom_site_description
_atom_site_fract_x
_atom_site_fract_y
_atom_site_fract_z
_atom_type_partial_charge
O1    O     O_R   0.381190 0.680360 0.500000 -0.582096
O2    O     O_R   0.618780 0.680320 0.499990 -0.588299
C1    C     C_R   0.498993 0.737578 0.502156 0.834309
O3    O     O_R   0.323230 0.500000 0.650990 -0.585144
O4    O     O_R   0.560820 0.499960 0.650980 -0.593471
C2    C     C_R   0.424474 0.487159 0.698911 0.798660
Cu1   Cu    Cu3+1 0.359330 0.500020 0.500010 0.950066
Cu2   Cu    Cu3+1 0.640670 0.499980 0.499990 0.971091
O5    O     O_R   0.381220 0.319680 0.500010 -0.581325
O6    O     O_R   0.618810 0.319640 0.500000 -0.540455
O7    O     O_R   0.439180 0.500040 0.349020 -0.587913
O8    O     O_R   0.676770 0.500000 0.349010 -0.592514
C3    C     C_R   0.498417 0.262298 0.505241 0.832066
C4    C     C_R   0.577607 0.501713 0.300610 0.796663
C5    C     C_R   0.809525 0.508404 0.025173 -0.195856
H1    H     H_    0.851733 0.535930 0.170267 0.148005
H2    H     H_    0.865589 0.459801 0.826535 0.147759
H3    H     H_    0.922053 0.524490 0.982251 0.133636
C6    C     C_R   0.622597 0.500138 0.187953 -0.044579
C7    C     C_R   0.240391 0.436926 0.863960 -0.189121
C8    C     C_R   0.199820 0.414056 0.969242 -0.149141
C9    C     C_R   0.301421 0.423694 0.024656 -0.176111
C10   C     C_R   0.450116 0.447957 0.974382 0.078844
C11   C     C_R   0.495821 0.449547 0.865042 0.087878
C12   C     C_R   0.555789 0.468213 0.028832 0.076411
C13   C     C_R   0.705404 0.480331 0.973854 0.171564
C14   C     C_R   0.750377 0.461000 0.868460 -0.258074
C15   C     C_R   0.648130 0.440904 0.815652 -0.151812
C16   C     C_R   0.517147 0.480925 0.136079 -0.250924
C17   C     C_R   0.768969 0.516428 0.131927 -0.195094
C18   C     C_R   0.387345 0.457474 0.810332 -0.091186
H4    H     H_    0.405338 0.477628 0.180779 0.141886
H5    H     H_    0.156691 0.435925 0.824112 0.152311
H6    H     H_    0.260798 0.407314 0.106279 0.129273
H7    H     H_    0.088191 0.390472 0.009187 0.144250
H8    H     H_    0.694478 0.413050 0.737070 0.227709
C19   C     C_R   0.371627 0.936817 0.508311 0.123941
C20   C     C_R   0.493904 0.870276 0.514295 -0.169599
C21   C     C_R   0.607258 0.932932 0.540092 -0.272611
H9    H     H_    0.697258 0.882075 0.554740 0.192196
C22   C     C_R   0.606984 0.062103 0.545337 0.339396
C23   C     C_R   0.493237 0.129066 0.520311 -0.231340
C24   C     C_R   0.371955 0.063676 0.510306 0.104198
C25   C     C_3   0.289996 0.072625 0.431458 -0.438629
C26   C     C_3   0.289231 0.932421 0.429629 -0.433083
H10   H     H_    0.179351 0.113289 0.463819 0.236382
H11   H     H_    0.356465 0.114024 0.357888 0.184186
H12   H     H_    0.178265 0.892409 0.461234 0.214695
H13   H     H_    0.354613 0.892500 0.354976 0.193142
C27   C     C_R   0.943726 0.404489 0.456392 0.353535
N1    N     N_R   0.852320 0.499070 0.499340 -0.201432
C28   C     C_R   0.904157 0.586902 0.552684 -0.092542
H14   H     H_    0.831686 0.658575 0.593795 0.150995
C29   C     C_R   0.053029 0.586864 0.552750 -0.085709
H15   H     H_    0.092065 0.658524 0.593868 0.150243
N2    N     N_R   0.148230 0.499110 0.499340 -0.194835
C30   C     C_R   0.091600 0.405118 0.455499 0.285998
C31   C     C_3   0.138867 0.369248 0.344584 -0.541993
C32   C     C_3   0.979494 0.364544 0.346934 -0.507401
H16   H     H_    0.197109 0.445435 0.295625 0.206601
H17   H     H_    0.193842 0.277987 0.330865 0.202477
H18   H     H_    0.950640 0.434578 0.296056 0.206229
H19   H     H_    0.940109 0.269497 0.339227 0.219246
N3    N     N_R   0.722590 0.122210 0.575060 0.131296
O9    O     O_R   0.690867 0.197730 0.653023 -0.385632
O10   O     O_R   0.856680 0.083717 0.538563 -0.409219

loop_
_geom_bond_atom_site_label_1
_geom_bond_atom_site_label_2
_geom_bond_distance
_ccdc_geom_bond_type
C19   C24   1.374035 A    
C5    H3    1.080691 S    
C10   C11   1.419014 A    
C19   C20   1.391742 A    
C8    H7    1.080189 S    
Cu2   O8    1.973157 S    
O4    Cu2   1.967732 S    
C22   C23   1.422472 A    
C29   H15   1.081494 S    
C32   H19   1.111580 S    
C25   H11   1.112375 S    
C26   H13   1.112653 S    
C24   C25   1.494143 S    
N3    O9    1.300534 A    
C7    C8    1.388625 A    
C31   H17   1.108457 S    
C2    C18   1.483037 S    
C13   C14   1.383642 A    
C11   C18   1.435729 A    
Cu1   Cu2   2.684735 S    
C21   C22   1.400544 A    
C6    C16   1.396567 A    
C8    C9    1.387855 A    
N2    C30   1.365527 A    
Cu1   O7    1.967731 S    
C6    C17   1.399066 A    
Cu2   N1    2.017288 S    
C30   C31   1.490732 S    
O4    C2    1.286451 A    
Cu1   N2    2.017155 S    
O3    Cu1   1.973157 S    
C27   C32   1.486662 S    
Cu2   O6    1.964464 S    
C3    C23   1.456041 S    
C28   C29   1.420935 A    
C27   N1    1.362359 A    
C16   H4    1.067559 S    
O2    C1    1.292153 A    
C10   C12   1.424955 A    
C12   C16   1.399031 A    
C20   C21   1.403608 A    
C9    H6    1.076584 S    
O7    C4    1.297584 A    
C29   N2    1.369093 A    
C31   C32   1.513150 S    
C23   C24   1.397170 A    
C7    H5    1.083156 S    
H1    C17   1.082056 S    
C19   C26   1.493057 S    
N1    C28   1.369465 A    
H2    C14   1.084873 S    
O8    C4    1.294704 A    
C21   H9    1.083750 S    
C28   H14   1.081433 S    
C15   H8    1.072393 S    
C5    C17   1.388110 A    
O3    C2    1.314545 A    
C26   H12   1.112304 S    
C14   C15   1.380797 A    
Cu1   O5    1.963512 S    
O5    C3    1.297508 A    
C9    C10   1.414034 A    
C5    C13   1.398155 A    
C22   N3    1.434478 S    
O1    C1    1.292476 A    
C12   C13   1.416871 A    
O1    Cu1   1.964465 S    
C27   C30   1.407803 A    
C31   H16   1.105241 S    
C4    C6    1.461939 S    
O6    C3    1.291412 A    
O2    Cu2   1.963512 S    
C25   C26   1.518518 S    
C11   C15   1.419985 A    
C1    C20   1.445481 S    
C25   H10   1.111811 S    
C32   H18   1.109642 S    
C7    C18   1.402468 A    
N3    O10   1.301582 A    
