data_mof_unit_53797.cif
_audit_creation_date              2012-12-10T17:51:26-0500
_audit_creation_method            fapswitch 2.2
_symmetry_space_group_name_H-M    P1
_symmetry_Int_Tables_number       1
_space_group_crystal_system       triclinic
_cell_length_a                    14.670089
_cell_length_b                    14.651086
_cell_length_c                    17.210624
_cell_angle_alpha                 105.827951
_cell_angle_beta                  73.024241
_cell_angle_gamma                 115.532008
_cell_volume                      3145.85770451

loop_
_atom_site_label
_atom_site_type_symbol
_atom_type_description
_atom_site_fract_x
_atom_site_fract_y
_atom_site_fract_z
_atom_type_partial_charge
C1    C     C_R   0.119104 0.688884 0.514683 0.835424
C2    C     C_R   0.880674 0.311356 0.486842 0.829157
C3    C     C_R   0.184870 0.798700 0.530999 -0.156235
C4    C     C_R   0.812259 0.203217 0.489211 -0.159491
C5    C     C_R   0.204462 0.977360 0.580541 0.448204
C6    C     C_R   0.782621 0.030577 0.500899 0.449656
C7    C     C_R   0.142037 0.873618 0.561125 -0.251174
C8    C     C_R   0.850197 0.130150 0.488229 -0.241478
C9    C     C_R   0.290629 0.827902 0.521562 -0.176191
C10   C     C_R   0.706392 0.175851 0.501024 -0.184867
C11   C     C_R   0.354008 0.929292 0.548361 0.032724
C12   C     C_R   0.636005 0.081815 0.524540 0.032036
C13   C     C_R   0.312189 0.006151 0.571968 -0.030589
C14   C     C_R   0.674456 0.006129 0.520252 -0.032725
C15   C     C_R   0.459427 0.956059 0.548208 0.016441
C16   C     C_R   0.528008 0.059908 0.548630 0.015379
C17   C     C_R   0.485309 0.137137 0.575772 0.209350
C18   C     C_R   0.497959 0.883404 0.551364 0.218289
C19   C     C_R   0.378916 0.109052 0.587063 -0.192678
C20   C     C_R   0.604012 0.909045 0.537014 -0.190004
C21   C     C_R   0.302903 0.341329 0.349086 0.165142
C22   C     C_R   0.690223 0.648142 0.655401 0.172124
C23   C     C_R   0.991579 0.506641 0.653120 0.839706
C24   C     C_R   0.008829 0.494145 0.346938 0.840400
C25   C     C_R   0.216633 0.368822 0.376327 0.062778
C26   C     C_R   0.781604 0.629650 0.624317 0.062355
C27   C     C_R   0.281128 0.481096 0.493275 0.006764
C28   C     C_R   0.715764 0.511880 0.509744 0.012874
C29   C     C_R   0.369189 0.455165 0.471648 -0.045041
C30   C     C_R   0.621490 0.527092 0.535932 -0.056827
C31   C     C_R   0.380419 0.386087 0.396929 0.098033
C32   C     C_R   0.608880 0.594913 0.611311 0.102298
C33   C     C_R   0.447298 0.497530 0.520316 0.105785
C34   C     C_R   0.539841 0.477482 0.490265 0.096745
C35   C     C_R   0.547327 0.408343 0.415728 -0.234179
C36   C     C_R   0.435210 0.558266 0.598582 -0.250632
C37   C     C_R   0.468819 0.362455 0.371316 -0.160145
C38   C     C_R   0.514773 0.607796 0.641845 -0.178302
C39   C     C_R   0.994961 0.522581 0.740124 -0.121921
C40   C     C_R   0.007959 0.483966 0.260183 -0.160971
C41   C     C_R   0.080733 0.524777 0.761638 -0.256986
C42   C     C_R   0.919926 0.476795 0.238969 -0.185534
C43   C     C_R   0.087057 0.544017 0.844143 0.235994
C44   C     C_R   0.917420 0.470435 0.157238 0.217602
C45   C     C_R   0.004112 0.557170 0.906669 0.002700
C46   C     C_R   0.005633 0.470166 0.095080 -0.052881
C47   C     C_R   0.920633 0.562315 0.884983 0.364009
C48   C     C_R   0.092149 0.469886 0.115834 0.461437
C49   C     C_R   0.916595 0.543552 0.801787 -0.286028
C50   C     C_R   0.092695 0.478241 0.198518 -0.271061
C51   C     C_2   0.001398 0.554827 0.992351 -0.128521
C52   C     C_2   0.009130 0.475097 0.010026 -0.126322
Cu1   Cu    Cu3+1 0.916740 0.524770 0.521640 0.952473
Cu2   Cu    Cu3+1 0.083260 0.475230 0.478360 0.958375
H1    H     H_    0.144565 0.514124 0.714369 0.159068
H2    H     H_    0.851841 0.474111 0.286304 0.163062
H3    H     H_    0.479221 0.308735 0.315498 0.164816
H4    H     H_    0.501186 0.656668 0.700047 0.159534
H5    H     H_    0.730560 0.459204 0.455170 0.126683
H6    H     H_    0.269610 0.537065 0.546464 0.133656
H7    H     H_    0.844132 0.665829 0.657339 0.139170
H8    H     H_    0.156193 0.337197 0.341471 0.141733
H9    H     H_    0.612965 0.386911 0.389762 0.132424
H10   H     H_    0.364223 0.569039 0.628415 0.135259
H11   H     H_    0.160151 0.482055 0.215116 0.203903
H12   H     H_    0.851378 0.544432 0.785008 0.195034
H13   H     H_    0.018350 0.412893 0.961226 0.216491
H14   H     H_    0.990730 0.616295 0.041276 0.199326
H15   H     H_    0.349817 0.169758 0.607422 0.216164
H16   H     H_    0.629874 0.851585 0.540072 0.218306
H17   H     H_    0.680109 0.229220 0.490959 0.194563
H18   H     H_    0.323326 0.770659 0.491587 0.197845
H19   H     H_    0.932569 0.151132 0.478163 0.218519
H20   H     H_    0.059694 0.851113 0.569127 0.213516
N1    N     N_R   0.208390 0.438070 0.445820 -0.201912
N2    N     N_R   0.791610 0.561930 0.554180 -0.201686
O1    O     O_R   0.020090 0.662480 0.528530 -0.577955
O2    O     O_R   0.979910 0.337520 0.471470 -0.578392
O3    O     O_R   0.160710 0.620650 0.491980 -0.581137
O4    O     O_R   0.839290 0.379350 0.508020 -0.582461
O5    O     O_R   0.921540 0.523360 0.633990 -0.595635
O6    O     O_R   0.078460 0.476640 0.366010 -0.590488
O7    O     O_R   0.062170 0.481520 0.597440 -0.582144
O8    O     O_R   0.937830 0.518480 0.402560 -0.584924
N3    N     N_2   0.546028 0.242489 0.600439 -0.451460
H21   H     H_    0.518077 0.293613 0.594848 0.257914
C53   C     C_3   0.575121 0.265783 0.679126 -0.623954
H22   H     H_    0.626937 0.347877 0.690699 0.229507
H23   H     H_    0.617101 0.218379 0.679378 0.237870
H24   H     H_    0.505426 0.251382 0.729379 0.235866
N4    N     N_2   0.430944 0.787883 0.577543 -0.448667
H25   H     H_    0.459821 0.730848 0.555179 0.263699
C54   C     C_3   0.386927 0.795359 0.664909 -0.676790
H26   H     H_    0.326822 0.719837 0.677822 0.210089
H27   H     H_    0.447826 0.818203 0.700481 0.232980
H28   H     H_    0.349702 0.852140 0.685443 0.249271
N5    N     N_2   0.314675 0.272185 0.273420 -0.441016
H29   H     H_    0.380063 0.302835 0.230487 0.264384
C55   C     C_3   0.225095 0.203162 0.238443 -0.609744
H30   H     H_    0.245658 0.144602 0.188658 0.242298
H31   H     H_    0.199037 0.246200 0.211318 0.227967
H32   H     H_    0.161800 0.162708 0.286214 0.244729
N6    N     N_2   0.677301 0.716240 0.731457 -0.445799
H33   H     H_    0.617774 0.681931 0.776869 0.260423
C56   C     C_3   0.767383 0.794496 0.761450 -0.560624
H34   H     H_    0.743757 0.850896 0.811664 0.239733
H35   H     H_    0.823568 0.836116 0.711294 0.269056
H36   H     H_    0.803955 0.759515 0.786704 0.227076
S1    S     S_3+6 0.816942 0.586813 0.958386 -0.003344
O9    O     O_2   0.855165 0.666667 0.030021 -0.275748
O10   O     O_2   0.763209 0.624791 0.919691 -0.275251
O11   O     O_3   0.731792 0.477522 0.992128 -0.536857
H37   H     H_    0.712341 0.428102 0.941757 0.345005
S2    S     S_3+6 0.204252 0.466777 0.041746 0.011437
O12   O     O_2   0.266463 0.572221 0.020375 -0.286811
O13   O     O_2   0.268197 0.436854 0.076665 -0.277514
O14   O     O_3   0.173115 0.382150 0.956094 -0.533077
H38   H     H_    0.239108 0.394237 0.915517 0.381987
N7    N     N_2   0.823756 0.457466 0.137963 -0.436778
H39   H     H_    0.817614 0.432112 0.077066 0.301239
C57   C     C_3   0.781891 0.535376 0.180273 -0.498213
H40   H     H_    0.713071 0.520560 0.156762 0.271868
H41   H     H_    0.840373 0.612650 0.169957 0.250168
H42   H     H_    0.756681 0.533650 0.247383 0.197166
N8    N     N_2   0.178717 0.553272 0.863840 -0.384794
H43   H     H_    0.214682 0.507590 0.821967 0.258051
C58   C     C_3   0.249840 0.658490 0.880315 -0.567677
H44   H     H_    0.320985 0.660319 0.892326 0.251680
H45   H     H_    0.214341 0.701517 0.935315 0.246381
H46   H     H_    0.271857 0.696638 0.826262 0.185418
S3    S     S_3+6 0.144094 0.067386 0.617526 -0.008926
O15   O     O_2   0.171348 0.128701 0.698920 -0.293566
O16   O     O_2   0.181599 0.138514 0.556426 -0.288648
O17   O     O_3   0.015163 0.007259 0.630506 -0.512233
H47   H     H_    0.988722 0.063090 0.647896 0.400341
S4    S     S_3+6 0.836694 0.940108 0.493090 -0.011113
O18   O     O_2   0.808627 0.907639 0.575372 -0.302695
O19   O     O_2   0.793981 0.847688 0.430287 -0.298688
O20   O     O_3   0.965901 0.991336 0.464059 -0.504529
H48   H     H_    0.988877 0.935816 0.461093 0.395101

loop_
_geom_bond_atom_site_label_1
_geom_bond_atom_site_label_2
_ccdc_geom_bond_type
C15   C18   A    
C53   H22   S    
C54   H26   S    
C29   C33   A    
C27   C29   A    
C1    O1    A    
C2    C4    S    
C9    H18   S    
C4    C8    A    
S3    O17   S    
C43   N8    S    
N5    H29   S    
C39   C41   A    
Cu1   Cu2   S    
C56   H35   S    
C22   C32   A    
Cu1   O8    S    
C2    O2    A    
C18   N4    S    
C35   C37   A    
C26   H7    S    
C3    C7    A    
C27   H6    S    
S1    O10   D    
C23   C39   S    
C6    C14   A    
C45   C51   S    
C15   C16   A    
C46   C52   S    
C33   C36   A    
Cu1   O5    S    
C34   C35   A    
C24   O6    A    
Cu2   O7    S    
C57   H42   S    
C6    S4    S    
C42   H2    S    
C38   H4    S    
C11   C15   A    
C41   H1    S    
C12   C16   A    
C16   C17   A    
C26   N2    A    
C32   C38   A    
C5    C13   A    
C25   H8    S    
C10   H17   S    
C36   H10   S    
N7    C57   S    
C54   H27   S    
C41   C43   A    
C20   H16   S    
C42   C44   A    
S4    O20   S    
C27   N1    A    
C10   C12   A    
O11   H37   S    
N5    C55   S    
C44   C46   A    
S2    O12   D    
C7    H20   S    
C45   C47   A    
C56   H36   S    
C46   C48   A    
C49   H12   S    
C30   C34   A    
N3    C53   S    
C51   C52   D    
C14   C20   A    
Cu1   O4    S    
S4    O19   D    
S1    O11   S    
N4    H25   S    
C5    C7    A    
C13   C19   A    
C6    C8    A    
C44   N7    S    
N3    H21   S    
C22   N6    S    
C31   C37   A    
C25   N1    A    
Cu1   O1    S    
C58   H45   S    
C3    C9    A    
N4    C54   S    
C21   N5    S    
C55   H30   S    
O20   H48   S    
C21   C31   A    
C33   C34   A    
N6    C56   S    
C48   C50   A    
C9    C11   A    
C57   H40   S    
C52   H13   S    
C23   O7    A    
C39   C49   A    
C12   C14   A    
C54   H28   S    
C53   H23   S    
N8    H43   S    
C1    O3    A    
C17   N3    S    
C19   H15   S    
Cu1   N2    S    
C4    C10   A    
C58   H44   S    
C28   N2    A    
Cu2   O6    S    
C48   S2    S    
Cu2   O3    S    
C28   H5    S    
C21   C25   A    
C24   C40   S    
C23   O5    A    
C55   H31   S    
S4    O18   D    
S3    O16   D    
S2    O13   D    
N7    H39   S    
O17   H47   S    
C47   C49   A    
C56   H34   S    
C28   C30   A    
C24   O8    A    
C58   H46   S    
C43   C45   A    
C47   S1    S    
O14   H38   S    
C36   C38   A    
C30   C32   A    
C11   C13   A    
C40   C50   A    
C40   C42   A    
C8    H19   S    
C17   C19   A    
C18   C20   A    
C51   H14   S    
C50   H11   S    
C57   H41   S    
S2    O14   S    
C2    O4    A    
Cu2   N1    S    
C5    S3    S    
C55   H32   S    
C29   C31   A    
C22   C26   A    
C53   H24   S    
N6    H33   S    
N8    C58   S    
C35   H9    S    
C1    C3    S    
S1    O9    D    
C37   H3    S    
S3    O15   D    
Cu2   O2    S    
