data_mof_unit_42482.cif
_audit_creation_date              2012-12-11T16:53:48-0500
_audit_creation_method            fapswitch 2.2
_symmetry_space_group_name_H-M    P1
_symmetry_Int_Tables_number       1
_space_group_crystal_system       triclinic
_cell_length_a                    14.918695
_cell_length_b                    14.80572
_cell_length_c                    17.03505
_cell_angle_alpha                 108.889859
_cell_angle_beta                  106.329921
_cell_angle_gamma                 108.171919
_cell_volume                      3061.69848255

loop_
_atom_site_label
_atom_site_type_symbol
_atom_type_description
_atom_site_fract_x
_atom_site_fract_y
_atom_site_fract_z
_atom_type_partial_charge
C1    C     C_R   0.082874 0.280886 0.074252 0.502846
C2    C     C_R   0.060736 0.531836 0.265576 -0.169381
C3    C     C_R   0.230537 0.799727 0.187205 -0.130878
C4    C     C_R   0.933440 0.517237 0.746428 -0.122885
C5    C     C_R   0.699498 0.403424 0.996701 -0.204770
C6    C     C_R   0.255383 0.806994 0.274352 0.070218
C7    C     C_R   0.638263 0.434976 0.946461 0.006469
C8    C     C_R   0.967475 0.515822 0.273871 0.077750
C9    C     C_R   0.000986 0.814174 0.960635 0.067696
C10   C     C_R   0.396991 0.363254 0.979314 0.161706
C11   C     C_R   0.345913 0.405068 0.929375 0.051674
C12   C     C_R   0.022864 0.581210 0.745527 0.068711
C13   C     C_R   0.369617 0.414527 0.857419 -0.196273
C14   C     C_R   0.460848 0.410737 0.853482 -0.194287
C15   C     C_R   0.527076 0.397789 0.921802 0.046524
C16   C     C_R   0.722515 0.213334 0.822645 -0.120706
C17   C     C_R   0.486543 0.359634 0.975448 0.156230
C18   C     C_3   0.536346 0.389082 0.075303 -0.520889
C19   C     C_3   0.438125 0.393257 0.079744 -0.510614
C20   C     C_R   0.956132 0.556346 0.359192 0.129699
C21   C     C_R   0.028223 0.622128 0.678461 0.128079
C22   C     C_R   0.130208 0.691846 0.605164 -0.220827
C23   C     C_R   0.668853 0.214606 0.742486 0.058182
C24   C     C_R   0.125086 0.679970 0.681646 -0.176771
C25   C     C_R   0.936230 0.590139 0.603236 -0.279166
C26   C     C_R   0.940999 0.594876 0.524485 0.187812
C27   C     C_R   0.039050 0.641897 0.524328 0.188125
C28   C     C_R   0.259173 0.530772 0.948919 0.204371
C29   C     C_R   0.045309 0.626349 0.441622 -0.276589
C30   C     C_R   0.857677 0.519755 0.360206 -0.177702
C31   C     C_R   0.850080 0.540867 0.442982 -0.221086
C32   C     C_R   0.560688 0.141926 0.676278 0.130629
C33   C     C_R   0.296916 0.902864 0.360171 0.132826
C34   C     C_R   0.281265 0.450043 0.960311 -0.001021
C35   C     C_R   0.395845 0.093965 0.447395 -0.227705
C36   C     C_R   0.332684 0.004279 0.363465 -0.182066
C37   C     C_R   0.310422 0.893389 0.441458 -0.275196
C38   C     C_R   0.380399 0.981055 0.524762 0.187294
C39   C     C_R   0.426993 0.081268 0.527027 0.193310
C40   C     C_R   0.731258 0.307180 0.743799 -0.125048
C41   C     C_R   0.513669 0.162923 0.604967 -0.285386
C42   C     C_R   0.507341 0.046391 0.678048 -0.172568
C43   C     C_R   0.415541 0.966908 0.603080 -0.220600
C44   C     C_R   0.046295 0.105730 0.145354 0.213802
C45   C     C_R   0.233657 0.705165 0.265506 -0.138488
C46   C     C_R   0.981859 0.093651 0.060925 0.057232
C47   C     C_R   0.893993 0.993892 0.001883 -0.218290
C48   C     C_R   0.864796 0.916104 0.032183 -0.196657
C49   C     C_R   0.923694 0.935404 0.121029 0.039108
C50   C     C_R   0.017903 0.027255 0.173985 0.131464
C51   C     C_3   0.056932 0.105868 0.270798 -0.526539
C52   C     C_R   0.243320 0.429141 0.020396 -0.221394
C53   C     C_3   0.087111 0.191946 0.240305 -0.459967
C54   C     C_R   0.105221 0.607009 0.824425 -0.168738
C55   C     C_R   0.912235 0.197404 0.990449 -0.236009
C56   C     C_R   0.702217 0.500161 0.922307 0.209509
C57   C     C_R   0.994872 0.183943 0.037721 -0.039774
C58   C     C_3   0.223154 0.406423 0.212629 0.136510
C59   C     C_3   0.331717 0.431804 0.277936 -0.260238
C60   C     C_3   0.380366 0.539733 0.361508 -1.040517
C61   C     C_3   0.663237 0.507933 0.777257 -1.011091
C62   C     C_3   0.368050 0.713897 0.988163 -0.926227
C63   C     C_R   0.887652 0.454412 0.186554 -0.131642
C64   C     C_R   0.085055 0.801480 0.006189 -0.132605
C65   C     C_R   0.914940 0.718753 0.929192 -0.141239
H1    H     H_    0.804916 0.425158 0.166732 0.093130
H2    H     H_    0.853746 0.493101 0.702432 0.083935
H3    H     H_    0.605579 0.468270 0.115718 0.206249
H4    H     H_    0.393670 0.329773 0.094175 0.202569
H5    H     H_    0.451018 0.474904 0.122780 0.205491
H6    H     H_    0.121122 0.660352 0.442016 0.114639
H7    H     H_    0.786870 0.469328 0.297707 0.117153
H8    H     H_    0.205866 0.730037 0.606379 0.122025
H9    H     H_    0.774165 0.506108 0.442442 0.127892
H10   H     H_    0.197521 0.709098 0.739900 0.116006
H11   H     H_    0.860652 0.549734 0.600803 0.117425
H12   H     H_    0.165643 0.854890 0.028972 0.090714
H13   H     H_    0.550247 0.237997 0.604304 0.116126
H14   H     H_    0.692192 0.160774 0.850212 0.083380
H15   H     H_    0.539553 0.029465 0.733800 0.113777
H16   H     H_    0.429366 0.171066 0.448693 0.127702
H17   H     H_    0.379113 0.890785 0.602612 0.121732
H18   H     H_    0.318727 0.014419 0.301786 0.117892
H19   H     H_    0.277145 0.816423 0.440190 0.114042
H20   H     H_    0.843623 0.978692 0.934597 0.137792
H21   H     H_    0.793403 0.843243 0.988433 0.126001
H22   H     H_    0.993695 0.102418 0.293796 0.205234
H23   H     H_    0.839510 0.697479 0.879638 0.116962
H24   H     H_    0.125151 0.104333 0.317289 0.202719
H25   H     H_    0.041459 0.238636 0.245439 0.186664
H26   H     H_    0.172644 0.239912 0.271066 0.203997
H27   H     H_    0.712294 0.339386 0.696530 0.096453
H28   H     H_    0.245640 0.369667 0.042712 0.175651
H29   H     H_    0.181942 0.671053 0.853116 0.112808
H30   H     H_    0.830528 0.146056 0.966168 0.130118
H31   H     H_    0.255718 0.683334 0.319643 0.091839
H32   H     H_    0.172736 0.406783 0.249870 0.108155
H33   H     H_    0.233371 0.470285 0.191166 0.125979
H34   H     H_    0.136353 0.564920 0.320484 0.090536
H35   H     H_    0.327469 0.369411 0.301247 0.195132
H36   H     H_    0.382802 0.433271 0.241424 0.200960
H37   H     H_    0.389719 0.604160 0.340056 0.269172
H38   H     H_    0.458398 0.555353 0.408149 0.274825
H39   H     H_    0.330648 0.540451 0.399318 0.264540
H40   H     H_    0.704496 0.631821 0.904616 0.155812
H41   H     H_    0.635161 0.551252 0.741615 0.255630
H42   H     H_    0.606570 0.422397 0.738180 0.258098
H43   H     H_    0.740480 0.517659 0.778795 0.253441
H44   H     H_    0.283612 0.584770 0.854844 0.149718
H45   H     H_    0.240323 0.863825 0.168514 0.091467
H46   H     H_    0.413084 0.761626 0.961768 0.243326
H47   H     H_    0.422940 0.726085 0.054461 0.261862
H48   H     H_    0.310179 0.742411 0.999907 0.239463
H49   H     H_    0.672776 0.339175 0.014285 0.118414
H50   H     H_    0.324903 0.435842 0.810855 0.129142
H51   H     H_    0.482872 0.428171 0.803108 0.167588
H52   H     H_    0.548142 0.323230 0.087098 0.187843
N1    N     N_R   0.055640 0.348550 0.045600 -0.104944
N2    N     N_R   0.811290 0.303400 0.871650 -0.033267
N3    N     N_R   0.205180 0.552990 0.997660 -0.053894
N4    N     N_R   0.814810 0.361830 0.823710 -0.038190
N5    N     N_R   0.201660 0.494570 0.045600 -0.060275
N6    N     N_R   0.068420 0.560530 0.871650 -0.040503
N7    N     N_R   0.948050 0.295860 0.997660 -0.059259
N8    N     N_R   0.185190 0.638170 0.176290 -0.043583
N9    N     N_2   0.670413 0.550113 0.869160 -0.117273
N10   N     N_2   0.316970 0.602356 0.922914 -0.114292
N11   N     N_R   0.798340 0.505430 0.954400 -0.060702
N12   N     N_R   0.931580 0.439470 0.128350 -0.036416
N13   N     N_R   0.051950 0.704140 0.002340 -0.037665
N14   N     N_R   0.944360 0.651450 0.954400 -0.039239
N15   N     N_R   0.039170 0.492150 0.176290 -0.052114
N16   N     N_R   0.188710 0.696600 0.128350 -0.038281
N17   N     N_R   0.794820 0.447010 0.002340 -0.047443
N18   N     N_R   0.960830 0.507850 0.823710 -0.039382
Ni1   Ni    Ni4+2 0.119330 0.493420 0.109950 0.199156
Ni2   Ni    Ni4+2 0.880670 0.506580 0.890050 0.208713
Ni3   Ni    Ni4+2 0.872590 0.372590 0.000000 0.200545
Ni4   Ni    Ni4+2 0.127410 0.627410 0.000000 0.205343
O1    O     O_3   0.180137 0.305371 0.137227 -0.692202

loop_
_geom_bond_atom_site_label_1
_geom_bond_atom_site_label_2
_ccdc_geom_bond_type
C54   N6    A    
C42   H15   S    
C6    C45   A    
C5    H49   S    
C27   C29   A    
C9    C64   A    
C64   H12   S    
C35   C36   A    
C58   H33   S    
C3    C6    A    
C35   H16   S    
C39   C41   A    
C20   C30   A    
C40   N4    A    
C26   C27   A    
C8    C20   S    
H40   N9    S    
C47   H20   S    
N7    Ni3   S    
N11   N17   A    
C30   C31   A    
C10   C17   A    
C58   O1    S    
C23   C40   A    
N6    Ni4   S    
C33   C36   A    
C15   C17   A    
C18   C19   S    
N4    Ni2   S    
C61   H43   S    
C56   N11   A    
C44   C50   A    
C55   N7    A    
C52   N5    A    
C44   C53   S    
H44   N10   S    
C62   H46   S    
C45   N8    A    
C53   H26   S    
C2    N15   A    
C32   C41   A    
C37   H19   S    
C61   N9    S    
C56   N9    S    
C4    C12   A    
C60   H38   S    
C28   N10   S    
N12   N15   A    
C7    C15   S    
C63   H1    S    
C28   C34   A    
C59   C60   S    
C13   C14   A    
C59   H35   S    
C58   H32   S    
C7    C56   A    
C60   H37   S    
N13   Ni4   S    
C65   N14   A    
C44   C46   A    
C50   C51   S    
C20   C29   A    
N2    N4    A    
C5    N17   A    
N12   Ni3   S    
C59   H36   S    
C62   H48   S    
C55   H30   S    
C28   N3    A    
C16   N2    A    
C51   H22   S    
C41   H13   S    
C5    C7    A    
C31   H9    S    
C25   C26   A    
C12   C21   S    
C33   C37   A    
N6    N18   A    
C3    N16   A    
C35   C39   A    
N11   Ni2   S    
C37   C38   A    
N14   Ni2   S    
C1    C57   A    
C47   C48   A    
C10   C19   S    
N15   Ni1   S    
C17   C18   S    
C52   H28   S    
N3    Ni4   S    
N1    N7    A    
C40   H27   S    
C61   H41   S    
C18   H52   S    
N5    Ni1   S    
C13   H50   S    
C1    O1    S    
C4    N18   A    
N8    Ni1   S    
C48   C49   A    
C64   N13   A    
C2    H34   S    
N16   Ni4   S    
C16   C23   A    
C22   C27   A    
C55   C57   A    
C46   C57   S    
C48   H21   S    
C19   H4    S    
C42   C43   A    
N1    Ni1   S    
N3    N5    A    
C65   H23   S    
N8    N16   A    
N18   Ni2   S    
C21   C25   A    
C46   C47   A    
N2    Ni3   S    
C3    H45   S    
C11   C34   S    
C2    C8    A    
N17   Ni3   S    
C4    H2    S    
C30   H7    S    
C24   H10   S    
C34   C52   A    
C6    C33   S    
C25   H11   S    
C23   C32   S    
C16   H14   S    
N13   N14   A    
C58   C59   S    
C38   C43   A    
C51   H24   S    
C11   C13   A    
C38   C39   A    
C14   H51   S    
C22   C24   A    
C1    N1    A    
C63   N12   A    
C61   H42   S    
C9    C65   A    
C54   H29   S    
C10   C11   A    
C8    C63   A    
C62   N10   S    
C26   C31   A    
C62   H47   S    
C49   C50   A    
C21   C24   A    
C53   H25   S    
C43   H17   S    
C32   C42   A    
C14   C15   A    
C19   H5    S    
C36   H18   S    
C22   H8    S    
C51   C53   S    
C60   H39   S    
C45   H31   S    
C18   H3    S    
C12   C54   A    
C29   H6    S    
