data_mof_unit_13721.cif
_audit_creation_date              2012-12-10T20:03:53-0500
_audit_creation_method            fapswitch 2.2
_symmetry_space_group_name_H-M    P1
_symmetry_Int_Tables_number       1
_space_group_crystal_system       triclinic
_cell_length_a                    19.332197
_cell_length_b                    18.441332
_cell_length_c                    10.691312
_cell_angle_alpha                 89.260858
_cell_angle_beta                  89.944712
_cell_angle_gamma                 89.974882
_cell_volume                      3811.25600367

loop_
_atom_site_label
_atom_site_type_symbol
_atom_type_description
_atom_site_fract_x
_atom_site_fract_y
_atom_site_fract_z
_atom_type_partial_charge
C1    C     C_R   0.365633 0.500047 0.499525 0.847809
C2    C     C_R   0.634363 0.500004 0.500815 0.860299
C3    C     C_R   0.709450 0.499923 0.503313 -0.040438
C4    C     C_R   0.290533 0.500101 0.498660 -0.037201
C5    C     C_R   0.964715 0.543650 0.588048 -0.187844
C6    C     C_R   0.036359 0.543923 0.585955 -0.184831
C7    C     C_R   0.071753 0.500142 0.501073 0.106849
C8    C     C_R   0.928262 0.499616 0.505222 0.107413
C9    C     C_R   0.035309 0.456094 0.418301 -0.187482
C10   C     C_R   0.963687 0.455854 0.420332 -0.183671
C11   C     C_R   0.537400 0.725471 0.587457 0.004997
C12   C     C_R   0.462587 0.726611 0.412307 0.004883
C13   C     C_R   0.537888 0.801554 0.589146 -0.221101
C14   C     C_R   0.461960 0.802732 0.410305 -0.222170
C15   C     C_R   0.499877 0.841287 0.499674 0.185974
C16   C     C_R   0.519430 0.962491 0.391514 0.456460
C17   C     C_R   0.480172 0.960881 0.607723 0.457083
C18   C     C_R   0.518473 0.038885 0.391893 -0.222998
C19   C     C_R   0.481201 0.037272 0.607420 -0.223081
C20   C     C_R   0.499873 0.077131 0.499691 0.080000
C21   C     C_R   0.494099 0.500443 0.262739 0.810442
C22   C     C_R   0.503393 0.499346 0.737689 0.780982
C23   C     C_R   0.499799 0.922541 0.499611 -0.143864
C24   C     C_R   0.535708 0.196804 0.593517 0.400988
C25   C     C_R   0.464196 0.198355 0.406150 0.400978
C26   C     C_R   0.536294 0.273503 0.588862 -0.146307
C27   C     C_R   0.463650 0.274968 0.411076 -0.144321
C28   C     C_R   0.499935 0.158578 0.499775 -0.068896
C29   C     C_2   0.478355 0.445066 0.933243 -0.268238
C30   C     C_2   0.481846 0.441300 0.067291 -0.293008
C31   C     C_2   0.513574 0.496252 0.870116 0.471826
C32   C     C_2   0.474429 0.501684 0.133719 0.464215
C33   C     C_R   0.745533 0.433954 0.504022 -0.192836
C34   C     C_R   0.254402 0.434196 0.499067 -0.195196
C35   C     C_R   0.817155 0.433890 0.505560 -0.178779
C36   C     C_R   0.182770 0.434269 0.499352 -0.179025
C37   C     C_R   0.853137 0.499710 0.506488 0.117298
C38   C     C_R   0.146851 0.500165 0.499281 0.117697
C39   C     C_R   0.817253 0.565635 0.506898 -0.178232
C40   C     C_R   0.182758 0.566037 0.498180 -0.180989
C41   C     C_R   0.745615 0.565779 0.505352 -0.198596
C42   C     C_R   0.254400 0.566048 0.497737 -0.200476
H1    H     H_    0.447796 0.404212 0.885969 0.129538
H2    H     H_    0.494619 0.389273 0.110253 0.135566
H3    H     H_    0.568244 0.829186 0.658988 0.167406
H4    H     H_    0.431575 0.831286 0.340325 0.166978
H5    H     H_    0.533586 0.068293 0.307911 0.176181
H6    H     H_    0.466105 0.065422 0.691428 0.176177
H7    H     H_    0.566088 0.303918 0.655687 0.154014
H8    H     H_    0.433833 0.306476 0.344385 0.152466
H9    H     H_    0.718571 0.382485 0.503211 0.160036
H10   H     H_    0.281334 0.382672 0.499783 0.159644
H11   H     H_    0.844495 0.382589 0.506660 0.133258
H12   H     H_    0.155381 0.383022 0.501322 0.133451
H13   H     H_    0.844669 0.616864 0.506457 0.130839
H14   H     H_    0.155342 0.617293 0.496737 0.130643
H15   H     H_    0.718708 0.617315 0.505090 0.155315
H16   H     H_    0.281339 0.617544 0.496793 0.155078
H17   H     H_    0.937757 0.577071 0.654964 0.131904
H18   H     H_    0.064171 0.577489 0.651382 0.133080
H19   H     H_    0.062269 0.422694 0.351348 0.133411
H20   H     H_    0.935921 0.422364 0.354729 0.134148
H21   H     H_    0.567045 0.695133 0.656078 0.130613
H22   H     H_    0.433050 0.697128 0.343741 0.135490
N1    N     N_R   0.500000 0.689440 0.500000 -0.094127
N2    N     N_R   0.500000 0.310560 0.500000 -0.126548
O1    O     O_R   0.398180 0.560840 0.499970 -0.628205
O2    O     O_R   0.601820 0.560840 0.500030 -0.626605
O3    O     O_R   0.398180 0.439210 0.499910 -0.616776
O4    O     O_R   0.601820 0.439210 0.500090 -0.612227
O5    O     O_R   0.500000 0.560800 0.319070 -0.582439
O6    O     O_R   0.500000 0.560800 0.680930 -0.595484
O7    O     O_R   0.499990 0.439170 0.319010 -0.651419
O8    O     O_R   0.500010 0.439170 0.680990 -0.647521
Zn1   Zn    Zn3+2 0.500000 0.581210 0.500000 0.965990
Zn2   Zn    Zn3+2 0.500000 0.418790 0.500000 0.930694
O9    O     O_3   0.537709 0.927006 0.283356 -0.592953
C43   C     C_3   0.610351 0.920795 0.279930 -0.290292
H23   H     H_    0.630172 0.889400 0.362065 0.157336
H24   H     H_    0.635495 0.975036 0.274500 0.152511
H25   H     H_    0.625093 0.890846 0.194627 0.199861
O10   O     O_3   0.461858 0.923790 0.715855 -0.592445
C44   C     C_3   0.389216 0.917562 0.719159 -0.293102
H26   H     H_    0.369452 0.887387 0.637010 0.156887
H27   H     H_    0.364047 0.971737 0.724507 0.153122
H28   H     H_    0.374441 0.886365 0.804458 0.198527
O11   O     O_3   0.574907 0.158273 0.680527 -0.589073
C45   C     C_3   0.559020 0.180418 0.803228 -0.335329
H29   H     H_    0.502372 0.187828 0.817998 0.143659
H30   H     H_    0.587576 0.230664 0.826703 0.163147
H31   H     H_    0.576377 0.137413 0.869583 0.202251
O12   O     O_3   0.424998 0.161288 0.318970 -0.588870
C46   C     C_3   0.440807 0.185503 0.196369 -0.339209
H32   H     H_    0.497442 0.193153 0.181558 0.144722
H33   H     H_    0.412211 0.236151 0.173212 0.161085
H34   H     H_    0.423448 0.143624 0.129798 0.201805
O13   O     O_3   0.557296 0.544590 0.930805 -0.553779
C47   C     C_3   0.621884 0.549197 0.869381 -0.316957
H35   H     H_    0.618300 0.583676 0.783710 0.169526
H36   H     H_    0.642901 0.494666 0.846522 0.131682
H37   H     H_    0.659337 0.575410 0.932995 0.197153
O14   O     O_3   0.450624 0.565882 0.079720 -0.540261
C48   C     C_3   0.380067 0.573936 0.110056 -0.330098
H38   H     H_    0.372401 0.579764 0.212627 0.147625
H39   H     H_    0.348903 0.527769 0.074664 0.154401
H40   H     H_    0.360488 0.624137 0.064075 0.199887

loop_
_geom_bond_atom_site_label_1
_geom_bond_atom_site_label_2
_ccdc_geom_bond_type
C38   C40   A    
O11   C45   S    
C46   H32   S    
C35   H11   S    
C19   C20   A    
C18   H5    S    
C42   H16   S    
O13   C47   S    
C14   H4    S    
O9    C43   S    
O2    Zn1   S    
C17   C23   A    
O8    Zn2   S    
C21   O5    A    
C9    H19   S    
C35   C37   A    
C24   C26   A    
C16   O9    S    
C2    O2    A    
C5    C6    A    
C12   H22   S    
C43   H24   S    
C3    C33   A    
C21   O7    A    
O3    Zn2   S    
C17   O10   S    
C33   C35   A    
C39   H13   S    
C40   H14   S    
C9    C10   A    
C18   C20   A    
C27   H8    S    
C40   C42   A    
C46   H33   S    
C29   H1    S    
C30   H2    S    
C10   H20   S    
O6    Zn1   S    
C22   O6    A    
C37   C39   A    
C21   C32   S    
C4    C34   A    
O5    Zn1   S    
C22   C31   S    
C5    H17   S    
C26   N2    A    
C6    H18   S    
C39   C41   A    
C26   H7    S    
C43   H23   S    
C20   C28   S    
C1    O3    A    
C33   H9    S    
C25   C28   A    
C29   C30   S    
C44   H26   S    
C45   H31   S    
N2    Zn2   S    
C48   H39   S    
C8    C10   A    
C44   H27   S    
C12   C14   A    
C47   H35   S    
C46   H34   S    
C47   H36   S    
C13   C15   A    
O4    Zn2   S    
O7    Zn2   S    
C32   O14   S    
C25   C27   A    
C8    C37   S    
C22   O8    A    
C13   H3    S    
C7    C9    A    
C3    C41   A    
C25   O12   S    
C19   H6    S    
C24   C28   A    
C45   H30   S    
C5    C8    A    
C6    C7    A    
C1    O1    A    
C16   C23   A    
C47   H37   S    
C12   N1    A    
C34   H10   S    
N1    Zn1   S    
C1    C4    S    
C36   C38   A    
C2    C3    S    
C41   H15   S    
C29   C31   D    
C27   N2    A    
C30   C32   D    
C11   C13   A    
C43   H25   S    
C4    C42   A    
C15   C23   S    
O12   C46   S    
C17   C19   A    
C7    C38   S    
C48   H40   S    
C34   C36   A    
C31   O13   S    
O14   C48   S    
C24   O11   S    
C36   H12   S    
C44   H28   S    
O1    Zn1   S    
C45   H29   S    
C16   C18   A    
O10   C44   S    
C48   H38   S    
C14   C15   A    
C2    O4    A    
C11   H21   S    
C11   N1    A    
