data_mof_unit_31584.cif
_audit_creation_date              2012-12-10T19:00:00-0500
_audit_creation_method            fapswitch 2.2
_symmetry_space_group_name_H-M    P1
_symmetry_Int_Tables_number       1
_space_group_crystal_system       triclinic
_cell_length_a                    11.017836
_cell_length_b                    10.956997
_cell_length_c                    10.213865
_cell_angle_alpha                 90.892604
_cell_angle_beta                  91.008823
_cell_angle_gamma                 98.374462
_cell_volume                      1219.50050113

loop_
_atom_site_label
_atom_site_type_symbol
_atom_type_description
_atom_site_fract_x
_atom_site_fract_y
_atom_site_fract_z
_atom_type_partial_charge
C1    C     C_R   0.498511 0.259789 0.499831 0.901823
C2    C     C_R   0.491496 0.062180 0.624514 -0.051157
C3    C     C_R   0.514648 0.873451 0.509958 -0.235515
C4    C     C_R   0.500625 0.125542 0.503798 -0.239093
C5    C     C_R   0.559379 0.596741 0.073449 -0.030827
C6    C     C_R   0.426301 0.411387 0.927548 -0.056401
C7    C     C_R   0.556765 0.599300 0.930802 0.523750
C8    C     C_R   0.422913 0.415766 0.070558 0.543548
C9    C     C_R   0.260936 0.506989 0.499816 0.847626
C10   C     C_R   0.739394 0.504209 0.502494 0.831474
C11   C     C_R   0.248886 0.660527 0.106060 -0.182674
C12   C     C_R   0.504754 0.739499 0.502000 0.915981
C13   C     C_R   0.743815 0.375195 0.930021 -0.157587
C14   C     C_R   0.199336 0.662627 0.229488 -0.126860
C15   C     C_R   0.793017 0.362661 0.806513 -0.093296
C16   C     C_R   0.112540 0.564265 0.266004 0.113083
C17   C     C_R   0.876991 0.472663 0.759034 0.020248
C18   C     C_R   0.070656 0.467308 0.179907 -0.117017
C19   C     C_R   0.903700 0.575519 0.842037 -0.115475
C20   C     C_R   0.117772 0.464154 0.055889 0.260324
C21   C     C_R   0.867256 0.575425 0.968673 0.127099
C22   C     C_R   0.210129 0.561507 0.020140 -0.100109
C23   C     C_R   0.873680 0.521224 0.510199 -0.154910
C24   C     C_R   0.788531 0.474332 0.015275 -0.221473
C25   C     C_R   0.939941 0.575094 0.405975 0.075846
C26   C     C_R   0.067999 0.524127 0.623221 0.049698
C27   C     C_3   0.690228 0.741616 0.818660 -0.297833
C28   C     C_3   0.309837 0.236805 0.139421 -0.233012
C29   C     C_3   0.373593 0.993622 0.231144 -0.436533
C30   C     C_3   0.401959 0.880844 0.832090 -0.214774
C31   C     C_R   0.129217 0.526152 0.503721 -0.154177
C32   C     C_R   0.939826 0.502322 0.625544 -0.038811
C33   C     C_R   0.062790 0.558764 0.394779 -0.046655
C34   C     C_R   0.517623 0.057025 0.390107 0.495156
C35   C     C_R   0.472735 0.931705 0.621107 0.460417
C36   C     C_R   0.560500 0.945203 0.405559 -0.072442
H1    H     H_    0.263319 0.558486 0.934494 0.136877
H2    H     H_    0.716034 0.663977 0.762215 0.211460
H3    H     H_    0.759674 0.776378 0.894618 0.155328
H4    H     H_    0.298658 0.212159 0.243703 0.223284
H5    H     H_    0.390007 0.200227 0.097320 0.175258
H6    H     H_    0.225308 0.194207 0.086071 0.159969
H7    H     H_    0.119240 0.353775 0.888514 0.193975
H8    H     H_    0.987748 0.338870 0.967471 0.185331
H9    H     H_    0.839645 0.708416 0.101069 0.185594
H10   H     H_    0.984172 0.670335 0.100368 0.219888
H11   H     H_    0.959512 0.736672 0.311741 0.165828
H12   H     H_    0.758156 0.474332 0.115395 0.175861
H13   H     H_    0.826531 0.703597 0.378275 0.172563
H14   H     H_    0.179328 0.488129 0.764260 0.216810
H15   H     H_    0.192871 0.641731 0.728150 0.235960
H16   H     H_    0.291543 0.003838 0.290002 0.168044
H17   H     H_    0.393049 0.897584 0.239436 0.197235
H18   H     H_    0.350217 0.001228 0.126035 0.163867
H19   H     H_    0.498402 0.914858 0.862827 0.176784
H20   H     H_    0.374911 0.790750 0.878077 0.208218
H21   H     H_    0.337673 0.941118 0.870310 0.118741
H22   H     H_    0.602931 0.924296 0.214938 0.233213
H23   H     H_    0.321837 0.732227 0.080111 0.130537
H24   H     H_    0.722219 0.948620 0.319278 0.163842
H25   H     H_    0.589815 0.101061 0.793739 0.165864
H26   H     H_    0.437534 0.111502 0.803582 0.177478
H27   H     H_    0.658728 0.769310 0.087148 0.184435
H28   H     H_    0.673377 0.675466 0.214062 0.225173
H29   H     H_    0.337244 0.239747 0.885827 0.160067
H30   H     H_    0.342495 0.334746 0.759258 0.257721
H31   H     H_    0.678101 0.300677 0.965703 0.143991
H32   H     H_    0.230803 0.737336 0.298054 0.121993
H33   H     H_    0.829289 0.353411 0.715477 0.148853
H34   H     H_    0.003626 0.391345 0.211203 0.125472
H35   H     H_    0.955549 0.660534 0.807529 0.158325
H36   H     H_    0.687958 0.817960 0.749099 0.168592
N1    N     N_R   0.499970 0.499970 0.857200 -0.157769
N2    N     N_3   0.332031 0.329819 0.859652 -0.459236
N3    N     N_R   0.500030 0.500030 0.142800 -0.154708
N4    N     N_3   0.082710 0.352282 0.980658 -0.458526
N5    N     N_3   0.908956 0.684525 0.043772 -0.503204
N6    N     N_3   0.890162 0.662128 0.324962 -0.475363
N7    N     N_3   0.132776 0.559840 0.741665 -0.476936
N8    N     N_3   0.633723 0.900296 0.307042 -0.440845
N9    N     N_3   0.514064 0.129006 0.746071 -0.417944
N10   N     N_3   0.611325 0.703055 0.146647 -0.403074
O1    O     O_R   0.499990 0.316750 0.614620 -0.609073
O2    O     O_3   0.319318 0.364473 0.134302 -0.580507
O3    O     O_3   0.474419 0.085909 0.268459 -0.610011
O4    O     O_3   0.384061 0.862545 0.696042 -0.600141
O5    O     O_R   0.500010 0.683250 0.385380 -0.597984
O6    O     O_R   0.499990 0.316780 0.385290 -0.573582
O7    O     O_R   0.500010 0.683220 0.614710 -0.547584
O8    O     O_R   0.316760 0.500000 0.614660 -0.653838
O9    O     O_R   0.683240 0.500000 0.385340 -0.620644
O10   O     O_R   0.316760 0.500020 0.385330 -0.557301
O11   O     O_R   0.683240 0.499980 0.614670 -0.635121
O12   O     O_3   0.573630 0.713432 0.872709 -0.624694
Zn1   Zn    Zn3+2 0.500000 0.499980 0.653120 0.960004
Zn2   Zn    Zn3+2 0.500000 0.500020 0.346880 0.996216

loop_
_geom_bond_atom_site_label_1
_geom_bond_atom_site_label_2
_ccdc_geom_bond_type
C2    C35   A    
C18   H34   S    
O6    Zn2   S    
C5    N3    A    
C28   O2    S    
C19   H35   S    
H14   N7    S    
O8    Zn1   S    
C7    N1    A    
C26   C32   A    
C19   C21   A    
C35   O4    S    
C29   H18   S    
C28   H4    S    
C27   H2    S    
H30   N2    S    
C30   H21   S    
C28   H5    S    
O10   Zn2   S    
H13   N6    S    
C20   N4    S    
C18   C20   A    
H8    N4    S    
C3    C12   S    
C17   C19   A    
O9    Zn2   S    
C27   H3    S    
C31   C33   A    
C30   O4    S    
C29   O3    S    
H22   N8    S    
C1    O6    A    
C26   C31   A    
O11   Zn1   S    
C11   H23   S    
C9    O10   A    
N3    Zn2   S    
C6    N2    S    
C15   H33   S    
C4    C34   A    
H27   N10   S    
C25   N6    S    
C24   H12   S    
C12   O7    A    
C36   N8    S    
C5    C7    A    
C6    C8    A    
C10   O11   A    
C22   H1    S    
C30   H20   S    
C8    N3    A    
H29   N2    S    
C13   C24   A    
C34   O3    S    
O7    Zn1   S    
C2    C4    A    
C16   C33   S    
C3    C35   A    
O1    Zn1   S    
O5    Zn2   S    
H28   N10   S    
H26   N9    S    
C20   C22   A    
C10   O9    A    
C13   C15   A    
C14   C16   A    
N1    Zn1   S    
C6    N1    A    
C13   H31   S    
H7    N4    S    
C15   C17   A    
C7    O12   S    
H24   N8    S    
C12   O5    A    
C8    O2    S    
C2    N9    S    
C9    O8    A    
H10   N5    S    
C10   C23   S    
C1    O1    A    
C30   H19   S    
C11   C22   A    
C26   N7    S    
C1    C4    S    
C23   C32   A    
H25   N9    S    
C5    N10   S    
C29   H17   S    
C3    C36   A    
C28   H6    S    
C11   C14   A    
C34   C36   A    
C23   C25   A    
H15   N7    S    
C9    C31   S    
C16   C18   A    
C21   C24   A    
C21   N5    S    
C17   C32   S    
C14   H32   S    
C27   O12   S    
H9    N5    S    
H11   N6    S    
C27   H36   S    
C25   C33   A    
C29   H16   S    
