data_mof_unit_8633.cif
_audit_creation_date              2013-03-05T15:41:17-0500
_audit_creation_method            fapswitch 2.2
_symmetry_space_group_name_H-M    P1
_symmetry_Int_Tables_number       1
_space_group_crystal_system       triclinic
_cell_length_a                    16.735811
_cell_length_b                    16.994627
_cell_length_c                    16.907144
_cell_angle_alpha                 66.312444
_cell_angle_beta                  66.336173
_cell_angle_gamma                 65.74468
_cell_volume                      3850.64759853

loop_
_atom_site_label
_atom_site_type_symbol
_atom_site_description
_atom_site_fract_x
_atom_site_fract_y
_atom_site_fract_z
_atom_type_partial_charge
O1    O     O_R   0.982940 0.138950 0.510160 -0.655519
O2    O     O_R   0.017060 0.861050 0.489840 -0.659444
O3    O     O_R   0.138950 0.510160 0.982940 -0.652179
O4    O     O_R   0.861050 0.489840 0.017060 -0.657419
O5    O     O_R   0.510160 0.982940 0.138950 -0.644938
O6    O     O_R   0.489840 0.017060 0.861050 -0.645645
O7    O     O_R   0.489840 0.861050 0.017060 -0.674136
O8    O     O_R   0.510160 0.138950 0.982940 -0.674472
O9    O     O_R   0.017060 0.489840 0.861050 -0.657413
O10   O     O_R   0.982940 0.510160 0.138950 -0.652846
O11   O     O_R   0.861050 0.017060 0.489840 -0.646466
O12   O     O_R   0.138950 0.982940 0.510160 -0.645732
C1    C     C_R   0.327415 0.940913 0.459031 0.011852
C2    C     C_R   0.670057 0.039281 0.556185 0.017044
C3    C     C_R   0.943301 0.458466 0.327541 0.018416
C4    C     C_R   0.041164 0.544272 0.676169 0.016783
C5    C     C_R   0.459938 0.323377 0.948290 0.023748
C6    C     C_R   0.557105 0.684154 0.010691 0.025053
C7    C     C_R   0.564794 0.980992 0.697312 0.027109
C8    C     C_R   0.431654 0.998572 0.316793 0.019586
C9    C     C_R   0.674325 0.542021 0.047714 0.021955
C10   C     C_R   0.329742 0.459069 0.936965 0.013253
C11   C     C_R   0.037543 0.677060 0.545248 0.024483
C12   C     C_R   0.945585 0.326619 0.458756 0.023741
O13   O     O_R   0.867700 0.025880 0.612340 -0.566320
O14   O     O_R   0.132300 0.974120 0.387660 -0.547810
O15   O     O_R   0.025880 0.612340 0.867700 -0.554805
O16   O     O_R   0.974120 0.387660 0.132300 -0.567297
O17   O     O_R   0.612340 0.867700 0.025880 -0.556613
O18   O     O_R   0.387660 0.132300 0.974120 -0.551053
O19   O     O_R   0.387660 0.974120 0.132300 -0.556247
O20   O     O_R   0.612340 0.025880 0.867700 -0.569735
O21   O     O_R   0.132300 0.387660 0.974120 -0.546786
O22   O     O_R   0.867700 0.612340 0.025880 -0.553110
O23   O     O_R   0.974120 0.132300 0.387660 -0.562064
O24   O     O_R   0.025880 0.867700 0.612340 -0.552605
C13   C     C_R   0.968331 0.178410 0.435757 0.925400
C14   C     C_R   0.034216 0.820633 0.563577 0.923467
C15   C     C_R   0.179477 0.438286 0.960652 0.928549
C16   C     C_R   0.820594 0.561635 0.038087 0.915246
C17   C     C_R   0.431249 0.977263 0.177217 0.947880
C18   C     C_R   0.574412 0.999549 0.833594 0.912209
C19   C     C_R   0.567092 0.822030 0.026285 0.923470
C20   C     C_R   0.437492 0.179055 0.962688 0.944956
C21   C     C_R   0.035181 0.562873 0.820791 0.927210
C22   C     C_R   0.968155 0.435964 0.178305 0.925289
C23   C     C_R   0.821060 0.030123 0.565805 0.896598
C24   C     C_R   0.179328 0.959268 0.439275 0.923626
C25   C     C_R   0.403196 0.974389 0.411722 0.073313
C26   C     C_R   0.592485 0.007989 0.602546 0.072900
C27   C     C_R   0.948795 0.416167 0.416813 0.073133
C28   C     C_R   0.028288 0.589538 0.589584 0.062816
C29   C     C_R   0.417449 0.413619 0.949997 0.067690
C30   C     C_R   0.592340 0.590362 0.022937 0.065678
C31   C     C_R   0.278811 0.937209 0.409386 -0.205949
C32   C     C_R   0.727797 0.026670 0.606997 -0.228448
C33   C     C_R   0.956857 0.403239 0.274636 -0.220131
C34   C     C_R   0.053668 0.591855 0.722077 -0.204620
C35   C     C_R   0.409431 0.277254 0.939975 -0.232716
C36   C     C_R   0.600443 0.726450 0.034295 -0.211862
C37   C     C_R   0.614024 0.989427 0.743500 -0.211150
C38   C     C_R   0.394265 0.971090 0.272433 -0.227318
C39   C     C_R   0.720978 0.590219 0.057858 -0.214125
C40   C     C_R   0.279998 0.409430 0.934555 -0.208858
C41   C     C_R   0.051369 0.722236 0.593031 -0.218300
C42   C     C_R   0.957671 0.274397 0.403300 -0.225119
Zn1   Zn    Zn3+2 0.004880 0.004880 0.583590 1.060259
Zn2   Zn    Zn3+2 0.995120 0.995120 0.416410 1.061382
Zn3   Zn    Zn3+2 0.004880 0.583590 0.004880 1.064772
Zn4   Zn    Zn3+2 0.995120 0.416410 0.995120 1.055422
Zn5   Zn    Zn3+2 0.583590 0.004880 0.004880 1.051181
Zn6   Zn    Zn3+2 0.416410 0.995120 0.995120 1.065526
C43   C     C_R   0.490768 0.944483 0.742967 -0.194867
C44   C     C_R   0.496873 0.047314 0.271140 -0.199594
C45   C     C_R   0.034039 0.714859 0.454170 -0.177666
C46   C     C_R   0.937818 0.291876 0.552552 -0.208555
C47   C     C_R   0.707664 0.447781 0.059585 -0.198960
C48   C     C_R   0.295554 0.553009 0.925112 -0.172703
C49   C     C_R   0.301740 0.912940 0.553909 -0.175315
C50   C     C_R   0.688816 0.077233 0.461415 -0.210779
C51   C     C_R   0.551681 0.283739 0.954075 -0.210264
C52   C     C_R   0.478780 0.730516 0.977467 -0.201245
C53   C     C_R   0.932088 0.552516 0.293481 -0.177878
C54   C     C_R   0.041967 0.452542 0.712936 -0.172066
C55   C     C_R   0.321519 0.934457 0.321550 0.246580
C56   C     C_R   0.701211 0.994397 0.700931 0.217613
C57   C     C_R   0.976138 0.310762 0.310886 0.197735
C58   C     C_R   0.069687 0.675068 0.675926 0.246630
C59   C     C_R   0.325003 0.324171 0.922427 0.237458
C60   C     C_R   0.675964 0.675769 0.067173 0.235424
H1    H     H_    0.343514 0.887747 0.814458 0.134869
H2    H     H_    0.629626 0.127672 0.199294 0.146779
H3    H     H_    0.998572 0.788049 0.293876 0.150565
H4    H     H_    0.962257 0.222842 0.717650 0.147945
H5    H     H_    0.773290 0.276640 0.052606 0.145319
H6    H     H_    0.235939 0.726617 0.920942 0.152148
H7    H     H_    0.263401 0.868823 0.733222 0.160942
H8    H     H_    0.713408 0.140139 0.281868 0.148426
H9    H     H_    0.707930 0.206522 0.001704 0.143078
H10   H     H_    0.312440 0.801808 0.952137 0.136148
H11   H     H_    0.949230 0.719297 0.225963 0.155035
H12   H     H_    0.012809 0.290747 0.785354 0.151105
C61   C     C_R   0.638659 0.073888 0.413458 0.109304
C62   C     C_R   0.347734 0.922165 0.601288 0.099808
C63   C     C_R   0.012537 0.413485 0.675165 0.087972
C64   C     C_R   0.951831 0.595942 0.335376 0.093903
C65   C     C_R   0.429906 0.685387 0.970709 0.103910
C66   C     C_R   0.590494 0.323190 0.981808 0.094872
C67   C     C_R   0.542499 0.058612 0.318049 0.104591
C68   C     C_R   0.442007 0.939151 0.695899 0.107816
C69   C     C_R   0.339339 0.597254 0.941102 0.099511
C70   C     C_R   0.668615 0.405442 0.034999 0.104403
C71   C     C_R   0.958518 0.333523 0.595461 0.100717
C72   C     C_R   0.004729 0.676636 0.415390 0.087101
C73   C     C_R   0.659390 0.108473 0.319234 -0.193811
C74   C     C_R   0.320717 0.895925 0.695567 -0.177503
C75   C     C_R   0.000589 0.327604 0.720026 -0.182373
C76   C     C_R   0.960673 0.682969 0.291660 -0.177409
C77   C     C_R   0.345240 0.732156 0.952097 -0.207892
C78   C     C_R   0.673259 0.275452 0.004398 -0.214709
C79   C     C_R   0.611485 0.101300 0.272025 -0.191421
C80   C     C_R   0.367024 0.905387 0.742201 -0.192914
C81   C     C_R   0.300763 0.688817 0.936161 -0.183807
C82   C     C_R   0.710411 0.315328 0.033724 -0.202870
C83   C     C_R   0.971214 0.289054 0.681626 -0.191441
C84   C     C_R   0.989360 0.721970 0.330235 -0.186309
H13   H     H_    0.472914 0.915688 0.815130 0.146429
H14   H     H_    0.512279 0.078721 0.199417 0.172019
H15   H     H_    0.058304 0.771476 0.408864 0.196345
H16   H     H_    0.918429 0.231656 0.594043 0.182284
H17   H     H_    0.763497 0.405632 0.088862 0.174067
H18   H     H_    0.236546 0.593759 0.900307 0.196308
H19   H     H_    0.247802 0.881179 0.591431 0.185883
H20   H     H_    0.741812 0.109982 0.424004 0.166506
H21   H     H_    0.597127 0.223935 0.934251 0.188452
H22   H     H_    0.453699 0.801950 0.951861 0.166177
H23   H     H_    0.910771 0.593532 0.233477 0.199107
H24   H     H_    0.069096 0.407749 0.768809 0.199456
C85   C     C_R   0.519697 0.025860 0.412442 0.032177
C86   C     C_R   0.468499 0.967610 0.601416 0.030396
C87   C     C_R   0.971024 0.419013 0.550096 0.033825
C88   C     C_R   0.991254 0.591863 0.461652 0.034102
C89   C     C_R   0.422045 0.549187 0.963950 0.029298
C90   C     C_R   0.587622 0.454273 0.009300 0.031272
C91   C     C_R   0.567300 0.034094 0.460164 0.031027
C92   C     C_R   0.421262 0.959061 0.553907 0.027777
C93   C     C_R   0.466470 0.593190 0.980803 0.036206
C94   C     C_R   0.546250 0.411654 0.986709 0.036113
C95   C     C_R   0.995067 0.460492 0.591421 0.031431
C96   C     C_R   0.967525 0.550195 0.420231 0.031386
C97   C     C_R   0.448180 0.986339 0.459283 -0.029651
C98   C     C_R   0.542783 0.003340 0.554645 -0.032218
C99   C     C_R   0.960109 0.462615 0.463248 -0.033727
C100  C     C_R   0.005606 0.547080 0.547293 -0.030384
C101  C     C_R   0.462140 0.458278 0.966340 -0.034862
C102  C     C_R   0.548439 0.545762 0.005199 -0.034447
N1    N     N_R   0.291836 0.891534 0.284723 0.221648
O25   O     O_R   0.237517 0.939494 0.233489 -0.335101
O26   O     O_R   0.303381 0.805321 0.317698 -0.385136
N2    N     N_R   0.764704 0.955350 0.754137 0.234810
O27   O     O_R   0.784667 0.006166 0.779737 -0.354788
O28   O     O_R   0.790396 0.868519 0.788927 -0.382202
N3    N     N_R   0.031638 0.252599 0.252969 0.240523
O29   O     O_R   0.994127 0.222122 0.221575 -0.353304
O30   O     O_R   0.120246 0.228748 0.233436 -0.375075
N4    N     N_R   0.111000 0.708781 0.710697 0.207115
O31   O     O_R   0.060976 0.762420 0.761546 -0.342013
O32   O     O_R   0.198565 0.676431 0.700579 -0.414191
N5    N     N_R   0.287511 0.288126 0.886068 0.219227
O33   O     O_R   0.292010 0.320101 0.800923 -0.391178
O34   O     O_R   0.236607 0.235530 0.938902 -0.334950
N6    N     N_R   0.705281 0.708568 0.114212 0.218639
O35   O     O_R   0.758006 0.760476 0.069991 -0.336668
O36   O     O_R   0.694108 0.672097 0.200355 -0.397214

loop_
_geom_bond_atom_site_label_1
_geom_bond_atom_site_label_2
_geom_bond_distance
_ccdc_geom_bond_type
H5    C82   1.083583 S    
C24   C31   1.460101 S    
C2    C32   1.437381 A    
C1    C49   1.409113 A    
O9    C21   1.249220 A    
N1    O25   1.302741 A    
C73   C79   1.402458 A    
N5    O34   1.302257 A    
N5    O33   1.300509 A    
C66   C78   1.405379 A    
O11   C23   1.250506 A    
N3    O29   1.303708 A    
O13   Zn1   2.050564 S    
C53   H23   1.077208 S    
O12   C24   1.252486 A    
C63   C75   1.405005 A    
C44   C67   1.406370 A    
O4    Zn4   2.032898 S    
H8    C73   1.083544 S    
O24   Zn1   2.085253 S    
C87   C95   1.414703 A    
C90   C94   1.412979 A    
N6    O35   1.302245 A    
O6    Zn6   2.061215 S    
C15   C40   1.471564 S    
O16   C22   1.293153 A    
O21   C15   1.293001 A    
C16   C39   1.464539 S    
C74   C80   1.393875 A    
O22   C16   1.300485 A    
H11   C76   1.083614 S    
C40   C59   1.388123 A    
N3    O30   1.301158 A    
C70   C82   1.403360 A    
O2    Zn2   2.067186 S    
C47   H17   1.080608 S    
C9    C30   1.411303 A    
C72   C84   1.405613 A    
C31   C55   1.376486 A    
C71   C83   1.403735 A    
C20   C35   1.462533 S    
C28   C100  1.425991 A    
C4    C54   1.423965 A    
C50   H20   1.081145 S    
C35   C59   1.393211 A    
C85   C97   1.408198 A    
C64   C96   1.403623 A    
C48   H18   1.080702 S    
H3    C84   1.083635 S    
O5    C17   1.241224 A    
C6    C52   1.428799 A    
H9    C78   1.083622 S    
C62   C74   1.400015 A    
C46   H16   1.076114 S    
C44   H14   1.078824 S    
O4    C16   1.245031 A    
C96   C99   1.403262 A    
O10   C22   1.242554 A    
O17   Zn5   2.084003 S    
C48   C69   1.396620 A    
C94   C101  1.407630 A    
O7    C19   1.228803 A    
O20   Zn5   2.078054 S    
C57   N3    1.446343 S    
O13   C23   1.278534 A    
O15   Zn3   2.077909 S    
O14   C24   1.286805 A    
O15   C21   1.299636 A    
C12   C27   1.411093 A    
C72   C88   1.399336 A    
C51   C66   1.395081 A    
O3    C15   1.256192 A    
N1    O26   1.300910 A    
C64   C76   1.403309 A    
N4    O32   1.300576 A    
C3    C33   1.438461 A    
O18   C20   1.286806 A    
C55   N1    1.441390 S    
C17   C38   1.450322 S    
C65   C77   1.403631 A    
C38   C55   1.398259 A    
N6    O36   1.300617 A    
C51   H21   1.075971 S    
C10   C29   1.411055 A    
C11   C41   1.445684 A    
C49   H19   1.083589 S    
O12   Zn1   2.040410 S    
C69   C89   1.406787 A    
C32   C56   1.397985 A    
C25   C97   1.413302 A    
C50   C61   1.409914 A    
C69   C81   1.399495 A    
C67   C79   1.406467 A    
C62   C92   1.410034 A    
C43   C68   1.395511 A    
O9    Zn4   2.065361 S    
C10   C48   1.414468 A    
C4    C28   1.411883 A    
C86   C92   1.410376 A    
C42   C57   1.382802 A    
C45   C72   1.398074 A    
C12   C46   1.423245 A    
C3    C53   1.422083 A    
C43   H13   1.079387 S    
C10   C40   1.427684 A    
H1    C80   1.074194 S    
C33   C57   1.384868 A    
C78   C82   1.398325 A    
N2    O28   1.301047 A    
C90   C102  1.401593 A    
C47   C70   1.400822 A    
C61   C73   1.405415 A    
C95   C100  1.406641 A    
C8    C38   1.438920 A    
C8    C25   1.410296 A    
C65   C93   1.392779 A    
O2    C14   1.243269 A    
C89   C101  1.399512 A    
C3    C27   1.410185 A    
O22   Zn3   2.049146 S    
C14   C41   1.475799 S    
C7    C43   1.412341 A    
C13   C42   1.454038 S    
C46   C71   1.401087 A    
C8    C44   1.423416 A    
H10   C77   1.081187 S    
C4    C34   1.440110 A    
C52   C65   1.389668 A    
C88   C100  1.406055 A    
H7    C74   1.083858 S    
C93   C102  1.407249 A    
C18   C37   1.447606 S    
H12   C75   1.083652 S    
O21   Zn4   2.049147 S    
C5    C35   1.441186 A    
C1    C25   1.408804 A    
C19   C36   1.451691 S    
C6    C36   1.446795 A    
O19   Zn6   2.078054 S    
C89   C93   1.411123 A    
C36   C60   1.390373 A    
C2    C50   1.419177 A    
C22   C33   1.452259 S    
N4    O31   1.302261 A    
C49   C62   1.397785 A    
C54   C63   1.397358 A    
C60   N6    1.441549 S    
C21   C34   1.474443 S    
C5    C29   1.407689 A    
O7    Zn6   2.055614 S    
O11   Zn2   2.040410 S    
C61   C91   1.408767 A    
C41   C58   1.393246 A    
H4    C83   1.083604 S    
O23   C13   1.292715 A    
C87   C99   1.402984 A    
C86   C98   1.408840 A    
C85   C91   1.415481 A    
O8    Zn5   2.055612 S    
O19   C17   1.273210 A    
H6    C81   1.083757 S    
O3    Zn3   2.032898 S    
O16   Zn4   2.077909 S    
O8    C20   1.235540 A    
C11   C45   1.426191 A    
C34   C58   1.391962 A    
O18   Zn6   2.084005 S    
C29   C101  1.418650 A    
C77   C81   1.392849 A    
C63   C95   1.399994 A    
C58   N4    1.440218 S    
C53   C64   1.401353 A    
C67   C85   1.405095 A    
O14   Zn2   2.050564 S    
N2    O27   1.303162 A    
C88   C96   1.415063 A    
C68   C86   1.403272 A    
C59   N5    1.440435 S    
O5    Zn5   2.061214 S    
H2    C79   1.083715 S    
C68   C80   1.399618 A    
C30   C102  1.421728 A    
C7    C26   1.407259 A    
C70   C90   1.404873 A    
C11   C28   1.413675 A    
C2    C26   1.413509 A    
C56   N2    1.444650 S    
O23   Zn2   2.085252 S    
C7    C37   1.418673 A    
C39   C60   1.376574 A    
O24   C14   1.298011 A    
O1    Zn1   2.067186 S    
C71   C87   1.403044 A    
C5    C51   1.427786 A    
C52   H22   1.068784 S    
C1    C31   1.415188 A    
C9    C39   1.433796 A    
C91   C98   1.404435 A    
C37   C56   1.365153 A    
C6    C30   1.411334 A    
C54   H24   1.077278 S    
C92   C97   1.405141 A    
O10   Zn3   2.065361 S    
C26   C98   1.414287 A    
C12   C42   1.441007 A    
O6    C18   1.242927 A    
C9    C47   1.419176 A    
O20   C18   1.292357 A    
C23   C32   1.447240 S    
C76   C84   1.398325 A    
C27   C99   1.419645 A    
C75   C83   1.398217 A    
O17   C19   1.284665 A    
C45   H15   1.075453 S    
O1    C13   1.235419 A    
C66   C94   1.396993 A    
