data_mof_unit_48672.cif
_audit_creation_date              2012-12-10T19:07:38-0500
_audit_creation_method            fapswitch 2.2
_symmetry_space_group_name_H-M    P1
_symmetry_Int_Tables_number       1
_space_group_crystal_system       triclinic
_cell_length_a                    10.912544
_cell_length_b                    10.857278
_cell_length_c                    9.53778
_cell_angle_alpha                 89.017441
_cell_angle_beta                  90.36598
_cell_angle_gamma                 90.805914
_cell_volume                      1129.74189112

loop_
_atom_site_label
_atom_site_type_symbol
_atom_type_description
_atom_site_fract_x
_atom_site_fract_y
_atom_site_fract_z
_atom_type_partial_charge
C1    C     C_R   0.503121 0.262132 0.501203 0.820177
C2    C     C_R   0.939195 0.486931 0.621604 0.021424
C3    C     C_3   0.931950 0.476811 0.777446 -0.046012
C4    C     C_3   0.073152 0.466903 0.776235 0.231871
C5    C     C_R   0.519545 0.059285 0.627853 0.147603
C6    C     C_R   0.515810 0.128853 0.502442 -0.133095
C7    C     C_R   0.527455 0.066956 0.374500 -0.164609
C8    C     C_R   0.524800 0.938473 0.371891 -0.185261
C9    C     C_R   0.508787 0.870628 0.497062 -0.100554
C10   C     C_R   0.509858 0.932766 0.623053 0.077010
C11   C     C_3   0.421777 0.923550 0.741225 -0.447020
C12   C     C_R   0.262700 0.498058 0.499649 0.826821
C13   C     C_3   0.440749 0.061320 0.756222 -0.031520
C14   C     C_R   0.532535 0.603901 0.071961 0.265565
C15   C     C_R   0.453297 0.403154 0.075798 -0.013118
C16   C     C_R   0.453736 0.403285 0.926997 0.030767
C17   C     C_R   0.531076 0.604420 0.924504 0.269672
C18   C     C_3   0.649842 0.672871 0.917236 -0.484817
C19   C     C_3   0.652738 0.670574 0.076316 -0.479392
C20   C     C_R   0.500095 0.737584 0.498788 0.809169
C21   C     C_R   0.737483 0.500564 0.500237 0.820237
C22   C     C_R   0.062946 0.483078 0.620868 0.038452
C23   C     C_R   0.130184 0.495619 0.498077 -0.089797
C24   C     C_R   0.063935 0.507879 0.371098 -0.169485
C25   C     C_R   0.935222 0.509271 0.371630 -0.172234
C26   C     C_R   0.870301 0.499809 0.499224 -0.082735
Cu1   Cu    Cu3+1 0.499990 0.499980 0.640670 0.997114
Cu2   Cu    Cu3+1 0.500010 0.500020 0.359330 0.972763
H1    H     H_    0.110864 0.517176 0.271664 0.190915
H2    H     H_    0.456021 0.866876 0.830579 0.221935
H3    H     H_    0.355797 0.115190 0.741679 0.168929
H4    H     H_    0.416917 0.323702 0.132131 0.162248
H5    H     H_    0.418212 0.324608 0.872138 0.175346
H6    H     H_    0.721189 0.617024 0.869428 0.220363
H7    H     H_    0.640893 0.766926 0.871259 0.213772
H8    H     H_    0.727409 0.613162 0.120886 0.216947
H9    H     H_    0.645488 0.763615 0.121739 0.205614
H10   H     H_    0.887347 0.518564 0.272369 0.170875
H11   H     H_    0.903473 0.564881 0.822499 0.131522
H12   H     H_    0.532851 0.117333 0.275806 0.197175
H13   H     H_    0.529241 0.893211 0.271928 0.174342
H14   H     H_    0.327670 0.898176 0.705472 0.203611
N1    N     N_R   0.500790 0.500930 0.147930 -0.198622
N2    N     N_R   0.500790 0.500890 0.852020 -0.186928
O1    O     O_R   0.500000 0.319640 0.618810 -0.569563
O2    O     O_R   0.500010 0.319680 0.381230 -0.592049
O3    O     O_R   0.319650 0.499970 0.618810 -0.554514
O4    O     O_R   0.319660 0.500010 0.381230 -0.585696
O5    O     O_R   0.499990 0.680320 0.618770 -0.578889
O6    O     O_R   0.500000 0.680360 0.381190 -0.590124
O7    O     O_R   0.680340 0.499990 0.618770 -0.566543
O8    O     O_R   0.680350 0.500030 0.381190 -0.588443
I1    I     I_    0.548064 0.095318 0.941237 -0.401741
I2    I     I_    0.823878 0.321090 0.848495 -0.244253
I3    I     I_    0.163765 0.618514 0.877335 -0.387800
I4    I     I_    0.149818 0.291710 0.832989 -0.337424

loop_
_geom_bond_atom_site_label_1
_geom_bond_atom_site_label_2
_ccdc_geom_bond_type
C2    C22   A    
C23   C24   A    
C24   C25   A    
C6    C7    A    
C19   H9    S    
C25   H10   S    
C4    C22   S    
C9    C10   A    
C16   N2    A    
C9    C20   S    
C5    C13   S    
C14   C17   A    
C21   O7    A    
C12   O4    A    
Cu2   O2    S    
Cu1   O1    S    
C17   C18   S    
C8    C9    A    
C17   N2    A    
C3    H11   S    
C5    C10   A    
C2    C26   A    
C4    I4    S    
Cu2   O8    S    
C12   C23   S    
C1    O1    A    
C20   O5    A    
C12   O3    A    
C14   C19   S    
C21   C26   S    
Cu1   O7    S    
C2    C3    S    
C13   I1    S    
C19   H8    S    
C18   H6    S    
C4    I3    S    
C5    C6    A    
C16   H5    S    
C3    I2    S    
C1    O2    A    
C7    C8    A    
C10   C11   S    
C15   N1    A    
C1    C6    S    
Cu1   O5    S    
C11   C13   S    
C8    H13   S    
C11   H14   S    
C18   C19   S    
C18   H7    S    
Cu1   O3    S    
Cu1   Cu2   S    
C24   H1    S    
Cu2   O4    S    
C20   O6    A    
Cu2   N1    S    
C25   C26   A    
C22   C23   A    
C7    H12   S    
Cu2   O6    S    
Cu1   N2    S    
C13   H3    S    
C21   O8    A    
C3    C4    S    
C15   C16   A    
C11   H2    S    
C14   N1    A    
C15   H4    S    
