data_mof_unit_58893.cif
_audit_creation_date              2012-12-10T17:50:30-0500
_audit_creation_method            fapswitch 2.2
_symmetry_space_group_name_H-M    P1
_symmetry_Int_Tables_number       1
_space_group_crystal_system       triclinic
_cell_length_a                    15.717507
_cell_length_b                    10.722332
_cell_length_c                    9.907066
_cell_angle_alpha                 89.34912
_cell_angle_beta                  89.726214
_cell_angle_gamma                 91.876313
_cell_volume                      1668.59625144

loop_
_atom_site_label
_atom_site_type_symbol
_atom_type_description
_atom_site_fract_x
_atom_site_fract_y
_atom_site_fract_z
_atom_type_partial_charge
Br1   Br    Br    0.629126 0.693928 0.154574 -0.462098
Br2   Br    Br    0.934979 0.744216 0.657648 -0.476879
C1    C     C_R   0.505582 0.260031 0.501643 0.864205
C2    C     C_R   0.500260 0.046201 0.878807 0.512084
C3    C     C_R   0.454217 0.933540 0.871060 -0.098698
C4    C     C_R   0.337976 0.499452 0.500278 0.880904
C5    C     C_R   0.440931 0.877728 0.746339 -0.238606
C6    C     C_R   0.473569 0.934654 0.626280 0.101604
C7    C     C_R   0.503233 0.058578 0.630759 0.078211
C8    C     C_R   0.509381 0.126071 0.506485 -0.111011
C9    C     C_R   0.504683 0.064264 0.383110 -0.186648
C10   C     C_R   0.493514 0.937306 0.381144 -0.149868
C11   C     C_R   0.480625 0.871495 0.502100 -0.135022
C12   C     C_3   0.082737 0.498591 0.500751 0.129754
C13   C     C_R   0.389387 0.334269 0.142307 -0.297462
C14   C     C_R   0.335118 0.250036 0.073907 0.369522
C15   C     C_R   0.335410 0.250922 0.932272 0.446937
C16   C     C_R   0.491378 0.738889 0.500065 0.902840
C17   C     C_R   0.389495 0.334920 0.862607 -0.241663
C18   C     C_R   0.445506 0.418419 0.929167 0.046525
C19   C     C_R   0.445495 0.418298 0.073457 0.075282
C20   C     C_R   0.552133 0.578556 0.068973 0.301786
C21   C     C_R   0.551813 0.578228 0.926183 -0.136160
C22   C     C_R   0.662027 0.500287 0.499725 0.929621
C23   C     C_3   0.974279 0.598952 0.564471 0.319087
C24   C     C_3   0.969158 0.394842 0.562922 -0.193598
C25   C     C_3   0.026264 0.397354 0.435071 -0.132868
C26   C     C_1   0.248990 0.498884 0.500894 -0.156093
C27   C     C_1   0.751011 0.499688 0.499097 -0.129128
C28   C     C_3   0.027537 0.495985 0.628757 -0.182193
C29   C     C_3   0.917290 0.498780 0.499466 0.115533
C30   C     C_3   0.031101 0.602706 0.437214 -0.185245
C31   C     C_3   0.972731 0.501396 0.371690 -0.187454
C32   C     C_1   0.173638 0.498564 0.501037 -0.022176
C33   C     C_1   0.826351 0.499135 0.498985 0.011211
C34   C     C_R   0.525039 0.108623 0.758598 -0.275342
H1    H     H_    0.049869 0.314564 0.381980 0.165307
H2    H     H_    0.058339 0.687946 0.386533 0.171550
H3    H     H_    0.051878 0.494439 0.733762 0.169953
H4    H     H_    0.510507 0.113708 0.287375 0.217880
H5    H     H_    0.563730 0.193194 0.767162 0.169381
H6    H     H_    0.289663 0.177434 0.241818 0.337428
H7    H     H_    0.250047 0.115201 0.918335 0.387671
H8    H     H_    0.550053 0.175107 0.992852 0.327729
H9    H     H_    0.431123 0.886895 0.962263 0.162573
H10   H     H_    0.404590 0.790324 0.745000 0.182366
H11   H     H_    0.496314 0.890837 0.284743 0.210236
H12   H     H_    0.385750 0.331586 0.249288 0.217218
H13   H     H_    0.386099 0.331217 0.755561 0.243026
H14   H     H_    0.593955 0.641996 0.870323 0.186846
H15   H     H_    0.941810 0.309880 0.613999 0.172398
H16   H     H_    0.948306 0.503394 0.266748 0.173261
N1    N     N_R   0.499210 0.498800 0.142780 -0.125576
N2    N     N_R   0.499180 0.498720 0.857170 -0.126838
O1    O     O_R   0.500000 0.316780 0.614690 -0.649089
O2    O     O_3   0.284140 0.171070 0.857266 -0.758960
O3    O     O_3   0.518508 0.094052 0.004410 -0.784132
O4    O     O_R   0.499990 0.316750 0.385360 -0.640837
O5    O     O_R   0.376780 0.500000 0.614650 -0.633336
O6    O     O_R   0.376770 0.499980 0.385310 -0.633557
O7    O     O_R   0.500010 0.683250 0.614640 -0.625989
O8    O     O_R   0.500000 0.683220 0.385310 -0.583292
O9    O     O_R   0.623230 0.500020 0.614690 -0.613147
O10   O     O_R   0.623220 0.500000 0.385350 -0.568399
O11   O     O_3   0.281462 0.166894 0.143371 -0.771782
Zn1   Zn    Zn3+2 0.500010 0.500020 0.653130 0.944404
Zn2   Zn    Zn3+2 0.499990 0.499980 0.346870 0.988815

loop_
_geom_bond_atom_site_label_1
_geom_bond_atom_site_label_2
_ccdc_geom_bond_type
C2    O3    S    
C23   C29   S    
H6    O11   S    
C9    C10   A    
C29   C31   S    
C16   O7    A    
C12   C32   S    
C6    C11   A    
N2    Zn1   S    
C30   H2    S    
C12   C25   S    
C22   O9    A    
C5    H10   S    
C7    C8    A    
C27   C33   T    
C17   C18   A    
H8    O3    S    
C30   C31   S    
C23   C30   S    
C2    C34   A    
C24   C25   S    
O9    Zn1   S    
C26   C32   T    
Br1   C20   S    
C22   O10   A    
C1    C8    S    
C24   H15   S    
C25   C31   S    
C31   H16   S    
C19   N1    A    
C10   C11   A    
C15   O2    S    
C34   H5    S    
C1    O1    A    
C13   H12   S    
C25   H1    S    
C10   H11   S    
O8    Zn2   S    
C18   N2    A    
C15   C17   A    
C12   C28   S    
C28   H3    S    
C24   C28   S    
C20   N1    A    
C7    C34   A    
O5    Zn1   S    
C9    H4    S    
N1    Zn2   S    
C4    C26   S    
C29   C33   S    
C5    C6    A    
O10   Zn2   S    
O7    Zn1   S    
C13   C14   A    
C1    O4    A    
C4    O6    A    
H7    O2    S    
C13   C19   A    
O1    Zn1   S    
O4    Zn2   S    
C18   C19   A    
C21   N2    A    
C11   C16   S    
C8    C9    A    
C23   C28   S    
C3    C5    A    
C17   H13   S    
C22   C27   S    
C14   C15   A    
C21   H14   S    
C14   O11   S    
C6    C7    A    
C24   C29   S    
C20   C21   A    
C3    H9    S    
C4    O5    A    
C16   O8    A    
Br2   C23   S    
O6    Zn2   S    
C12   C30   S    
C2    C3    A    
