data_mof_unit_11336.cif
_audit_creation_date              2012-12-10T17:14:23-0500
_audit_creation_method            fapswitch 2.2
_symmetry_space_group_name_H-M    P1
_symmetry_Int_Tables_number       1
_space_group_crystal_system       triclinic
_cell_length_a                    15.035925
_cell_length_b                    14.922122
_cell_length_c                    10.231309
_cell_angle_alpha                 90.691362
_cell_angle_beta                  84.799007
_cell_angle_gamma                 91.734416
_cell_volume                      2284.97851988

loop_
_atom_site_label
_atom_site_type_symbol
_atom_type_description
_atom_site_fract_x
_atom_site_fract_y
_atom_site_fract_z
_atom_type_partial_charge
C1    C     C_R   0.383871 0.117439 0.553494 0.875551
C2    C     C_2   0.509290 0.021012 0.071131 0.258498
C3    C     C_2   0.988139 0.511886 0.927857 0.261449
C4    C     C_2   0.009294 0.521006 0.071135 0.258567
C5    C     C_2   0.311658 0.814535 0.577642 -0.077751
C6    C     C_2   0.665596 0.206807 0.438413 -0.104497
C7    C     C_2   0.671206 0.804999 0.426061 -0.136863
C8    C     C_2   0.308674 0.176422 0.582602 -0.104571
C9    C     C_2   0.811652 0.314539 0.577650 -0.077777
C10   C     C_2   0.165566 0.706834 0.438429 -0.104554
C11   C     C_2   0.171200 0.304989 0.426061 -0.136867
C12   C     C_R   0.611102 0.878219 0.448625 0.862811
C13   C     C_2   0.808681 0.676430 0.582599 -0.104572
C14   C     C_2   0.228136 0.836397 0.552324 0.107973
C15   C     C_2   0.659531 0.266023 0.540293 0.153740
C16   C     C_2   0.673382 0.741588 0.519257 0.116218
C17   C     C_2   0.240966 0.174667 0.503675 0.185898
C18   C     C_2   0.728138 0.336399 0.552279 0.108016
C19   C     C_2   0.159531 0.766019 0.540356 0.153777
C20   C     C_2   0.173373 0.241575 0.519256 0.116211
C21   C     C_2   0.740973 0.674682 0.503673 0.185930
C22   C     C_3   0.306151 0.963154 0.186577 -0.206622
C23   C     C_R   0.611162 0.124077 0.450531 0.886624
C24   C     C_3   0.696366 0.019298 0.789799 -0.156785
C25   C     C_3   0.806169 0.463089 0.186643 -0.206752
C26   C     C_3   0.196373 0.519242 0.789846 -0.156918
C27   C     C_R   0.385485 0.879197 0.551687 0.837326
C28   C     C_R   0.883872 0.617440 0.553493 0.875526
C29   C     C_R   0.111100 0.378216 0.448625 0.862826
C30   C     C_R   0.111151 0.624087 0.450537 0.886625
C31   C     C_R   0.885486 0.379194 0.551687 0.837324
C32   C     C_2   0.488136 0.011879 0.927853 0.261450
H1    H     H_    0.301776 0.971749 0.293809 0.217015
H2    H     H_    0.207085 0.490329 0.689890 0.198430
H3    H     H_    0.259673 0.512798 0.836309 0.131562
H4    H     H_    0.183141 0.592171 0.786322 0.147779
H5    H     H_    0.611019 0.254872 0.730546 0.183069
H6    H     H_    0.552638 0.322264 0.640450 0.177121
H7    H     H_    0.250467 0.973775 0.565357 0.185137
H8    H     H_    0.184298 0.936659 0.448653 0.177841
H9    H     H_    0.166727 0.085613 0.406373 0.165931
H10   H     H_    0.247586 0.139311 0.311032 0.204400
H11   H     H_    0.620884 0.783324 0.700592 0.252375
H12   H     H_    0.255970 0.910672 0.163422 0.155577
H13   H     H_    0.544280 0.738267 0.602113 0.166188
H14   H     H_    0.111118 0.754730 0.730655 0.183063
H15   H     H_    0.052695 0.822218 0.640773 0.177120
H16   H     H_    0.750459 0.473775 0.565316 0.185133
H17   H     H_    0.684415 0.436642 0.448458 0.177809
H18   H     H_    0.666727 0.585595 0.406447 0.165969
H19   H     H_    0.747532 0.639321 0.311026 0.204393
H20   H     H_    0.120888 0.283322 0.700591 0.252399
H21   H     H_    0.044276 0.238266 0.602128 0.166187
H22   H     H_    0.772060 0.165618 0.321239 0.177260
H23   H     H_    0.288938 0.026503 0.140133 0.111265
H24   H     H_    0.695403 0.219306 0.243177 0.190583
H25   H     H_    0.376720 0.699350 0.539158 0.173218
H26   H     H_    0.361179 0.727408 0.699725 0.184276
H27   H     H_    0.312048 0.201767 0.776594 0.199384
H28   H     H_    0.367870 0.278263 0.677398 0.179402
H29   H     H_    0.696150 0.804093 0.228504 0.202773
H30   H     H_    0.770006 0.866007 0.309162 0.177683
H31   H     H_    0.271967 0.665716 0.321046 0.177302
H32   H     H_    0.195240 0.719449 0.243184 0.190591
H33   H     H_    0.876706 0.199349 0.539256 0.173213
H34   H     H_    0.707116 0.990298 0.689884 0.198378
H35   H     H_    0.861144 0.227445 0.699796 0.184302
H36   H     H_    0.812062 0.701773 0.776578 0.199394
H37   H     H_    0.867883 0.778262 0.677385 0.179409
H38   H     H_    0.196137 0.304084 0.228504 0.202780
H39   H     H_    0.270004 0.365986 0.309158 0.177691
H40   H     H_    0.642267 0.019918 0.090832 0.217084
H41   H     H_    0.605971 0.117875 0.033681 0.145569
H42   H     H_    0.358137 0.973666 0.915941 0.213444
H43   H     H_    0.375888 0.084895 0.949406 0.136427
H44   H     H_    0.142270 0.519890 0.090791 0.217083
H45   H     H_    0.759668 0.012955 0.836321 0.131529
H46   H     H_    0.105975 0.617866 0.033723 0.145503
H47   H     H_    0.858141 0.473690 0.915937 0.213442
H48   H     H_    0.875900 0.584910 0.949441 0.136433
H49   H     H_    0.683073 0.092220 0.786138 0.147911
H50   H     H_    0.801893 0.471920 0.293831 0.217059
H51   H     H_    0.756038 0.410468 0.163842 0.155753
H52   H     H_    0.788809 0.526295 0.139965 0.111268
N1    N     N_2   0.549450 1.000000 0.831550 0.080659
N2    N     N_3   0.700437 0.427304 0.544333 -0.480266
N3    N     N_3   0.733279 0.608640 0.401901 -0.489302
N4    N     N_3   0.108720 0.233295 0.631631 -0.452167
N5    N     N_3   0.729882 0.220220 0.327433 -0.455114
N6    N     N_3   0.330560 0.724524 0.611978 -0.482644
N7    N     N_3   0.309327 0.238571 0.690840 -0.459083
N8    N     N_3   0.733007 0.805508 0.310412 -0.481492
N9    N     N_3   0.229781 0.720312 0.327377 -0.455084
N10   N     N_3   0.830541 0.224540 0.612046 -0.482673
N11   N     N_3   0.809340 0.738578 0.690831 -0.459099
N12   N     N_2   0.450550 1.000000 0.168450 0.078240
N13   N     N_3   0.232997 0.305492 0.310409 -0.481509
N14   N     N_3   0.590923 0.065776 0.100203 -0.435121
N15   N     N_3   0.399863 0.029717 0.894626 -0.426526
N16   N     N_3   0.090932 0.565749 0.100212 -0.435114
N17   N     N_3   0.899870 0.529741 0.894637 -0.426540
N18   N     N_2   0.049450 0.500000 0.831550 0.080674
N19   N     N_2   0.950550 0.500000 0.168450 0.078200
N20   N     N_3   0.585464 0.261468 0.639556 -0.449576
N21   N     N_3   0.200423 0.927305 0.544469 -0.480267
N22   N     N_3   0.233285 0.108627 0.401894 -0.489243
N23   N     N_3   0.608723 0.733300 0.631624 -0.452183
N24   N     N_3   0.085511 0.761413 0.639715 -0.449522
O1    O     O_R   0.398960 0.091100 0.433300 -0.604871
O2    O     O_R   0.569290 0.908910 0.353790 -0.588123
O3    O     O_R   0.569290 0.091090 0.353790 -0.598949
O4    O     O_R   0.430710 0.908910 0.646210 -0.603048
O5    O     O_R   0.930710 0.591090 0.646210 -0.596368
O6    O     O_R   0.069290 0.408910 0.353790 -0.588096
O7    O     O_R   0.069290 0.591090 0.353790 -0.598947
O8    O     O_R   0.930710 0.408910 0.646210 -0.603041
O9    O     O_3   0.391115 0.935583 0.137156 -0.547952
O10   O     O_3   0.628411 0.971905 0.865845 -0.583166
O11   O     O_3   0.891132 0.435573 0.137149 -0.547962
O12   O     O_R   0.601040 0.908900 0.566700 -0.617669
O13   O     O_3   0.128391 0.471850 0.865835 -0.583118
O14   O     O_R   0.601040 0.091100 0.566700 -0.608423
O15   O     O_R   0.398960 0.908900 0.433300 -0.580970
O16   O     O_R   0.898960 0.591100 0.433300 -0.604936
O17   O     O_R   0.101040 0.408900 0.566700 -0.617651
O18   O     O_R   0.101040 0.591100 0.566700 -0.608385
O19   O     O_R   0.898960 0.408900 0.433300 -0.581001
O20   O     O_R   0.430710 0.091090 0.646210 -0.596373
Zn1   Zn    Zn3+2 0.478810 0.000000 0.357840 0.988409
Zn2   Zn    Zn3+2 0.521190 0.000000 0.642160 0.963639
Zn3   Zn    Zn3+2 0.978810 0.500000 0.357840 0.988369
Zn4   Zn    Zn3+2 0.021190 0.500000 0.642160 0.963666

loop_
_geom_bond_atom_site_label_1
_geom_bond_atom_site_label_2
_ccdc_geom_bond_type
C15   C18   S    
C29   O6    A    
C30   O18   A    
C16   C21   S    
O5    Zn4   S    
C29   O17   A    
C22   O9    S    
C1    C8    S    
O6    Zn3   S    
C7    C16   D    
C1    O20   A    
C31   O19   A    
C21   N3    S    
H40   N14   S    
H39   N13   S    
C18   N2    S    
C13   N11   S    
O12   Zn2   S    
N18   Zn4   S    
H32   N9    S    
O7    Zn3   S    
C32   N1    D    
C4    N19   D    
C17   C20   S    
O2    Zn1   S    
C2    C32   S    
H6    N20   S    
C16   N23   S    
C1    O1    A    
C6    C15   D    
C12   O12   A    
C26   H2    S    
C14   N21   S    
C22   H12   S    
C28   O16   A    
H14   N24   S    
C25   H52   S    
C13   C28   S    
C26   O13   S    
C15   N20   S    
N18   O13   S    
C5    N6    S    
H29   N8    S    
C24   H34   S    
C19   N24   S    
C3    N17   S    
C5    C27   S    
O15   Zn1   S    
H41   N14   S    
C25   O11   S    
C12   O2    A    
O3    Zn1   S    
C23   O14   A    
C30   O7    A    
C7    C12   S    
C11   C20   D    
H36   N11   S    
H9    N22   S    
N12   O9    S    
H20   N4    S    
H22   N5    S    
H25   N6    S    
H19   N3    S    
C26   H3    S    
C27   O15   A    
C14   C19   S    
H11   N23   S    
C10   N9    S    
O16   Zn3   S    
H30   N8    S    
C24   H49   S    
N1    Zn2   S    
H35   N10   S    
H26   N6    S    
C10   C30   S    
O8    Zn4   S    
O18   Zn4   S    
C10   C19   D    
N12   Zn1   S    
H43   N15   S    
C13   C21   D    
C8    N7    S    
H27   N7    S    
H10   N22   S    
C11   C29   S    
C5    C14   D    
H42   N15   S    
H18   N3    S    
C3    N18   D    
C26   H4    S    
H33   N10   S    
C27   O4    A    
C4    N16   S    
H46   N16   S    
C25   H50   S    
H16   N2    S    
C3    C4    S    
C31   O8    A    
H28   N7    S    
H7    N21   S    
C22   H1    S    
H24   N5    S    
H17   N2    S    
N19   O11   S    
H37   N11   S    
O20   Zn2   S    
H5    N20   S    
H38   N13   S    
C22   H23   S    
H44   N16   S    
C6    N5    S    
C23   O3    A    
H31   N9    S    
C24   O10   S    
C8    C17   D    
C32   N15   S    
H48   N17   S    
C11   N13   S    
C2    N12   D    
C17   N22   S    
O1    Zn1   S    
O17   Zn4   S    
C9    C18   D    
C6    C23   S    
C20   N4    S    
H21   N4    S    
N1    O10   S    
O19   Zn3   S    
C28   O5    A    
C9    C31   S    
C24   H45   S    
C2    N14   S    
H15   N24   S    
C7    N8    S    
C25   H51   S    
H47   N17   S    
O4    Zn2   S    
N19   Zn3   S    
C9    N10   S    
O14   Zn2   S    
H13   N23   S    
H8    N21   S    
