data_mof_unit_17076.cif
_audit_creation_date              2012-12-10T18:52:58-0500
_audit_creation_method            fapswitch 2.2
_symmetry_space_group_name_H-M    P1
_symmetry_Int_Tables_number       1
_space_group_crystal_system       triclinic
_cell_length_a                    9.841834
_cell_length_b                    10.68045
_cell_length_c                    16.620125
_cell_angle_alpha                 90.561665
_cell_angle_beta                  86.470081
_cell_angle_gamma                 91.215432
_cell_volume                      1743.25801599

loop_
_atom_site_label
_atom_site_type_symbol
_atom_type_description
_atom_site_fract_x
_atom_site_fract_y
_atom_site_fract_z
_atom_type_partial_charge
C1    C     C_R   0.501479 0.740081 0.499308 0.916990
C2    C     C_R   0.498541 0.260156 0.500543 0.942406
C3    C     C_R   0.610479 0.939953 0.459579 0.479550
C4    C     C_R   0.391862 0.061078 0.543217 0.499326
C5    C     C_R   0.604043 0.068267 0.458562 -0.345805
C6    C     C_R   0.395193 0.932573 0.541786 -0.368611
C7    C     C_R   0.496828 0.127972 0.500806 -0.174022
C8    C     C_R   0.503651 0.872702 0.500356 -0.189558
C9    C     C_R   0.929631 0.407893 0.460923 -0.297589
C10   C     C_R   0.070147 0.590674 0.540542 -0.291943
C11   C     C_R   0.074045 0.405573 0.462595 0.520888
C12   C     C_R   0.925210 0.589448 0.542293 0.465966
C13   C     C_R   0.482733 0.494695 0.653057 0.911191
C14   C     C_R   0.517111 0.495613 0.346319 0.916788
C15   C     C_R   0.474601 0.461660 0.737601 -0.273413
C16   C     C_R   0.524821 0.461620 0.260753 -0.282926
C17   C     C_R   0.549201 0.358645 0.762062 0.410682
C18   C     C_R   0.429707 0.373901 0.231588 0.431740
C19   C     C_R   0.528186 0.316789 0.841210 -0.284347
C20   C     C_R   0.454698 0.320845 0.155371 -0.280000
C21   C     C_R   0.442256 0.381563 0.896175 0.055972
C22   C     C_R   0.560461 0.367153 0.103745 0.057648
C23   C     C_R   0.369290 0.483957 0.871733 -0.261659
C24   C     C_R   0.652138 0.457117 0.131165 -0.260224
C25   C     C_R   0.387454 0.526838 0.792963 0.426771
C26   C     C_R   0.634185 0.505760 0.209225 0.400915
C27   C     C_2   0.440553 0.353564 0.981649 -0.182034
C28   C     C_2   0.558349 0.342570 0.017370 -0.185190
H1    H     H_    0.654692 0.343702 0.981606 0.150752
H2    H     H_    0.346202 0.369271 0.017550 0.146510
H3    H     H_    0.303565 0.534577 0.914868 0.155016
H4    H     H_    0.732554 0.495408 0.090561 0.156128
H5    H     H_    0.386196 0.248551 0.134351 0.151424
H6    H     H_    0.578046 0.233924 0.860541 0.151099
H7    H     H_    0.680734 0.121411 0.423079 0.172434
H8    H     H_    0.313225 0.879801 0.573217 0.175759
H9    H     H_    0.875378 0.334992 0.429607 0.143894
H10   H     H_    0.124288 0.662454 0.572914 0.163423
N1    N     N_R   0.142790 0.500030 0.500020 -0.105135
N2    N     N_R   0.857210 0.499970 0.499980 -0.092479
O1    O     O_R   0.385380 0.683250 0.500010 -0.647384
O2    O     O_R   0.614620 0.316750 0.499990 -0.634998
O3    O     O_R   0.614710 0.683220 0.500000 -0.554465
O4    O     O_R   0.385290 0.316780 0.500000 -0.518557
O5    O     O_R   0.371780 0.500040 0.615800 -0.608847
O6    O     O_R   0.628220 0.499960 0.384200 -0.587765
O7    O     O_R   0.601110 0.500010 0.615800 -0.567538
O8    O     O_R   0.398890 0.499990 0.384200 -0.577566
Zn1   Zn    Zn3+2 0.346870 0.500020 0.500000 1.009092
Zn2   Zn    Zn3+2 0.653130 0.499980 0.500000 1.007914
O9    O     O_3   0.631282 0.293580 0.705487 -0.651387
C29   C     C_3   0.766656 0.284057 0.729473 0.097794
H11   H     H_    0.822340 0.224835 0.683633 0.167149
H12   H     H_    0.771804 0.234516 0.787579 0.118059
C30   C     C_3   0.840458 0.412245 0.732231 -0.357969
H13   H     H_    0.831941 0.459949 0.674128 0.274278
H14   H     H_    0.792560 0.471419 0.781017 0.209703
C31   C     C_3   0.990881 0.399233 0.746922 -0.942738
H15   H     H_    0.002065 0.352267 0.805359 0.261526
H16   H     H_    0.040429 0.493499 0.749002 0.294336
H17   H     H_    0.042798 0.344443 0.697371 0.272558
O10   O     O_3   0.316103 0.335607 0.279228 -0.586124
C32   C     C_3   0.195367 0.372271 0.243917 0.148833
H18   H     H_    0.109057 0.317068 0.272547 0.158008
H19   H     H_    0.194749 0.349600 0.178455 0.091311
C33   C     C_3   0.168701 0.512131 0.258053 -0.403677
H20   H     H_    0.171381 0.535178 0.323123 0.256653
H21   H     H_    0.248673 0.569269 0.224511 0.199312
C34   C     C_3   0.029986 0.546833 0.230283 -0.890197
H22   H     H_    0.023939 0.526666 0.164890 0.256825
H23   H     H_    0.013907 0.648271 0.241150 0.267516
H24   H     H_    0.948682 0.492848 0.264879 0.295418
O11   O     O_3   0.721921 0.599508 0.233322 -0.637720
C35   C     C_3   0.661931 0.716757 0.222305 0.099991
H25   H     H_    0.588231 0.736461 0.274159 0.153424
H26   H     H_    0.607955 0.720465 0.165165 0.113931
C36   C     C_3   0.773645 0.818320 0.218408 -0.298539
H27   H     H_    0.832940 0.813184 0.272864 0.250297
H28   H     H_    0.844199 0.801531 0.164743 0.202542
C37   C     C_3   0.714567 0.948809 0.212978 -0.930594
H29   H     H_    0.659465 0.957028 0.156976 0.254673
H30   H     H_    0.798319 0.020203 0.211872 0.252998
H31   H     H_    0.643290 0.967867 0.265883 0.291526
O12   O     O_3   0.317360 0.630999 0.770720 -0.645145
C38   C     C_3   0.408544 0.734915 0.759316 0.089298
H32   H     H_    0.369897 0.794502 0.711704 0.148278
H33   H     H_    0.513749 0.708883 0.737488 0.123760
C39   C     C_3   0.413736 0.812833 0.836950 -0.352764
H34   H     H_    0.312485 0.854297 0.851653 0.228630
H35   H     H_    0.438399 0.751955 0.887644 0.219607
C40   C     C_3   0.521808 0.917328 0.827993 -0.975953
H36   H     H_    0.624829 0.876900 0.819576 0.268175
H37   H     H_    0.517913 0.976918 0.883180 0.262671
H38   H     H_    0.504035 0.976596 0.775324 0.267413
O13   O     O_3   0.710953 0.880693 0.412404 -0.656428
C41   C     C_3   0.833175 0.878350 0.453067 0.159682
H39   H     H_    0.876406 0.784228 0.442039 0.190765
H40   H     H_    0.818283 0.891114 0.519803 0.148623
C42   C     C_3   0.937290 0.975593 0.418862 -0.462536
H41   H     H_    0.945545 0.969256 0.352022 0.235571
H42   H     H_    0.904310 0.071127 0.436652 0.214193
C43   C     C_3   0.077305 0.954761 0.450688 -0.877905
H43   H     H_    0.072063 0.963646 0.517457 0.277876
H44   H     H_    0.151408 0.025649 0.425022 0.294401
H45   H     H_    0.114349 0.860240 0.433034 0.253325
O14   O     O_3   0.281876 0.119705 0.581951 -0.628053
C44   C     C_3   0.311252 0.152180 0.661918 0.093482
H46   H     H_    0.305851 0.255572 0.668049 0.181835
H47   H     H_    0.414436 0.124960 0.679302 0.135782
C45   C     C_3   0.203544 0.092269 0.720462 -0.370066
H48   H     H_    0.100409 0.116243 0.702441 0.230439
H49   H     H_    0.212642 0.988766 0.717744 0.214980
C46   C     C_3   0.219575 0.137564 0.806815 -0.956878
H50   H     H_    0.319268 0.109782 0.827725 0.281097
H51   H     H_    0.137522 0.095350 0.847324 0.259886
H52   H     H_    0.212949 0.241043 0.810681 0.274971
O15   O     O_3   0.146974 0.308356 0.428035 -0.689428
H53   H     H_    0.082419 0.244996 0.407525 0.301679
O16   O     O_3   0.850535 0.674980 0.588006 -0.780350
H54   H     H_    0.913952 0.731101 0.616223 0.301152

loop_
_geom_bond_atom_site_label_1
_geom_bond_atom_site_label_2
_ccdc_geom_bond_type
O4    Zn1   S    
C33   H21   S    
C30   H13   S    
C32   H19   S    
C1    C8    S    
O11   C35   S    
O13   C41   S    
C17   O9    S    
C14   O6    A    
C36   H27   S    
C35   H26   S    
C28   H1    S    
C19   C21   A    
C24   C26   A    
C4    C7    A    
C15   C25   A    
C33   C34   S    
O14   C44   S    
C31   H16   S    
C41   C42   S    
C26   O11   S    
C43   H45   S    
C34   H23   S    
C45   H48   S    
C1    O3    A    
C2    C7    S    
C2    O4    A    
C35   C36   S    
C41   H40   S    
C25   O12   S    
C44   H46   S    
C18   C20   A    
C29   C30   S    
C46   H52   S    
C31   H17   S    
C36   H28   S    
C33   H20   S    
C21   C27   S    
C32   C33   S    
C22   C28   S    
C27   H2    S    
C44   H47   S    
C34   H22   S    
C37   H31   S    
O1    Zn1   S    
C29   H12   S    
O7    Zn2   S    
C38   H33   S    
C16   C26   A    
C35   H25   S    
O9    C29   S    
O12   C38   S    
C37   H30   S    
C3    C8    A    
C40   H36   S    
C5    C7    A    
C18   O10   S    
C14   O8    A    
C31   H15   S    
C38   H32   S    
C4    O14   S    
C9    N2    A    
C10   N1    A    
C23   H3    S    
C12   N2    A    
C34   H24   S    
C43   H44   S    
C24   H4    S    
O10   C32   S    
C40   H37   S    
C12   O16   S    
C42   H41   S    
C39   C40   S    
O5    Zn1   S    
C41   H39   S    
C9    H9    S    
C30   H14   S    
C11   N1    A    
C9    C11   A    
C45   C46   S    
C10   C12   A    
O2    Zn2   S    
C20   H5    S    
C1    O1    A    
O8    Zn1   S    
N1    Zn1   S    
C39   H35   S    
C21   C23   A    
C44   C45   S    
C22   C24   A    
C4    C6    A    
C11   O15   S    
C29   H11   S    
C13   O7    A    
C46   H50   S    
C38   C39   S    
C15   C17   A    
C42   H42   S    
C20   C22   A    
C37   H29   S    
C3    C5    A    
C19   H6    S    
C6    C8    A    
O16   H54   S    
O3    Zn2   S    
O6    Zn2   S    
C10   H10   S    
C13   C15   S    
O15   H53   S    
C40   H38   S    
C13   O5    A    
C36   C37   S    
C2    O2    A    
N2    Zn2   S    
C5    H7    S    
C17   C19   A    
C6    H8    S    
C14   C16   S    
C23   C25   A    
C43   H43   S    
C45   H49   S    
C32   H18   S    
C42   C43   S    
C39   H34   S    
C16   C18   A    
C30   C31   S    
C27   C28   D    
C3    O13   S    
C46   H51   S    
