data_mof_unit_43802.cif
_audit_creation_date              2012-12-10T17:55:04-0500
_audit_creation_method            fapswitch 2.2
_symmetry_space_group_name_H-M    P1
_symmetry_Int_Tables_number       1
_space_group_crystal_system       triclinic
_cell_length_a                    8.734775
_cell_length_b                    10.858579
_cell_length_c                    9.543293
_cell_angle_alpha                 89.283231
_cell_angle_beta                  97.934713
_cell_angle_gamma                 91.009419
_cell_volume                      896.303557125

loop_
_atom_site_label
_atom_site_type_symbol
_atom_type_description
_atom_site_fract_x
_atom_site_fract_y
_atom_site_fract_z
_atom_type_partial_charge
C1    C     C_R   0.499594 0.262593 0.500778 0.881542
C2    C     C_R   0.497079 0.737872 0.498601 0.884875
C3    C     C_R   0.203800 0.499615 0.463759 0.876433
C4    C     C_R   0.796193 0.499735 0.536247 0.880110
C5    C     C_2   0.037916 0.499326 0.443856 -0.376997
C6    C     C_2   0.962064 0.498826 0.556152 -0.374128
C7    C     C_R   0.582680 0.068077 0.408498 0.152595
C8    C     C_R   0.408242 0.933725 0.588948 0.142890
C9    C     C_R   0.572956 0.939552 0.400003 0.151798
C10   C     C_R   0.410264 0.062921 0.591045 0.161176
C11   C     C_R   0.492400 0.872320 0.495430 -0.187733
C12   C     C_R   0.498958 0.128911 0.501832 -0.181349
C13   C     C_R   0.398138 0.426423 0.062063 0.370222
C14   C     C_R   0.605108 0.570615 0.938266 0.352479
C15   C     C_R   0.399062 0.426829 0.913169 -0.151776
C16   C     C_R   0.603619 0.570687 0.087147 -0.154690
Cu1   Cu    Cu3+1 0.500000 0.500020 0.640660 0.966188
Cu2   Cu    Cu3+1 0.500000 0.499980 0.359340 0.969182
H1    H     H_    0.977936 0.499945 0.336161 0.171796
H2    H     H_    0.022057 0.497871 0.663836 0.172377
H3    H     H_    0.319903 0.367485 0.846780 0.162681
H4    H     H_    0.686446 0.626578 0.154258 0.169319
N1    N     N_R   0.500040 0.500030 0.852080 -0.190572
N2    N     N_R   0.499960 0.499970 0.147920 -0.185990
O1    O     O_R   0.499990 0.319660 0.618740 -0.568421
O2    O     O_R   0.500010 0.680340 0.381260 -0.571316
O3    O     O_R   0.499990 0.319630 0.381170 -0.544064
O4    O     O_R   0.500010 0.680370 0.618830 -0.550590
O5    O     O_R   0.274840 0.500010 0.591370 -0.580495
O6    O     O_R   0.725160 0.499990 0.408630 -0.578314
O7    O     O_R   0.274830 0.499980 0.353800 -0.567378
O8    O     O_R   0.725170 0.500020 0.646200 -0.559848
N3    N     N_2   0.676997 0.137582 0.324002 -0.402667
H5    H     H_    0.677777 0.107852 0.222203 0.257246
C17   C     C_3   0.829925 0.168120 0.394222 -0.697486
H6    H     H_    0.900264 0.083691 0.409297 0.205796
H7    H     H_    0.824011 0.211211 0.498296 0.225642
H8    H     H_    0.886848 0.234745 0.328049 0.229106
N4    N     N_2   0.308433 0.865256 0.668626 -0.408280
H9    H     H_    0.193466 0.888197 0.648572 0.248385
C18   C     C_3   0.364058 0.844707 0.817059 -0.668139
H10   H     H_    0.290680 0.893628 0.883947 0.193610
H11   H     H_    0.485595 0.877323 0.844556 0.213929
H12   H     H_    0.356909 0.744877 0.841649 0.249478
N5    N     N_2   0.645459 0.877961 0.296520 -0.406346
H13   H     H_    0.757585 0.906914 0.291326 0.248862
C19   C     C_3   0.552236 0.872470 0.158700 -0.699422
H14   H     H_    0.621107 0.833204 0.081714 0.199632
H15   H     H_    0.514532 0.965326 0.119861 0.203307
H16   H     H_    0.447609 0.813832 0.162885 0.257142
N6    N     N_2   0.325217 0.127474 0.683565 -0.407564
H17   H     H_    0.326208 0.089233 0.782877 0.260776
C20   C     C_3   0.173658 0.166984 0.620995 -0.700811
H18   H     H_    0.094183 0.086297 0.603619 0.209268
H19   H     H_    0.179368 0.216083 0.518955 0.230013
H20   H     H_    0.126807 0.230918 0.693764 0.218820
N7    N     N_2   0.297501 0.344053 0.123176 -0.371200
H21   H     H_    0.323986 0.253056 0.110306 0.231622
C21   C     C_3   0.134466 0.366642 0.083521 -0.731772
H22   H     H_    0.066733 0.307506 0.149023 0.225871
H23   H     H_    0.098050 0.344436 0.970367 0.196759
H24   H     H_    0.108837 0.464375 0.102267 0.243390
N8    N     N_2   0.714355 0.645350 0.877756 -0.370342
H25   H     H_    0.695308 0.738158 0.884918 0.223611
C22   C     C_3   0.874531 0.614920 0.921704 -0.718863
H26   H     H_    0.948798 0.668051 0.856292 0.230230
H27   H     H_    0.892373 0.515237 0.906420 0.241582
H28   H     H_    0.910112 0.638761 0.034490 0.196813

loop_
_geom_bond_atom_site_label_1
_geom_bond_atom_site_label_2
_ccdc_geom_bond_type
C14   N1    A    
C16   H4    S    
N8    C22   S    
C9    N5    S    
Cu2   O6    S    
C8    N4    S    
C9    C11   A    
C18   H10   S    
C16   N2    A    
C20   H19   S    
C17   H6    S    
Cu2   O2    S    
C3    C5    S    
C22   H28   S    
Cu1   O1    S    
C20   H20   S    
C15   N1    A    
N3    H5    S    
C21   H22   S    
C2    O2    A    
Cu1   N1    S    
N5    H13   S    
C3    O7    A    
C18   H11   S    
C3    O5    A    
N7    H21   S    
C4    O8    A    
C1    C12   S    
C10   C12   A    
C6    H2    S    
C8    C11   A    
C5    H1    S    
C2    C11   S    
C4    C6    S    
C17   H7    S    
Cu1   Cu2   S    
C19   H16   S    
C14   N8    S    
C13   C15   A    
C5    C6    D    
C18   H12   S    
C14   C16   A    
C7    C12   A    
C21   H23   S    
N7    C21   S    
C13   N7    S    
C7    N3    S    
N6    H17   S    
C19   H14   S    
C7    C9    A    
C10   N6    S    
C15   H3    S    
C17   H8    S    
Cu1   O5    S    
N4    C18   S    
Cu2   N2    S    
C19   H15   S    
C22   H26   S    
N5    C19   S    
N4    H9    S    
C1    O3    A    
Cu1   O8    S    
C21   H24   S    
C2    O4    A    
Cu2   O7    S    
N3    C17   S    
C20   H18   S    
Cu1   O4    S    
C1    O1    A    
C8    C10   A    
C4    O6    A    
Cu2   O3    S    
C22   H27   S    
C13   N2    A    
N8    H25   S    
N6    C20   S    
