data_mof_unit_53657.cif
_audit_creation_date              2013-03-05T16:44:16-0500
_audit_creation_method            fapswitch 2.2
_symmetry_space_group_name_H-M    P1
_symmetry_Int_Tables_number       1
_space_group_crystal_system       triclinic
_cell_length_a                    23.440557
_cell_length_b                    10.796383
_cell_length_c                    9.911118
_cell_angle_alpha                 89.443027
_cell_angle_beta                  91.426487
_cell_angle_gamma                 90.555299
_cell_volume                      2507.23081925

loop_
_atom_site_label
_atom_site_type_symbol
_atom_site_description
_atom_site_fract_x
_atom_site_fract_y
_atom_site_fract_z
_atom_type_partial_charge
O1    O     O_R   0.500010 0.316790 0.614690 -0.621176
O2    O     O_R   0.500000 0.316760 0.385350 -0.625730
C1    C     C_R   0.498652 0.260861 0.500200 0.881293
O3    O     O_R   0.416160 0.499980 0.614700 -0.614259
O4    O     O_R   0.416150 0.499940 0.385360 -0.611127
C2    C     C_R   0.389651 0.495400 0.498086 0.889064
Zn1   Zn    Zn3+2 0.500000 0.500020 0.653130 0.947055
Zn2   Zn    Zn3+2 0.500000 0.499980 0.346870 0.958379
O5    O     O_R   0.500000 0.683240 0.614650 -0.650308
O6    O     O_R   0.499990 0.683210 0.385310 -0.637355
O7    O     O_R   0.583850 0.500060 0.614640 -0.639182
O8    O     O_R   0.583840 0.500020 0.385300 -0.620034
C3    C     C_R   0.502355 0.739644 0.498692 0.870547
C4    C     C_R   0.610458 0.501498 0.500806 0.846966
C5    C     C_R   0.881641 0.588030 0.459470 0.521967
N1    N     N_R   0.852064 0.478422 0.472510 -0.348702
C6    C     C_R   0.879829 0.367091 0.474799 0.534489
C7    C     C_R   0.939110 0.363445 0.461400 -0.057385
C8    C     C_R   0.970078 0.475224 0.459795 -0.011781
C9    C     C_R   0.941172 0.588876 0.461220 -0.027626
C10   C     C_R   0.967882 0.250698 0.454370 -0.106990
C11   C     C_R   0.027475 0.247081 0.446056 -0.024468
C12   C     C_R   0.059147 0.360401 0.445480 -0.095862
C13   C     C_R   0.029996 0.473764 0.457862 -0.003117
C14   C     C_R   0.060610 0.586443 0.468956 -0.035457
C15   C     C_R   0.031436 0.699127 0.473193 -0.111820
C16   C     C_R   0.972202 0.700528 0.465885 -0.109798
C17   C     C_R   0.118780 0.366912 0.431213 0.561233
N2    N     N_R   0.147847 0.474606 0.459277 -0.334637
C18   C     C_R   0.119938 0.583442 0.478015 0.563351
O9    O     O_2   0.853549 0.696043 0.444195 -0.535051
O10   O     O_2   0.850409 0.260327 0.492536 -0.539874
H1    H     H_    0.943905 0.164412 0.458021 0.224014
O11   O     O_2   0.147651 0.268817 0.386231 -0.533845
O12   O     O_2   0.149609 0.688331 0.505797 -0.520902
H2    H     H_    0.054295 0.786538 0.480581 0.227677
H3    H     H_    0.950869 0.789029 0.467935 0.218541
C19   C     C_R   0.239909 0.552144 0.384695 -0.101994
H4    H     H_    0.218115 0.610425 0.310715 0.186110
C20   C     C_R   0.298610 0.558833 0.397385 -0.177903
H5    H     H_    0.321527 0.623726 0.333980 0.179715
C21   C     C_R   0.327732 0.483279 0.490776 -0.163554
C22   C     C_R   0.297874 0.394735 0.569179 -0.174462
C23   C     C_R   0.237523 0.394951 0.562936 0.371246
C24   C     C_R   0.208953 0.473755 0.469247 0.155710
C25   C     C_R   0.755964 0.406410 0.403092 -0.064237
H6    H     H_    0.774005 0.344742 0.330344 0.179881
C26   C     C_R   0.697194 0.411504 0.413457 -0.187899
H7    H     H_    0.670759 0.350572 0.351479 0.170589
C27   C     C_R   0.672514 0.496878 0.499626 -0.127193
C28   C     C_R   0.707408 0.579139 0.575214 -0.051005
C29   C     C_R   0.766504 0.563692 0.574983 -0.052252
H8    H     H_    0.793821 0.622254 0.637475 0.202117
C30   C     C_R   0.791160 0.480968 0.485379 0.224474
C31   C     C_R   0.497247 0.060613 0.614900 0.088987
C32   C     C_R   0.497337 0.130006 0.497811 -0.125987
C33   C     C_R   0.499749 0.068802 0.373853 -0.176363
H9    H     H_    0.500416 0.120920 0.279789 0.198833
C34   C     C_R   0.504243 0.940338 0.369508 -0.034757
C35   C     C_R   0.504543 0.871795 0.493763 -0.198583
C36   C     C_R   0.502413 0.937286 0.613497 0.020062
C37   C     C_3   0.504866 0.927596 0.764799 -0.076702
C38   C     C_3   0.497621 0.069646 0.764716 -0.422138
H10   H     H_    0.455842 0.100709 0.801543 0.218751
H11   H     H_    0.535219 0.122866 0.804285 0.207052
C39   C     C_R   0.450635 0.481624 0.068579 0.201652
N3    N     N_R   0.499610 0.499140 0.142800 -0.134045
C40   C     C_R   0.547264 0.532425 0.075934 -0.092009
H12   H     H_    0.585025 0.559919 0.133524 0.190765
C41   C     C_R   0.547180 0.535477 0.932722 -0.038236
N4    N     N_R   0.499610 0.499180 0.857150 -0.165246
C42   C     C_R   0.450505 0.482426 0.926722 0.174513
C43   C     C_3   0.410954 0.374073 0.920711 -0.427451
C44   C     C_3   0.412166 0.371531 0.074033 -0.444264
H13   H     H_    0.368672 0.401507 0.878442 0.234346
H14   H     H_    0.430380 0.291934 0.874785 0.208252
H15   H     H_    0.370332 0.393651 0.117947 0.220579
H16   H     H_    0.433653 0.288623 0.118250 0.219908
C45   C     C_2   0.683849 0.690751 0.638036 0.500803
H17   H     H_    0.641672 0.722622 0.607968 -0.025190
O13   O     O_2   0.711800 0.750618 0.720594 -0.513771
C46   C     C_2   0.511093 0.885388 0.234204 0.496650
H18   H     H_    0.540966 0.810983 0.219262 0.102197
O14   O     O_2   0.484106 0.925609 0.136605 -0.560696
C47   C     C_2   0.455704 0.854487 0.822563 0.596345
H19   H     H_    0.463871 0.780667 0.895459 0.068286
O15   O     O_2   0.406483 0.876229 0.787269 -0.534276
C48   C     C_2   0.562819 0.889521 0.818530 0.324170
H20   H     H_    0.597370 0.875074 0.749821 0.099284
O16   O     O_2   0.572266 0.879952 0.939792 -0.544545
C49   C     C_2   0.054674 0.123359 0.451747 0.515313
H21   H     H_    0.096295 0.110891 0.499622 0.159238
O17   O     O_2   0.029881 0.032475 0.405881 -0.581025
C50   C     C_2   0.596998 0.590308 0.869218 0.532067
H22   H     H_    0.590566 0.649912 0.782887 0.059156
O18   O     O_2   0.645032 0.574472 0.916390 -0.545291
C51   C     C_2   0.330059 0.299235 0.648792 0.462326
H23   H     H_    0.373906 0.279047 0.625102 0.048691
O19   O     O_2   0.308688 0.242249 0.742012 -0.482266
N5    N     N_R   0.204878 0.316776 0.650677 0.236680
O20   O     O_R   0.169238 0.365852 0.732839 -0.367221
O21   O     O_R   0.204446 0.197265 0.634708 -0.292276

loop_
_geom_bond_atom_site_label_1
_geom_bond_atom_site_label_2
_geom_bond_distance
_ccdc_geom_bond_type
C31   C32   1.375209 A    
C38   H11   1.112669 S    
C7    C10   1.400485 A    
C43   C44   1.519140 S    
C8    C9    1.407785 A    
C34   C46   1.484625 S    
C51   H23   1.084582 S    
C3    C35   1.427589 S    
C4    C27   1.456312 S    
C47   H19   1.085687 S    
C23   C24   1.413964 A    
Zn1   O7    2.011465 S    
C15   C16   1.388795 A    
N2    C18   1.366892 A    
C18   O12   1.350262 S    
C17   N2    1.369307 A    
C41   C50   1.458151 S    
Zn1   N4    2.022246 S    
C19   H4    1.083117 S    
O7    C4    1.302556 A    
C33   C34   1.393119 A    
C10   H1    1.084086 S    
C5    N1    1.372349 A    
C39   C44   1.486361 S    
C32   C33   1.403269 A    
C7    C8    1.402425 A    
O5    C3    1.297538 A    
C19   C24   1.396296 A    
C39   C42   1.405827 A    
C40   H12   1.081868 S    
C44   H15   1.111686 S    
C31   C38   1.488789 S    
C11   C49   1.485651 S    
C41   N4    1.383322 A    
C26   C27   1.401380 A    
C39   N3    1.360606 A    
C17   O11   1.347775 S    
C34   C35   1.430462 A    
C10   C11   1.402311 A    
C43   H13   1.108224 S    
C36   C37   1.501911 S    
O3    Zn1   1.992492 S    
C51   O19   1.220287 D    
C29   C30   1.404050 A    
C27   C28   1.409738 A    
N1    C30   1.437008 S    
C47   O15   1.221559 D    
C5    C9    1.395056 A    
C37   C47   1.511678 S    
C25   C26   1.385635 A    
N3    C40   1.356659 A    
C13   C14   1.410223 A    
O3    C2    1.299674 A    
C49   H21   1.083211 S    
C45   O13   1.221445 D    
N1    C6    1.372128 A    
C14   C15   1.402862 A    
C37   C48   1.506176 S    
C28   C29   1.396899 A    
N2    C24   1.433408 S    
C35   C36   1.389471 A    
O1    C1    1.290105 A    
C22   C23   1.414495 A    
C37   C38   1.544626 S    
C49   O17   1.221335 D    
C1    C32   1.413221 S    
Zn2   O8    1.992489 S    
C25   C30   1.400049 A    
N5    O21   1.301395 A    
C6    C7    1.400157 A    
C12   C17   1.409466 A    
C50   O18   1.221296 D    
C15   H2    1.082904 S    
C26   H7    1.084013 S    
C48   O16   1.220210 D    
C46   O14   1.221124 D    
C2    C21   1.456093 S    
C43   H14   1.107677 S    
C45   H17   1.083771 S    
C21   C22   1.416763 A    
C29   H8    1.083234 S    
C14   C18   1.392003 A    
Zn1   O5    2.010900 S    
C25   H6    1.082557 S    
C20   H5    1.084106 S    
O1    Zn1   2.018210 S    
Zn2   O6    2.018212 S    
O2    Zn2   2.010898 S    
C22   C51   1.491472 S    
O8    C4    1.290239 A    
C42   C43   1.486305 S    
O6    C3    1.283216 A    
O4    Zn2   2.011465 S    
C5    O9    1.350160 S    
C9    C16   1.402387 A    
O2    C1    1.284128 A    
N4    C42   1.366068 A    
C19   C20   1.379837 A    
C23   N5    1.435433 S    
C33   H9    1.084599 S    
O4    C2    1.292040 A    
C16   H3    1.083315 S    
C31   C36   1.338386 A    
C20   C21   1.397424 A    
N5    O20   1.301009 A    
C8    C13   1.405362 A    
C50   H22   1.074096 S    
C28   C45   1.479636 S    
C12   C13   1.415361 A    
C38   H10   1.109638 S    
C48   H20   1.084410 S    
Zn2   N3    2.022463 S    
C40   C41   1.419410 A    
C46   H18   1.084400 S    
C44   H16   1.112235 S    
C6    O10   1.349742 S    
C11   C12   1.424942 A    
