data_mof_unit_9695.cif
_audit_creation_date              2012-12-10T18:02:49-0500
_audit_creation_method            fapswitch 2.2
_symmetry_space_group_name_H-M    P1
_symmetry_Int_Tables_number       1
_space_group_crystal_system       triclinic
_cell_length_a                    10.872357
_cell_length_b                    9.628359
_cell_length_c                    27.791283
_cell_angle_alpha                 90.530625
_cell_angle_beta                  94.306838
_cell_angle_gamma                 89.964715
_cell_volume                      2900.93397621

loop_
_atom_site_label
_atom_site_type_symbol
_atom_type_description
_atom_site_fract_x
_atom_site_fract_y
_atom_site_fract_z
_atom_type_partial_charge
C1    C     C_R   0.262351 0.500047 0.500172 0.812251
C2    C     C_R   0.737650 0.499986 0.499847 0.813319
C3    C     C_R   0.496157 0.445071 0.101860 -0.129767
C4    C     C_R   0.497458 0.484074 0.898852 -0.130491
C5    C     C_R   0.385640 0.469938 0.124470 -0.123267
C6    C     C_R   0.609199 0.468816 0.876141 -0.122965
C7    C     C_R   0.272360 0.471159 0.095467 0.291826
C8    C     C_R   0.721438 0.459234 0.905460 0.294874
C9    C     C_R   0.607090 0.415869 0.129924 -0.086968
C10   C     C_R   0.385832 0.510545 0.870906 -0.086757
C11   C     C_R   0.509292 0.496786 0.354273 -0.145766
C12   C     C_R   0.489152 0.503165 0.645679 -0.149735
C13   C     C_R   0.384942 0.483758 0.972150 0.037456
C14   C     C_R   0.607394 0.436014 0.028467 0.037649
C15   C     C_R   0.609578 0.458336 0.978175 -0.032310
C16   C     C_R   0.383279 0.463259 0.022558 -0.031479
C17   C     C_R   0.497222 0.473311 0.949749 0.060720
C18   C     C_R   0.495687 0.449642 0.050885 0.061557
C19   C     C_R   0.280247 0.531621 0.944462 -0.184636
C20   C     C_R   0.710813 0.385102 0.056201 -0.183839
C21   C     C_R   0.279703 0.545979 0.894699 0.330763
C22   C     C_R   0.711375 0.373038 0.106112 0.330581
C23   C     C_R   0.504023 0.499632 0.407519 0.861552
C24   C     C_R   0.495487 0.501060 0.592464 0.861430
C25   C     C_R   0.272796 0.448157 0.045580 0.087078
C26   C     C_R   0.720583 0.474576 0.955578 0.088007
C27   C     C_R   0.063886 0.374084 0.500504 -0.132020
C28   C     C_R   0.936109 0.626093 0.499613 -0.124800
C29   C     C_R   0.936333 0.374033 0.499912 -0.131988
C30   C     C_R   0.063683 0.626140 0.500134 -0.125384
C31   C     C_R   0.871661 0.500028 0.499703 -0.032173
C32   C     C_R   0.128344 0.500111 0.500355 -0.031999
C33   C     C_R   0.419061 0.073312 0.469128 0.191508
C34   C     C_R   0.580514 0.926504 0.531065 0.232193
C35   C     C_R   0.580850 0.074805 0.530933 0.193917
C36   C     C_R   0.419422 0.925024 0.468956 0.232210
C37   C     C_R   0.393300 0.484028 0.175262 0.624864
C38   C     C_R   0.604325 0.474410 0.825174 0.620708
C39   C     C_R   0.608075 0.428774 0.180460 0.616232
C40   C     C_R   0.385909 0.504734 0.820339 0.619266
C41   C     C_R   0.542146 0.603537 0.276562 0.190951
C42   C     C_R   0.467026 0.622766 0.722768 0.193727
C43   C     C_R   0.545437 0.613096 0.327401 0.217242
C44   C     C_R   0.460189 0.625177 0.671905 0.221823
C45   C     C_R   0.478193 0.372085 0.329616 -0.201999
C46   C     C_R   0.513420 0.379359 0.671062 -0.205315
C47   C     C_R   0.476894 0.363063 0.279784 -0.099656
C48   C     C_R   0.513824 0.376237 0.721024 -0.094342
C49   C     C_R   0.507250 0.478077 0.253099 0.224147
C50   C     C_R   0.492185 0.497162 0.747122 0.218140
Cu1   Cu    Cu3+1 0.500000 0.640660 0.500000 1.057681
Cu2   Cu    Cu3+1 0.500000 0.359340 0.500000 1.021395
H1    H     H_    0.454379 0.280078 0.348763 0.213463
H2    H     H_    0.532079 0.283621 0.652341 0.213709
H3    H     H_    0.451599 0.266031 0.261648 0.182878
H4    H     H_    0.532183 0.279336 0.739710 0.186583
H5    H     H_    0.199272 0.565231 0.961699 0.204696
H6    H     H_    0.790796 0.348522 0.038926 0.204402
H7    H     H_    0.111643 0.275369 0.501075 0.180377
H8    H     H_    0.888313 0.724800 0.499133 0.180109
H9    H     H_    0.888747 0.275279 0.499630 0.180207
H10   H     H_    0.111305 0.724879 0.500356 0.180046
N1    N     N_R   0.503227 0.465323 0.201535 -0.472300
N2    N     N_R   0.494124 0.490986 0.798842 -0.470945
N3    N     N_R   0.500000 0.852070 0.500000 -0.225560
N4    N     N_R   0.500000 0.147930 0.500000 -0.226515
O1    O     O_R   0.319640 0.618740 0.500000 -0.568704
O2    O     O_R   0.680360 0.381260 0.500000 -0.571069
O3    O     O_R   0.680360 0.618740 0.500000 -0.568685
O4    O     O_R   0.319640 0.381260 0.500000 -0.571382
O5    O     O_R   0.500020 0.618770 0.430260 -0.526498
O6    O     O_R   0.499980 0.381230 0.569740 -0.569385
O7    O     O_R   0.499980 0.618770 0.569740 -0.527205
O8    O     O_R   0.500020 0.381230 0.430260 -0.570700
O9    O     O_2   0.293187 0.516821 0.198756 -0.438080
O10   O     O_2   0.707993 0.466687 0.801644 -0.437798
O11   O     O_2   0.279112 0.509889 0.792447 -0.438329
O12   O     O_2   0.712992 0.409883 0.208634 -0.437756
I1    I     I_    0.287830 0.176231 0.420004 -0.260539
I2    I     I_    0.708909 0.822774 0.581329 -0.199648
I3    I     I_    0.711492 0.179964 0.580449 -0.254949
I4    I     I_    0.290743 0.819213 0.418652 -0.200073
Br1   Br    Br    0.113595 0.499159 0.120740 -0.259441
Br2   Br    Br    0.878966 0.419378 0.880776 -0.264879
Br3   Br    Br    0.399697 0.792510 0.640218 -0.405451
Br4   Br    Br    0.608729 0.781412 0.358505 -0.404278
I5    I     I_    0.445550 0.809273 0.763803 -0.132604
I6    I     I_    0.588688 0.776338 0.233855 -0.121571
Br5   Br    Br    0.137097 0.635496 0.863658 -0.261457
Br6   Br    Br    0.853116 0.282727 0.137464 -0.267964
I7    I     I_    0.125818 0.325082 0.011573 -0.165954
I8    I     I_    0.869930 0.590547 0.991172 -0.164165

loop_
_geom_bond_atom_site_label_1
_geom_bond_atom_site_label_2
_ccdc_geom_bond_type
C7    Br1   S    
C49   N1    S    
C5    C37   A    
C27   C29   A    
C50   N2    S    
C14   C18   A    
C35   I3    S    
C47   C49   A    
C38   O10   S    
C19   H5    S    
Cu1   O5    S    
Cu2   O6    S    
C19   C21   A    
C2    O2    A    
C9    C22   A    
C26   I8    S    
C9    C39   A    
C33   C36   A    
C8    C26   A    
C3    C18   A    
C10   C40   A    
C34   C35   A    
Cu1   N3    S    
C45   C47   A    
C34   I2    S    
C36   I4    S    
C6    C38   A    
C11   C43   A    
C2    O3    A    
Cu2   O2    S    
C48   C50   A    
C37   O9    S    
C45   H1    S    
C41   C43   A    
C42   C44   A    
C34   N3    A    
C41   C49   A    
C37   N1    A    
C33   N4    A    
C38   N2    A    
C28   H8    S    
C10   C21   A    
C29   H9    S    
C25   I7    S    
C13   C19   A    
Cu1   Cu2   S    
C39   O12   S    
C14   C20   A    
C4    C6    A    
C5    C7    A    
C36   N3    A    
C33   I1    S    
C15   C26   A    
C6    C8    A    
C35   N4    A    
C1    C32   S    
C2    C31   S    
C3    C9    A    
C23   O5    A    
Cu1   O7    S    
C46   H2    S    
C22   Br6   S    
Cu1   O1    S    
C42   C50   A    
C4    C17   A    
C12   C46   A    
C20   C22   A    
C30   H10   S    
C11   C45   A    
C23   O8    A    
C4    C10   A    
C44   Br3   S    
Cu2   N4    S    
C24   O6    A    
C47   H3    S    
C16   C25   A    
C48   H4    S    
C41   I6    S    
C27   C32   A    
C8    Br2   S    
C43   Br4   S    
C28   C31   A    
C21   Br5   S    
C3    C5    A    
C40   N2    A    
C15   C17   A    
C39   N1    A    
C12   C24   S    
Cu2   O8    S    
C1    O4    A    
C7    C25   A    
C13   C17   A    
C28   C30   A    
C29   C31   A    
C27   H7    S    
C30   C32   A    
C11   C23   S    
C1    O1    A    
C40   O11   S    
C24   O7    A    
Cu2   O4    S    
C46   C48   A    
C16   C18   A    
C13   C16   A    
C14   C15   A    
C12   C44   A    
C42   I5    S    
Cu1   O3    S    
C20   H6    S    
