data_mof_unit_41221.cif
_audit_creation_date              2012-12-10T19:08:32-0500
_audit_creation_method            fapswitch 2.2
_symmetry_space_group_name_H-M    P1
_symmetry_Int_Tables_number       1
_space_group_crystal_system       triclinic
_cell_length_a                    15.977098
_cell_length_b                    10.802136
_cell_length_c                    9.577403
_cell_angle_alpha                 90.482262
_cell_angle_beta                  90.405732
_cell_angle_gamma                 90.625248
_cell_volume                      1652.73369929

loop_
_atom_site_label
_atom_site_type_symbol
_atom_type_description
_atom_site_fract_x
_atom_site_fract_y
_atom_site_fract_z
_atom_type_partial_charge
C1    C     C_R   0.504151 0.262700 0.499485 0.838985
C2    C     C_R   0.045370 0.487387 0.629040 -0.211706
C3    C     C_1   0.822856 0.501139 0.503201 -0.065300
C4    C     C_1   0.176986 0.500405 0.500123 -0.045224
C5    C     C_1   0.252120 0.500013 0.499127 -0.142780
C6    C     C_1   0.747753 0.500586 0.501544 -0.188059
C7    C     C_R   0.482429 0.065019 0.615033 0.065607
C8    C     C_R   0.513748 0.129521 0.500606 -0.099192
C9    C     C_R   0.556237 0.062446 0.394634 0.119784
C10   C     C_R   0.552472 0.932495 0.396789 -0.233739
C11   C     C_R   0.509442 0.870530 0.503101 -0.100497
C12   C     C_R   0.341346 0.499772 0.499590 0.847217
C13   C     C_R   0.480896 0.938008 0.617006 0.118359
C14   C     C_3   0.398315 0.933085 0.689232 -0.485706
C15   C     C_3   0.400277 0.073977 0.688132 0.200820
C16   C     C_R   0.568395 0.541244 0.075041 0.124059
C17   C     C_R   0.436717 0.444330 0.070854 0.447195
C18   C     C_R   0.436561 0.446914 0.923047 -0.079087
C19   C     C_R   0.568298 0.541654 0.928069 0.138326
C20   C     C_3   0.608731 0.667784 0.927005 0.218506
C21   C     C_3   0.609355 0.665436 0.086088 -0.531017
C22   C     C_R   0.501270 0.737481 0.500609 0.814254
C23   C     C_R   0.658615 0.500174 0.500453 0.805130
C24   C     C_R   0.957556 0.487997 0.632695 0.170516
C25   C     C_R   0.912611 0.501992 0.506196 0.131414
C26   C     C_R   0.955298 0.515725 0.379988 -0.223015
C27   C     C_R   0.042459 0.515293 0.378039 -0.169851
C28   C     C_R   0.087417 0.501006 0.502348 0.119593
Cu1   Cu    Cu3+1 0.500000 0.499980 0.640670 0.964781
Cu2   Cu    Cu3+1 0.500000 0.500020 0.359330 0.952404
H1    H     H_    0.081075 0.476731 0.724809 0.139334
H2    H     H_    0.405406 0.118917 0.793001 0.110743
H3    H     H_    0.385084 0.404394 0.865711 0.168786
H4    H     H_    0.672164 0.667799 0.880092 0.133567
H5    H     H_    0.673403 0.660314 0.131557 0.171086
H6    H     H_    0.568322 0.735418 0.135105 0.214711
H7    H     H_    0.921057 0.526429 0.282804 0.146694
H8    H     H_    0.074776 0.525874 0.279690 0.151358
H9    H     H_    0.582477 0.880129 0.314799 0.154696
H10   H     H_    0.348039 0.890536 0.623041 0.205970
H11   H     H_    0.403443 0.894682 0.796109 0.174246
N1    N     N_R   0.500520 0.500930 0.147930 -0.219249
N2    N     N_R   0.500520 0.500890 0.852020 -0.215629
O1    O     O_R   0.500000 0.319640 0.618810 -0.581767
O2    O     O_R   0.500010 0.319680 0.381230 -0.607248
O3    O     O_R   0.380300 0.499950 0.618760 -0.586041
O4    O     O_R   0.380310 0.499990 0.381180 -0.552705
O5    O     O_R   0.499990 0.680320 0.618770 -0.528118
O6    O     O_R   0.500000 0.680360 0.381190 -0.590178
O7    O     O_R   0.619690 0.500010 0.618820 -0.576810
O8    O     O_R   0.619700 0.500050 0.381240 -0.579299
O9    O     O_3   0.370783 0.384070 0.132524 -0.736400
H12   H     H_    0.393182 0.340281 0.214098 0.364702
O10   O     O_3   0.557370 0.761045 0.872598 -0.694755
H13   H     H_    0.500914 0.752889 0.914585 0.328448
C29   C     C_3   0.913663 0.472292 0.771145 -0.411863
C30   C     C_3   0.881097 0.595604 0.826339 -0.825540
H14   H     H_    0.933720 0.662703 0.840491 0.254822
H15   H     H_    0.834287 0.634938 0.753447 0.255429
H16   H     H_    0.850633 0.581206 0.928888 0.231180
H17   H     H_    0.861035 0.404757 0.759834 0.205736
H18   H     H_    0.957256 0.433961 0.850381 0.197797
C31   C     C_3   0.606335 0.123304 0.279875 -0.390305
C32   C     C_3   0.557201 0.124338 0.142508 -0.768092
H19   H     H_    0.544678 0.028171 0.105289 0.248591
H20   H     H_    0.496720 0.172353 0.155901 0.258944
H21   H     H_    0.594113 0.173669 0.061986 0.228784
H22   H     H_    0.626379 0.218737 0.308949 0.208681
H23   H     H_    0.665287 0.071456 0.263872 0.191692
O11   O     O_3   0.338062 0.123270 0.601649 -0.711823
H24   H     H_    0.286638 0.125667 0.658985 0.328049

loop_
_geom_bond_atom_site_label_1
_geom_bond_atom_site_label_2
_ccdc_geom_bond_type
C8    C9    A    
C22   O5    A    
Cu2   O8    S    
C26   H7    S    
O11   H24   S    
C21   H5    S    
C1    O1    A    
C24   C29   S    
Cu1   O5    S    
C9    C10   A    
O10   H13   S    
C11   C22   S    
C23   O8    A    
C19   C20   S    
C14   C15   S    
C7    C13   A    
Cu1   O3    S    
C3    C6    T    
C20   H4    S    
C32   H19   S    
C7    C15   S    
C17   C18   A    
C26   C27   A    
C7    C8    A    
C21   H6    S    
C9    C31   S    
C13   C14   S    
C20   C21   S    
C11   C13   A    
C1    O2    A    
C30   H14   S    
Cu1   Cu2   S    
C14   H11   S    
C12   O4    A    
C6    C23   S    
C17   O9    S    
C12   O3    A    
C4    C28   S    
Cu2   O6    S    
C19   N2    A    
Cu2   N1    S    
Cu1   O7    S    
C16   C19   A    
Cu1   O1    S    
C2    C24   A    
C18   H3    S    
C29   H18   S    
C30   H15   S    
C10   C11   A    
C27   H8    S    
C14   H10   S    
C31   C32   S    
C1    C8    S    
C32   H21   S    
C16   N1    A    
Cu2   O4    S    
C3    C25   S    
C24   C25   A    
C5    C12   S    
C20   O10   S    
C17   N1    A    
C18   N2    A    
C27   C28   A    
C29   C30   S    
C15   O11   S    
C31   H22   S    
C2    H1    S    
C23   O7    A    
C2    C28   A    
C32   H20   S    
Cu2   O2    S    
C25   C26   A    
C29   H17   S    
C16   C21   S    
C10   H9    S    
Cu1   N2    S    
C22   O6    A    
C31   H23   S    
O9    H12   S    
C4    C5    T    
C30   H16   S    
C15   H2    S    
