data_mof_unit_8676.cif
_audit_creation_date              2013-03-05T15:42:16-0500
_audit_creation_method            fapswitch 2.2
_symmetry_space_group_name_H-M    P1
_symmetry_Int_Tables_number       1
_space_group_crystal_system       triclinic
_cell_length_a                    11.667698
_cell_length_b                    11.609443
_cell_length_c                    19.448521
_cell_angle_alpha                 89.809188
_cell_angle_beta                  89.751144
_cell_angle_gamma                 59.574974
_cell_volume                      2271.60759261

loop_
_atom_site_label
_atom_site_type_symbol
_atom_site_description
_atom_site_fract_x
_atom_site_fract_y
_atom_site_fract_z
_atom_type_partial_charge
O1    O     O_R   0.267740 0.231960 0.575440 -0.495137
O2    O     O_R   0.527280 0.186640 0.570530 -0.490964
C1    C     C_R   0.640381 0.117101 0.599081 0.552458
O3    O     O_R   0.728090 0.003450 0.576380 -0.488110
O4    O     O_R   0.682970 0.789190 0.570490 -0.493198
C2    C     C_R   0.612467 0.745604 0.598266 0.544654
O5    O     O_R   0.499290 0.771880 0.575530 -0.488552
O6    O     O_R   0.285330 0.030870 0.569730 -0.480516
C3    C     C_R   0.240899 0.145208 0.597912 0.556007
O7    O     O_R   0.270980 0.227080 0.423890 -0.507506
O8    O     O_R   0.530280 0.182120 0.430050 -0.518961
C4    C     C_R   0.650128 0.113969 0.404418 0.551763
O9    O     O_R   0.731330 0.998570 0.424830 -0.478010
O10   O     O_R   0.685970 0.784660 0.430010 -0.496382
C5    C     C_R   0.616043 0.736764 0.402986 0.545108
O11   O     O_R   0.502530 0.767000 0.423990 -0.496066
O12   O     O_R   0.288330 0.026350 0.429250 -0.479696
C6    C     C_R   0.297912 0.117576 0.393308 0.536678
Cr1   Cr    Cr6+3 0.404720 0.198220 0.499960 1.061202
Cr2   Cr    Cr6+3 0.698290 0.897110 0.500380 1.071343
Cr3   Cr    Cr6+3 0.396970 0.904720 0.499610 1.082481
O13   O     O_3   0.499990 0.000020 0.499980 -0.293856
C7    C     C_1   0.669817 0.647727 0.860464 0.019217
C8    C     C_1   0.654688 0.683221 0.728353 -0.026482
C9    C     C_1   0.663045 0.667463 0.799784 -0.025943
C10   C     C_1   0.641215 0.702912 0.667692 0.011674
C11   C     C_1   0.127221 0.199191 0.859610 0.017475
C12   C     C_1   0.171457 0.169879 0.727705 -0.025939
C13   C     C_1   0.150588 0.182331 0.799117 -0.024332
C14   C     C_1   0.195024 0.160376 0.667164 0.009821
C15   C     C_1   0.678078 0.191748 0.861005 0.014315
C16   C     C_1   0.658492 0.167086 0.728936 -0.025232
C17   C     C_1   0.665248 0.181194 0.800425 -0.024652
C18   C     C_1   0.653132 0.149266 0.668431 0.011748
H1    H     H_    0.847593 0.626197 0.333726 0.150996
C19   C     C_R   0.659999 0.676634 0.191668 0.042201
C20   C     C_R   0.533604 0.730719 0.222499 -0.008949
C21   C     C_R   0.530146 0.701489 0.292665 -0.025552
C22   C     C_R   0.761966 0.645930 0.303244 -0.153043
C23   C     C_R   0.773173 0.635603 0.232649 -0.156771
C24   C     C_R   0.412622 0.799480 0.184493 0.246766
C25   C     C_R   0.294676 0.822230 0.214834 -0.080644
C26   C     C_R   0.294971 0.775127 0.280189 -0.061373
C27   C     C_R   0.411727 0.707005 0.318043 0.163726
C28   C     C_R   0.641354 0.679461 0.334200 0.008102
H2    H     H_    0.871754 0.589997 0.210462 0.149209
H3    H     H_    0.202025 0.872762 0.186728 0.159723
H4    H     H_    0.203708 0.786959 0.300150 0.184251
H5    H     H_    0.115238 0.067077 0.341492 0.172065
C29   C     C_R   0.157380 0.175175 0.186997 0.036421
C30   C     C_R   0.267340 0.186217 0.200941 0.032798
C31   C     C_R   0.296403 0.194232 0.270275 -0.032357
C32   C     C_R   0.156605 0.103638 0.303467 -0.143435
C33   C     C_R   0.103616 0.130317 0.237764 -0.168021
C34   C     C_R   0.327913 0.219401 0.148134 -0.090344
C35   C     C_R   0.370704 0.307243 0.162597 -0.097103
C36   C     C_R   0.358774 0.352967 0.229881 0.222085
C37   C     C_R   0.344077 0.281052 0.284439 -0.098104
C38   C     C_R   0.251733 0.137642 0.321584 0.008458
H6    H     H_    0.319464 0.198474 0.094717 0.166377
H7    H     H_    0.018603 0.119174 0.227099 0.137505
H8    H     H_    0.392761 0.353900 0.120353 0.166478
H9    H     H_    0.347953 0.311309 0.336244 0.191314
H10   H     H_    0.566290 0.358403 0.346105 0.176866
C39   C     C_R   0.682923 0.186649 0.197475 -0.004460
C40   C     C_R   0.751238 0.054817 0.224487 0.007927
C41   C     C_R   0.780893 0.041438 0.295256 0.018558
C42   C     C_R   0.624134 0.275392 0.312882 -0.163506
C43   C     C_R   0.632414 0.295465 0.243070 -0.149336
C44   C     C_R   0.805233 0.936835 0.183632 0.118090
C45   C     C_R   0.906196 0.816657 0.210268 -0.118974
C46   C     C_R   0.952512 0.810808 0.276468 -0.141251
C47   C     C_R   0.895235 0.922930 0.318471 0.097410
C48   C     C_R   0.691824 0.146989 0.339257 0.005224
H11   H     H_    0.594360 0.396272 0.224448 0.189940
H12   H     H_    0.951821 0.727776 0.178722 0.153426
H13   H     H_    0.032507 0.718341 0.295720 0.204305
O14   O     O_R   0.821500 0.119340 0.952830 -0.486036
O15   O     O_R   0.037130 0.162530 0.957360 -0.478074
C49   C     C_R   0.081787 0.231315 0.928870 0.555853
O16   O     O_R   0.056440 0.344740 0.951340 -0.507105
O17   O     O_R   0.797900 0.560360 0.957470 -0.488459
C50   C     C_R   0.683520 0.604983 0.929891 0.572299
O18   O     O_R   0.596130 0.579390 0.952730 -0.481033
O19   O     O_R   0.639060 0.321160 0.958670 -0.499914
C51   C     C_R   0.708275 0.206842 0.930338 0.555913
O20   O     O_R   0.821240 0.124200 0.104370 -0.495204
O21   O     O_R   0.036890 0.167040 0.097840 -0.485394
C52   C     C_R   0.081640 0.233927 0.125002 0.544364
O22   O     O_R   0.056180 0.349610 0.102880 -0.520511
O23   O     O_R   0.797660 0.564870 0.097950 -0.505060
C53   C     C_R   0.681758 0.614148 0.124553 0.599899
O24   O     O_R   0.595880 0.584250 0.104270 -0.467474
O25   O     O_R   0.638830 0.325670 0.099150 -0.502244
C54   C     C_R   0.709352 0.210812 0.127353 0.550929
Cr4   Cr    Cr6+3 0.926180 0.151990 0.028120 1.092572
Cr5   Cr    Cr6+3 0.921330 0.451820 0.027470 1.055676
Cr6   Cr    Cr6+3 0.626260 0.446870 0.028710 1.093415
O26   O     O_3   0.824590 0.350230 0.028100 -0.290881
N1    N     N_R   0.335406 0.483935 0.241295 0.052751
O27   O     O_R   0.256620 0.551115 0.291468 -0.393383
O28   O     O_R   0.353499 0.548295 0.191496 -0.372298
I1    I     I_    0.735829 0.922174 0.084582 -0.258405
I2    I     I_    0.008092 0.912647 0.407677 -0.336580
N2    N     N_R   0.406349 0.851760 0.116619 0.081473
O29   O     O_R   0.316504 0.863001 0.073284 -0.322088
O30   O     O_R   0.477733 0.904953 0.101056 -0.346245
I3    I     I_    0.396106 0.601608 0.406882 -0.262170

loop_
_geom_bond_atom_site_label_1
_geom_bond_atom_site_label_2
_geom_bond_distance
_ccdc_geom_bond_type
C34   C35   1.373751 A    
O21   Cr4   1.945016 S    
O11   Cr3   2.059534 S    
C4    C48   1.473073 S    
C11   C13   1.200630 T    
C24   C25   1.391993 A    
C32   C38   1.399994 A    
O4    Cr2   1.916833 S    
C2    C10   1.418591 S    
C32   C33   1.386101 A    
C23   H2    1.081634 S    
N2    O30   1.297764 A    
O8    Cr1   1.933090 S    
C29   C33   1.400592 A    
C7    C50   1.418471 S    
H10   C42   1.069268 S    
C19   C20   1.409117 A    
C20   C21   1.410434 A    
C8    C10   1.196746 T    
O4    C2    1.280796 A    
C49   O16   1.273066 A    
H5    C32   1.078132 S    
O25   Cr6   1.912592 S    
C42   C48   1.383854 A    
C5    O11   1.252839 A    
Cr6   O26   1.996014 S    
Cr4   O26   1.984626 S    
C35   C36   1.393465 A    
C53   O24   1.279334 A    
C21   C28   1.439861 A    
O19   Cr6   1.948964 S    
C47   I2    2.148799 S    
O14   Cr4   2.065834 S    
O6    C3    1.279286 A    
O20   C54   1.258394 A    
C15   C17   1.202749 T    
C44   C45   1.392304 A    
C41   C47   1.420792 A    
C26   H4    1.073338 S    
O22   Cr5   2.037660 S    
C22   C28   1.390599 A    
O21   C52   1.253171 A    
C19   C53   1.453044 S    
C40   C41   1.409413 A    
C15   C51   1.428752 S    
Cr3   O13   2.003997 S    
Cr5   O26   2.003314 S    
C24   N2    1.437629 S    
C27   I3    2.173642 S    
O1    Cr1   2.052349 S    
C30   C31   1.406663 A    
O10   Cr2   1.949787 S    
C19   C23   1.405475 A    
Cr1   O13   1.984852 S    
O1    C3    1.272310 A    
C8    C9    1.397988 S    
C11   C49   1.425279 S    
O23   C53   1.279088 A    
C44   I1    2.133298 S    
C42   C43   1.388045 A    
C1    C18   1.429024 S    
C29   C30   1.380526 A    
O19   C51   1.277755 A    
C36   N1    1.420309 S    
O12   Cr3   1.913774 S    
C16   C18   1.202827 T    
H1    C22   1.083748 S    
C26   C27   1.391725 A    
C21   C27   1.435762 A    
C46   H13   1.072051 S    
C31   C38   1.427228 A    
C29   C52   1.446789 S    
C50   O18   1.275652 A    
O7    Cr1   2.055045 S    
O20   Cr4   2.045370 S    
N1    O28   1.301554 A    
O12   C6    1.317984 A    
C41   C48   1.422451 A    
O23   Cr5   1.939136 S    
C31   C37   1.404363 A    
C3    C14   1.425250 S    
Cr2   O13   1.995262 S    
O17   C50   1.281102 A    
O17   Cr5   1.919080 S    
C35   H8    1.082132 S    
C25   C26   1.381362 A    
C5    C28   1.457035 S    
C1    O3    1.271008 A    
C45   H12   1.081465 S    
C22   C23   1.378464 A    
C37   H9    1.076745 S    
C12   C13   1.404214 S    
O9    Cr2   2.034317 S    
O2    Cr1   1.941077 S    
C46   C47   1.389088 A    
O6    Cr3   1.940896 S    
O8    C4    1.306100 A    
C2    O5    1.276144 A    
C33   H7    1.084230 S    
N2    O29   1.301771 A    
O18   Cr6   2.028718 S    
C16   C17   1.407712 S    
C12   C14   1.200614 T    
O2    C1    1.275093 A    
O15   Cr4   1.930929 S    
O5    Cr3   2.029575 S    
O14   C51   1.269398 A    
C36   C37   1.410617 A    
C40   C44   1.425924 A    
O16   Cr5   2.056666 S    
O7    C6    1.291305 A    
C39   C43   1.406572 A    
N1    O27   1.294841 A    
C43   H11   1.081766 S    
C30   C34   1.403394 A    
C25   H3    1.082697 S    
C7    C9    1.196713 T    
C20   C24   1.428284 A    
O25   C54   1.282089 A    
O15   C49   1.277559 A    
O3    Cr2   2.069086 S    
C6    C38   1.472296 S    
C39   C54   1.454321 S    
C45   C46   1.386564 A    
C4    O9    1.250691 A    
C39   C40   1.420017 A    
O10   C5    1.310057 A    
C52   O22   1.292368 A    
C34   H6    1.083893 S    
O24   Cr6   2.065764 S    
