data_mof_unit_26999.cif
_audit_creation_date              2013-03-05T15:44:03-0500
_audit_creation_method            fapswitch 2.2
_symmetry_space_group_name_H-M    P1
_symmetry_Int_Tables_number       1
_space_group_crystal_system       triclinic
_cell_length_a                    9.704641
_cell_length_b                    10.951822
_cell_length_c                    17.299345
_cell_angle_alpha                 90.280581
_cell_angle_beta                  85.262875
_cell_angle_gamma                 90.300031
_cell_volume                      1832.31081788

loop_
_atom_site_label
_atom_site_type_symbol
_atom_site_description
_atom_site_fract_x
_atom_site_fract_y
_atom_site_fract_z
_atom_type_partial_charge
O1    O     O_R   0.382960 0.678040 0.499990 -0.586312
O2    O     O_R   0.617100 0.678080 0.500010 -0.564739
C1    C     C_R   0.500920 0.734734 0.499377 0.834823
O3    O     O_R   0.369350 0.500000 0.613580 -0.560487
O4    O     O_R   0.603500 0.500040 0.613610 -0.600090
C2    C     C_R   0.480906 0.496904 0.650358 0.788410
Cu1   Cu    Cu3+1 0.361370 0.499980 0.499980 0.937198
Cu2   Cu    Cu3+1 0.638630 0.500020 0.500020 0.961881
O5    O     O_R   0.382900 0.321920 0.499990 -0.588955
O6    O     O_R   0.617040 0.321960 0.500010 -0.578902
O7    O     O_R   0.396500 0.499960 0.386390 -0.582394
O8    O     O_R   0.630650 0.500000 0.386420 -0.540321
C3    C     C_R   0.500032 0.265780 0.496117 0.811411
C4    C     C_R   0.518879 0.496296 0.349735 0.784836
C5    C     C_R   0.469851 0.490670 0.736015 -0.098954
C6    C     C_R   0.591318 0.503683 0.774157 -0.270199
C7    C     C_R   0.588803 0.500504 0.854810 0.040377
C8    C     C_R   0.461144 0.483905 0.898807 0.117105
C9    C     C_R   0.339764 0.472607 0.861622 -0.228718
C10   C     C_R   0.342627 0.472668 0.780893 -0.015865
C11   C     C_R   0.406222 0.422893 0.152717 -0.168696
C12   C     C_R   0.404820 0.449590 0.230947 -0.233236
C13   C     C_R   0.656258 0.474634 0.218735 0.246886
C14   C     C_R   0.655472 0.444775 0.139535 -0.188360
C15   C     C_R   0.531131 0.421737 0.106759 0.124218
C16   C     C_2   0.449053 0.478751 0.983713 -0.235876
C17   C     C_2   0.532167 0.409150 0.022739 -0.198269
C18   C     C_R   0.528258 0.476561 0.265053 -0.111930
H1    H     H_    0.689011 0.518140 0.741089 0.157170
H2    H     H_    0.305754 0.448547 0.264751 0.169083
H3    H     H_    0.611278 0.353054 0.992421 0.159396
H4    H     H_    0.242490 0.459435 0.895930 0.134621
H5    H     H_    0.309401 0.404206 0.127803 0.135325
H6    H     H_    0.369361 0.533906 0.014627 0.147655
H7    H     H_    0.750069 0.445653 0.101790 0.157107
C19   C     C_2   0.602381 0.068733 0.506193 -0.271689
C20   C     C_2   0.502175 0.136198 0.478551 -0.151759
H8    H     H_    0.677099 0.111292 0.541478 0.152149
C21   C     C_2   0.615882 0.937490 0.492080 0.020496
C22   C     C_2   0.501406 0.867053 0.503819 -0.362972
H9    H     H_    0.402591 0.908975 0.521927 0.149260
C23   C     C_2   0.074171 0.586375 0.531744 -0.068110
N1    N     N_2   0.152990 0.501340 0.500850 -0.292303
H10   H     H_    0.121725 0.666283 0.555638 0.150514
H11   H     H_    0.108290 0.417896 0.491957 0.228191
C24   C     C_2   0.918127 0.577692 0.539458 0.028910
N2    N     N_2   0.846850 0.501370 0.500880 -0.075800
H12   H     H_    0.863105 0.636401 0.582051 0.110228
C25   C     C_R   0.412072 0.091351 0.418501 0.136639
C26   C     C_R   0.267635 0.104426 0.429022 -0.150290
C27   C     C_R   0.185065 0.072091 0.369596 -0.148164
C28   C     C_R   0.245257 0.024075 0.299938 -0.113339
C29   C     C_R   0.388495 0.009743 0.289147 -0.150370
C30   C     C_R   0.471804 0.044178 0.347797 -0.135224
H13   H     H_    0.218833 0.140022 0.482965 0.131310
H14   H     H_    0.074078 0.083344 0.377773 0.141908
H15   H     H_    0.180873 0.998147 0.254313 0.121328
H16   H     H_    0.435184 0.973314 0.234955 0.124481
H17   H     H_    0.582979 0.035985 0.337638 0.125210
C31   C     C_R   0.755946 0.891552 0.466070 0.188574
C32   C     C_R   0.780867 0.834803 0.393186 -0.103665
C33   C     C_R   0.914406 0.797287 0.367325 -0.169507
C34   C     C_R   0.023793 0.816641 0.413626 -0.102503
C35   C     C_R   0.000264 0.874706 0.485579 -0.172412
C36   C     C_R   0.867017 0.912076 0.511799 -0.191857
H18   H     H_    0.697120 0.820229 0.356430 0.098124
H19   H     H_    0.933589 0.754065 0.311148 0.120004
H20   H     H_    0.127087 0.787540 0.393534 0.148143
H21   H     H_    0.085468 0.890884 0.521000 0.126862
H22   H     H_    0.850501 0.956733 0.567755 0.113617
N3    N     N_2   0.904736 0.467075 0.428249 -0.293310
H23   H     H_    0.977305 0.522725 0.398760 0.239909
C37   C     C_3   0.904067 0.337651 0.411230 -0.556951
H24   H     H_    0.008124 0.309485 0.386199 0.162243
H25   H     H_    0.828312 0.317922 0.368120 0.246409
H26   H     H_    0.877575 0.283166 0.464461 0.212179
N4    N     N_2   0.781674 0.508647 0.251437 -0.403175
H27   H     H_    0.779215 0.594061 0.276764 0.254395
C38   C     C_3   0.913890 0.476585 0.211818 -0.739927
H28   H     H_    0.935420 0.533849 0.159358 0.217271
H29   H     H_    0.915450 0.378185 0.195881 0.236060
H30   H     H_    0.996988 0.493413 0.251038 0.226133
C39   C     C_R   0.211051 0.449706 0.746642 0.137010
C40   C     C_R   0.110571 0.541216 0.748797 -0.119900
C41   C     C_R   0.984136 0.518607 0.718523 -0.138611
C42   C     C_R   0.956650 0.404130 0.686704 -0.130329
C43   C     C_R   0.056770 0.312677 0.684218 -0.151107
C44   C     C_R   0.183846 0.335142 0.714282 -0.107436
H31   H     H_    0.130245 0.629774 0.773898 0.118966
H32   H     H_    0.908145 0.590478 0.719697 0.113129
H33   H     H_    0.858374 0.386530 0.663365 0.141866
H34   H     H_    0.035825 0.224458 0.659128 0.113790
H35   H     H_    0.260733 0.263634 0.712599 0.106046
C45   C     C_R   0.720295 0.516518 0.891306 0.096676
C46   C     C_R   0.821796 0.425535 0.882630 -0.157045
C47   C     C_R   0.942200 0.435926 0.921246 -0.128035
C48   C     C_R   0.963110 0.538046 0.967724 -0.145411
C49   C     C_R   0.863163 0.629691 0.975889 -0.150477
C50   C     C_R   0.741782 0.618985 0.938004 -0.126854
H36   H     H_    0.806102 0.345384 0.847431 0.130518
H37   H     H_    0.018785 0.364336 0.915348 0.124676
H38   H     H_    0.056349 0.545904 0.997714 0.113539
H39   H     H_    0.879136 0.708415 0.012197 0.123805
H40   H     H_    0.664041 0.689573 0.945630 0.122768

loop_
_geom_bond_atom_site_label_1
_geom_bond_atom_site_label_2
_geom_bond_distance
_ccdc_geom_bond_type
C43   C44   1.397636 A    
C29   H16   1.082318 S    
C37   H24   1.110028 S    
C9    C10   1.394550 A    
C8    C16   1.465139 S    
C48   C49   1.397959 A    
Cu1   Cu2   2.690764 S    
C29   C30   1.397794 A    
Cu1   O7    1.966451 S    
C16   C17   1.337474 D    
C33   H19   1.081537 S    
C19   C20   1.344643 D    
C8    C9    1.392667 A    
C42   H33   1.081982 S    
C41   C42   1.399993 A    
O4    C2    1.302160 A    
O7    C4    1.300027 A    
C11   H5    1.083750 S    
C25   C30   1.406706 A    
C27   H14   1.082300 S    
C23   C24   1.511742 S    
O5    C3    1.291892 A    
O1    Cu1   1.960215 S    
C2    C5    1.478712 S    
C24   N2    1.298947 D    
C40   C41   1.393856 A    
C16   H6    1.087383 S    
C46   C47   1.396905 A    
C6    C7    1.394044 A    
C49   H39   1.082242 S    
C13   C14   1.407665 A    
Cu1   N1    2.021199 S    
C3    C20   1.449777 S    
C48   H38   1.082409 S    
C50   H40   1.083012 S    
C12   C18   1.407739 A    
C43   H34   1.082390 S    
C37   H25   1.109343 S    
C32   C33   1.398736 A    
C23   H10   1.083255 S    
O3    Cu1   1.973110 S    
C9    H4    1.082167 S    
C32   H18   1.083197 S    
C26   C27   1.397810 A    
C30   H17   1.082840 S    
N4    C38   1.447935 S    
C5    C10   1.416556 A    
C24   H12   1.084169 S    
C14   H7    1.081749 S    
C17   H3    1.084991 S    
C27   C28   1.396640 A    
C47   H37   1.081815 S    
C14   C15   1.396306 A    
O3    C2    1.300907 A    
C21   C22   1.351232 D    
N3    C37   1.446362 S    
C42   C43   1.397111 A    
C6    H1    1.077455 S    
N4    H27   1.030577 S    
C34   C35   1.397405 A    
C31   C32   1.406431 A    
O1    C1    1.298738 A    
C33   C34   1.396359 A    
O4    Cu2   1.966449 S    
C20   C25   1.491823 S    
C39   C40   1.400190 A    
Cu2   O8    1.973110 S    
C47   C48   1.397932 A    
C7    C8    1.410827 A    
C13   C18   1.421691 A    
C13   N4    1.430765 S    
N1    H11   1.025906 S    
N2    N3    1.384328 S    
C22   H9    1.087257 S    
O8    C4    1.301516 A    
C31   C36   1.405262 A    
C49   C50   1.398645 A    
C37   H26   1.111223 S    
C23   N1    1.293470 D    
C28   C29   1.396754 A    
C38   H29   1.110933 S    
Cu1   O5    1.962332 S    
C11   C15   1.393767 A    
C44   H35   1.083153 S    
C12   H2    1.083273 S    
C46   H36   1.083151 S    
C19   C21   1.461500 S    
O2    Cu2   1.962333 S    
O6    C3    1.295148 A    
C1    C22   1.450801 S    
C38   H30   1.110057 S    
C41   H32   1.080408 S    
C15   C17   1.458551 S    
C35   H21   1.082445 S    
C34   H20   1.082577 S    
C26   H13   1.082820 S    
C35   C36   1.397226 A    
C19   H8    1.087389 S    
O2    C1    1.290638 A    
Cu2   N2    2.021959 S    
N3    H23   1.032900 S    
C45   C50   1.404248 A    
C21   C31   1.485632 S    
C39   C44   1.404063 A    
C45   C46   1.403593 A    
C28   H15   1.082311 S    
C38   H28   1.110605 S    
Cu2   O6    1.960214 S    
C25   C26   1.406459 A    
C40   H31   1.083182 S    
C10   C39   1.471374 S    
C7    C45   1.478987 S    
C4    C18   1.475173 S    
C36   H22   1.082812 S    
C11   C12   1.382128 A    
C5    C6    1.403944 A    
