data_mof_unit_37880.cif
_audit_creation_date              2012-10-26T17:12:51-0400
_audit_creation_method            fapswitch 2.2
_symmetry_space_group_name_H-M    P1
_symmetry_Int_Tables_number       1
_space_group_crystal_system       triclinic
_cell_length_a                    27.839565
_cell_length_b                    18.708302
_cell_length_c                    16.732685
_cell_angle_alpha                 90.139519
_cell_angle_beta                  63.692904
_cell_angle_gamma                 90.148
_cell_volume                      7812.27795221

loop_
_atom_site_label
_atom_site_type_symbol
_atom_type_description
_atom_site_fract_x
_atom_site_fract_y
_atom_site_fract_z
_atom_type_partial_charge
C1    C     C_R   0.296640 0.732651 0.328079 0.810714
C2    C     C_R   0.704140 0.268797 0.671516 0.858197
C3    C     C_R   0.707235 0.723809 0.669211 0.803478
C4    C     C_R   0.295799 0.269096 0.328691 0.828248
C5    C     C_R   0.796352 0.232223 0.328127 0.773607
C6    C     C_R   0.204623 0.769934 0.671164 0.824350
C7    C     C_R   0.207902 0.223732 0.669173 0.823191
C8    C     C_R   0.795053 0.770598 0.329221 0.846792
C9    C     C_R   0.401841 0.001098 0.488757 0.075529
C10   C     C_R   0.597296 0.999007 0.514210 0.075988
C11   C     C_R   0.915331 0.500694 0.440544 0.077263
C12   C     C_R   0.102073 0.500463 0.492968 0.076611
C13   C     C_R   0.577381 0.880061 0.578205 -0.172889
C14   C     C_R   0.421989 0.119915 0.424356 -0.180927
C15   C     C_R   0.380708 0.884121 0.557907 -0.179426
C16   C     C_R   0.618427 0.115775 0.444717 -0.182184
C17   C     C_R   0.118054 0.377269 0.443305 -0.179713
C18   C     C_R   0.919764 0.629585 0.431548 -0.225439
C19   C     C_R   0.923550 0.372977 0.415402 -0.180021
C20   C     C_R   0.086240 0.625702 0.533279 -0.178049
C21   C     C_R   0.208488 0.746077 0.963499 0.022836
C22   C     C_R   0.764249 0.207107 0.062157 0.025896
C23   C     C_R   0.793080 0.741090 0.036566 0.014690
C24   C     C_R   0.246613 0.184395 0.931245 0.020850
C25   C     C_R   0.703523 0.235088 0.967816 0.025793
C26   C     C_R   0.273843 0.726297 0.051089 0.022595
C27   C     C_R   0.302668 0.222965 0.030333 0.017419
C28   C     C_R   0.732910 0.709057 0.942945 0.023839
C29   C     C_R   0.253696 0.701860 0.923907 -0.054321
C30   C     C_R   0.724087 0.260104 0.093359 -0.089588
C31   C     C_R   0.743797 0.704746 0.080094 -0.060223
C32   C     C_R   0.293186 0.227623 0.891025 -0.057062
C33   C     C_R   0.744805 0.183318 0.933447 -0.055767
C34   C     C_R   0.226273 0.767122 0.093176 -0.089441
C35   C     C_R   0.259212 0.173834 0.068273 -0.052404
C36   C     C_R   0.786458 0.734681 0.894916 -0.063189
C37   C     C_R   0.288767 0.697041 0.964903 0.111722
C38   C     C_R   0.688492 0.264402 0.053395 0.093907
C39   C     C_R   0.710520 0.699574 0.036247 0.112896
C40   C     C_R   0.323350 0.242258 0.939397 0.081550
C41   C     C_R   0.770803 0.163538 0.988044 0.075380
C42   C     C_R   0.191186 0.770914 0.051717 0.086554
C43   C     C_R   0.233181 0.151276 0.014659 0.062639
C44   C     C_R   0.816401 0.752551 0.943393 0.079373
C45   C     C_R   0.134673 0.810129 0.954016 0.062494
C46   C     C_R   0.836134 0.141522 0.077655 0.062602
C47   C     C_R   0.866413 0.806741 0.047063 0.059701
C48   C     C_R   0.166933 0.130706 0.925743 0.059055
C49   C     C_R   0.633224 0.307034 0.955394 0.072457
C50   C     C_R   0.355876 0.676937 0.051001 0.077871
C51   C     C_R   0.370151 0.301116 0.044536 0.061918
C52   C     C_R   0.646550 0.673524 0.946278 0.077321
C53   C     C_R   0.116520 0.847809 0.898491 -0.180065
C54   C     C_R   0.875320 0.139300 0.111016 -0.172066
C55   C     C_R   0.883479 0.847277 0.102171 -0.182460
C56   C     C_R   0.128567 0.132218 0.889977 -0.166882
C57   C     C_R   0.615916 0.346046 0.899443 -0.181088
C58   C     C_R   0.385525 0.657034 0.098964 -0.182050
C59   C     C_R   0.384796 0.344672 0.100652 -0.181244
C60   C     C_R   0.616556 0.653635 0.899471 -0.184845
C61   C     C_R   0.145164 0.839803 0.805223 -0.109040
C62   C     C_R   0.866919 0.180980 0.186895 -0.063617
C63   C     C_R   0.854546 0.840375 0.195501 -0.110455
C64   C     C_R   0.140351 0.172298 0.812328 -0.078452
C65   C     C_R   0.644738 0.337764 0.806388 -0.112243
C66   C     C_R   0.370072 0.685721 0.185225 -0.066286
C67   C     C_R   0.354912 0.338093 0.193759 -0.107405
C68   C     C_R   0.634273 0.677995 0.811819 -0.066656
C69   C     C_R   0.180816 0.781776 0.769056 -0.165121
C70   C     C_R   0.819738 0.220990 0.229372 -0.185826
C71   C     C_R   0.818613 0.782622 0.232019 -0.172074
C72   C     C_R   0.192857 0.197619 0.761005 -0.178702
C73   C     C_R   0.679457 0.278738 0.770253 -0.170089
C74   C     C_R   0.321762 0.724575 0.228522 -0.194931
C75   C     C_R   0.321044 0.278335 0.230274 -0.163996
C76   C     C_R   0.688341 0.699656 0.762487 -0.175701
C77   C     C_R   0.197781 0.743012 0.825864 0.041953
C78   C     C_R   0.791085 0.239547 0.179739 0.004325
C79   C     C_R   0.800898 0.743959 0.176340 0.037055
C80   C     C_R   0.230121 0.197915 0.799050 -0.009862
C81   C     C_R   0.694484 0.237071 0.827979 0.045374
C82   C     C_R   0.294094 0.746867 0.178296 0.000913
C83   C     C_R   0.307660 0.234020 0.172953 0.040725
C84   C     C_R   0.723253 0.699593 0.804507 -0.005521
C85   C     C_R   0.197006 0.631439 0.525263 0.819839
C86   C     C_R   0.803749 0.368130 0.470654 0.798699
C87   C     C_R   0.803474 0.631811 0.471385 0.797947
C88   C     C_R   0.200451 0.369021 0.513822 0.821363
C89   C     C_R   0.700661 0.130847 0.513780 0.819206
C90   C     C_R   0.299200 0.869122 0.486707 0.798671
C91   C     C_R   0.303366 0.131724 0.471875 0.795430
C92   C     C_R   0.696582 0.868228 0.528314 0.817043
C93   C     C_R   0.180514 0.766705 0.914166 0.028079
C94   C     C_R   0.797154 0.196212 0.106514 0.045621
C95   C     C_R   0.819656 0.764839 0.087047 0.033284
C96   C     C_R   0.213595 0.173092 0.886599 0.057346
C97   C     C_R   0.677443 0.260020 0.916570 0.034179
C98   C     C_R   0.307544 0.715790 0.094232 0.046432
C99   C     C_R   0.326177 0.253469 0.083108 0.034997
C100  C     C_R   0.700724 0.694928 0.897977 0.052361
C101  C     C_R   0.109755 0.813624 0.048014 -0.156745
C102  C     C_R   0.833643 0.090353 0.017833 -0.148811
C103  C     C_R   0.894391 0.804145 0.953673 -0.168162
C104  C     C_R   0.163260 0.084886 0.994934 -0.151781
C105  C     C_R   0.609067 0.313252 0.049126 -0.148249
C106  C     C_R   0.374681 0.664759 0.958708 -0.148530
C107  C     C_R   0.398169 0.301287 0.951016 -0.157733
C108  C     C_R   0.623473 0.676215 0.039730 -0.143947
C109  C     C_R   0.137813 0.794592 0.096037 -0.164564
C110  C     C_R   0.801153 0.100668 0.975074 -0.151886
C111  C     C_R   0.870601 0.774979 0.903122 -0.151053
C112  C     C_R   0.196474 0.093994 0.036791 -0.135682
C113  C     C_R   0.637229 0.294678 0.096807 -0.180446
C114  C     C_R   0.341597 0.673099 0.917271 -0.181265
C115  C     C_R   0.375400 0.271576 0.899468 -0.144728
C116  C     C_R   0.654730 0.689991 0.083715 -0.163211
C117  C     C_R   0.229529 0.680165 0.801128 0.110262
C118  C     C_R   0.759036 0.301839 0.197439 0.143415
C119  C     C_R   0.766013 0.684203 0.204258 0.119885
C120  C     C_R   0.284089 0.220845 0.753240 0.120854
C121  C     C_R   0.726589 0.174627 0.801640 0.087158
C122  C     C_R   0.256823 0.804281 0.204401 0.136019
C123  C     C_R   0.276097 0.171463 0.201144 0.088451
C124  C     C_R   0.779506 0.708491 0.757754 0.114916
C125  C     C_R   0.259158 0.660529 0.848565 -0.083919
C126  C     C_R   0.723849 0.310155 0.158021 -0.035512
C127  C     C_R   0.732828 0.669674 0.161959 -0.069565
C128  C     C_R   0.308323 0.251798 0.802430 -0.026462
C129  C     C_R   0.756376 0.153219 0.847971 -0.049296
C130  C     C_R   0.220300 0.810534 0.167279 -0.025423
C131  C     C_R   0.245557 0.149021 0.156846 -0.047465
C132  C     C_R   0.806969 0.740950 0.800821 -0.000008
C133  C     C_R   0.926859 0.901780 0.065645 0.775547
C134  C     C_R   0.077185 0.091675 0.931227 0.815655
C135  C     C_R   0.073203 0.902046 0.934338 0.778292
C136  C     C_R   0.923748 0.093342 0.068870 0.812784
C137  C     C_R   0.427115 0.401213 0.065320 0.795549
C138  C     C_R   0.572043 0.600019 0.935537 0.807930
C139  C     C_R   0.573107 0.401643 0.934532 0.798467
C140  C     C_R   0.427974 0.600135 0.064625 0.804119
C141  C     C_R   0.046685 0.628836 0.503462 0.038995
C142  C     C_R   0.973482 0.372953 0.417866 0.074400
C143  C     C_R   0.963395 0.631113 0.451723 0.026033
C144  C     C_R   0.070517 0.374980 0.433634 0.072234
C145  C     C_R   0.570452 0.116802 0.436593 0.070647
C146  C     C_R   0.428372 0.883489 0.567262 0.069168
C147  C     C_R   0.471949 0.118979 0.426419 0.077149
C148  C     C_R   0.527085 0.881290 0.577133 0.070746
C149  C     C_R   0.024461 0.694697 0.496017 0.174131
C150  C     C_R   0.004450 0.310156 0.401350 0.100485
C151  C     C_R   0.984445 0.696203 0.466253 0.129541
C152  C     C_R   0.053482 0.311513 0.407862 0.097177
C153  C     C_R   0.557845 0.174966 0.395771 0.096320
C154  C     C_R   0.440872 0.825585 0.608770 0.099196
C155  C     C_R   0.508454 0.176175 0.390850 0.106057
C156  C     C_R   0.490450 0.824286 0.613194 0.111257
C157  C     C_R   0.985901 0.565836 0.459094 0.008059
C158  C     C_R   0.039750 0.437322 0.449589 -0.015056
C159  C     C_R   0.029959 0.565195 0.478879 -0.018632
C160  C     C_R   0.992389 0.436869 0.438491 -0.019021
C161  C     C_R   0.485536 0.059848 0.464733 -0.017228
C162  C     C_R   0.513330 0.940501 0.539174 -0.022191
C163  C     C_R   0.534556 0.058977 0.470367 -0.017634
C164  C     C_R   0.464258 0.941374 0.533612 -0.018184
C165  C     C_R   0.450505 0.000879 0.495946 0.007212
C166  C     C_R   0.548399 0.999405 0.507772 0.004029
C167  C     C_R   0.964792 0.501077 0.445211 0.007342
C168  C     C_R   0.056929 0.500809 0.474813 0.006748
C169  C     C_R   0.369122 0.939701 0.512334 0.019296
C170  C     C_R   0.630155 0.060258 0.490025 0.018597
C171  C     C_R   0.613813 0.937190 0.543626 0.018452
C172  C     C_R   0.385586 0.062783 0.458647 0.020680
C173  C     C_R   0.891374 0.435118 0.436013 0.021190
C174  C     C_R   0.118232 0.564147 0.520143 0.028740
C175  C     C_R   0.131530 0.436891 0.481879 0.024994
C176  C     C_R   0.890050 0.566079 0.441147 0.054455
C177  C     C_R   0.325377 0.936747 0.490359 -0.094140
C178  C     C_R   0.674265 0.063179 0.510936 -0.105893
C179  C     C_R   0.666359 0.935395 0.538014 -0.112420
C180  C     C_R   0.333357 0.064503 0.463098 -0.114177
C181  C     C_R   0.836655 0.434629 0.451242 -0.105930
C182  C     C_R   0.166910 0.564653 0.529450 -0.112259
C183  C     C_R   0.173907 0.435792 0.508149 -0.093010
C184  C     C_R   0.836168 0.565651 0.452725 -0.104430
C185  C     C_R   0.306318 0.000119 0.471105 -0.232552
C186  C     C_R   0.693484 0.999783 0.529738 -0.224370
C187  C     C_R   0.810609 0.499999 0.457823 -0.237879
C188  C     C_R   0.191696 0.499872 0.528818 -0.232410
Cu1   Cu    Cu3+1 0.209920 0.785290 0.495070 1.001076
Cu2   Cu    Cu3+1 0.790080 0.214710 0.504930 1.011910
Cu3   Cu    Cu3+1 0.790080 0.785290 0.504930 0.968202
Cu4   Cu    Cu3+1 0.209920 0.214710 0.495070 0.998241
Cu5   Cu    Cu3+1 0.709920 0.285290 0.495070 1.003021
Cu6   Cu    Cu3+1 0.290080 0.714710 0.504930 1.016187
Cu7   Cu    Cu3+1 0.290080 0.285290 0.504930 1.000773
Cu8   Cu    Cu3+1 0.709920 0.714710 0.495070 1.014966
Cu9   Cu    Cu3+1 0.495240 0.500000 0.924150 1.021625
Cu10  Cu    Cu3+1 0.504760 0.500000 0.075850 1.025303
Cu11  Cu    Cu3+1 0.995240 0.000000 0.924150 1.032163
Cu12  Cu    Cu3+1 0.004760 0.000000 0.075850 1.025538
H1    H     H_    0.269203 0.999699 0.464869 0.193769
H2    H     H_    0.730861 0.000174 0.535127 0.193743
H3    H     H_    0.768876 0.499795 0.470787 0.196255
H4    H     H_    0.226578 0.499671 0.541674 0.190184
H5    H     H_    0.587115 0.835742 0.609650 0.207520
H6    H     H_    0.412585 0.163958 0.392125 0.201352
H7    H     H_    0.351849 0.842114 0.589242 0.201478
H8    H     H_    0.647514 0.157306 0.412298 0.202278
H9    H     H_    0.144935 0.332763 0.417144 0.206361
H10   H     H_    0.909725 0.678197 0.408498 0.179060
H11   H     H_    0.911019 0.324736 0.394673 0.206868
H12   H     H_    0.090237 0.671562 0.568835 0.205427
H13   H     H_    0.068791 0.830372 0.086142 0.175699
H14   H     H_    0.855383 0.040571 0.005236 0.171553
H15   H     H_    0.935531 0.821488 0.918423 0.175517
H16   H     H_    0.136911 0.039186 0.015333 0.186924
H17   H     H_    0.569057 0.333137 0.087530 0.171929
H18   H     H_    0.415978 0.653278 0.914879 0.177652
H19   H     H_    0.438000 0.323098 0.915967 0.173137
H20   H     H_    0.580740 0.670782 0.079920 0.168615
H21   H     H_    0.117187 0.798363 0.167874 0.149255
H22   H     H_    0.798969 0.057121 0.934612 0.170028
H23   H     H_    0.896333 0.769435 0.833083 0.163926
H24   H     H_    0.193866 0.053498 0.083976 0.202855
H25   H     H_    0.618651 0.304752 0.167734 0.124950
H26   H     H_    0.358931 0.664026 0.846115 0.140289
H27   H     H_    0.399398 0.271771 0.828139 0.152664
H28   H     H_    0.634610 0.693944 0.155650 0.146073
O1    O     O_R   0.255040 0.869590 0.478480 -0.591978
O2    O     O_R   0.744960 0.130410 0.521520 -0.580471
O3    O     O_R   0.744960 0.869590 0.521520 -0.573123
O4    O     O_R   0.255040 0.130410 0.478480 -0.580081
O5    O     O_R   0.755040 0.369590 0.478480 -0.585228
O6    O     O_R   0.244960 0.630410 0.521520 -0.572597
O7    O     O_R   0.244960 0.369590 0.521520 -0.573199
O8    O     O_R   0.755040 0.630410 0.478480 -0.575072
O9    O     O_R   0.182050 0.796550 0.624440 -0.563221
O10   O     O_R   0.817950 0.203450 0.375560 -0.551172
O11   O     O_R   0.817950 0.796550 0.375560 -0.568429
O12   O     O_R   0.182050 0.203450 0.624440 -0.541383
O13   O     O_R   0.682050 0.296550 0.624440 -0.555427
O14   O     O_R   0.317950 0.703450 0.375560 -0.539643
O15   O     O_R   0.317950 0.296550 0.375560 -0.562227
O16   O     O_R   0.682050 0.703450 0.624440 -0.550291
O17   O     O_R   0.250530 0.763330 0.367210 -0.587942
O18   O     O_R   0.749470 0.236670 0.632790 -0.567860
O19   O     O_R   0.749470 0.763330 0.632790 -0.596867
O20   O     O_R   0.250530 0.236670 0.367210 -0.587495
O21   O     O_R   0.750530 0.263330 0.367210 -0.600528
O22   O     O_R   0.249470 0.736670 0.632790 -0.581189
O23   O     O_R   0.249470 0.263330 0.632790 -0.593165
O24   O     O_R   0.750530 0.736670 0.367210 -0.568687
O25   O     O_R   0.177260 0.690030 0.513710 -0.589469
O26   O     O_R   0.822740 0.309970 0.486290 -0.589154
O27   O     O_R   0.822740 0.690030 0.486290 -0.628496
O28   O     O_R   0.177260 0.309970 0.513710 -0.592319
O29   O     O_R   0.677260 0.190030 0.513710 -0.588320
O30   O     O_R   0.322740 0.809970 0.486290 -0.593720
O31   O     O_R   0.322740 0.190030 0.486290 -0.614144
O32   O     O_R   0.677260 0.809970 0.513710 -0.588655
O33   O     O_R   0.051640 0.926880 0.885090 -0.555665
O34   O     O_R   0.948360 0.073120 0.114910 -0.543534
O35   O     O_R   0.948360 0.926880 0.114910 -0.556189
O36   O     O_R   0.051640 0.073120 0.885090 -0.541260
O37   O     O_R   0.551640 0.426880 0.885090 -0.554665
O38   O     O_R   0.448360 0.573120 0.114910 -0.549407
O39   O     O_R   0.448360 0.426880 0.114910 -0.553884
O40   O     O_R   0.551640 0.573120 0.885090 -0.552528
O41   O     O_R   0.940620 0.926560 0.986760 -0.602690
O42   O     O_R   0.059380 0.073440 0.013240 -0.592110
O43   O     O_R   0.059380 0.926560 0.013240 -0.608766
O44   O     O_R   0.940620 0.073440 0.986760 -0.580818
O45   O     O_R   0.440620 0.426560 0.986760 -0.585768
O46   O     O_R   0.559380 0.573440 0.013240 -0.589991
O47   O     O_R   0.559380 0.426560 0.013240 -0.590750
O48   O     O_R   0.440620 0.573440 0.986760 -0.596779
N1    N     N_3   0.503922 0.765105 0.653926 -0.593592
H29   H     H_    0.475035 0.760703 0.720173 0.234748
H30   H     H_    0.503796 0.718246 0.619909 0.219059
N2    N     N_3   0.495072 0.235397 0.350051 -0.594526
H31   H     H_    0.524325 0.240195 0.284113 0.219074
H32   H     H_    0.494689 0.282140 0.384638 0.236501
N3    N     N_3   0.403316 0.767836 0.645287 -0.600356
H33   H     H_    0.392667 0.763540 0.713343 0.220624
H34   H     H_    0.421554 0.720278 0.613617 0.233676
N4    N     N_3   0.595252 0.232929 0.360179 -0.591988
H35   H     H_    0.606906 0.236446 0.291832 0.217248
H36   H     H_    0.576614 0.280573 0.390895 0.244831
N5    N     N_3   0.085471 0.248153 0.390640 -0.592967
H37   H     H_    0.095989 0.231946 0.325309 0.271402
H38   H     H_    0.062717 0.207902 0.434279 0.230661
N6    N     N_3   0.964849 0.764212 0.454055 -0.600934
H39   H     H_    0.972179 0.768658 0.387351 0.224146
H40   H     H_    0.923534 0.766597 0.494319 0.247348
N7    N     N_3   0.985710 0.245121 0.378869 -0.594764
H41   H     H_    0.014450 0.227167 0.316930 0.237153
H42   H     H_    0.980769 0.206537 0.426965 0.237271
N8    N     N_3   0.044903 0.760282 0.513727 -0.578060
H43   H     H_    0.013279 0.787920 0.563789 0.242577
H44   H     H_    0.059897 0.791402 0.455883 0.259651
C189  C     C_2   0.144601 0.898801 0.746024 0.912707
O49   O     O_2   0.176286 0.948344 0.729582 -0.613222
O50   O     O_R   0.107975 0.897530 0.709727 -0.715112
H45   H     H_    0.111655 0.940657 0.670839 0.334481
C190  C     C_2   0.909144 0.190580 0.217360 0.898469
O51   O     O_2   0.915706 0.145542 0.264485 -0.550978
O52   O     O_R   0.939929 0.253007 0.194397 -0.766106
H46   H     H_    0.967026 0.254381 0.219495 0.335348
C191  C     C_2   0.855585 0.899514 0.254453 0.918582
O53   O     O_2   0.824307 0.949351 0.270709 -0.609585
O54   O     O_R   0.892209 0.898031 0.290736 -0.723679
H47   H     H_    0.888892 0.941282 0.329459 0.335287
C192  C     C_2   0.096777 0.192601 0.788446 0.899762
O55   O     O_2   0.071822 0.247828 0.818365 -0.585709
O56   O     O_R   0.084474 0.148796 0.732151 -0.711899
H48   H     H_    0.054094 0.168558 0.721047 0.334415
C193  C     C_2   0.645538 0.397767 0.747397 0.920690
O57   O     O_2   0.677864 0.446363 0.732106 -0.595322
O58   O     O_R   0.609408 0.398559 0.710100 -0.716383
H49   H     H_    0.613978 0.442235 0.671612 0.337847
C194  C     C_2   0.408273 0.684208 0.225093 0.897849
O59   O     O_2   0.407388 0.634823 0.273563 -0.553211
O60   O     O_R   0.445319 0.739732 0.206496 -0.774333
H50   H     H_    0.469438 0.733047 0.236866 0.326574
C195  C     C_2   0.352946 0.399277 0.252233 0.912413
O61   O     O_2   0.320226 0.446933 0.266081 -0.600669
O62   O     O_R   0.388352 0.402170 0.290887 -0.714255
H51   H     H_    0.382968 0.446434 0.328982 0.340352
C196  C     C_2   0.594089 0.686954 0.776709 0.899812
O63   O     O_2   0.563969 0.738400 0.800222 -0.615548
O64   O     O_R   0.589879 0.635783 0.719010 -0.713277
H52   H     H_    0.560654 0.647589 0.700667 0.323230
N9    N     N_3   0.222852 0.630173 0.741394 -0.564696
H53   H     H_    0.206333 0.582999 0.776246 0.224146
H54   H     H_    0.260189 0.618275 0.689040 0.277556
N10   N     N_3   0.769727 0.363739 0.238878 -0.557528
H55   H     H_    0.738169 0.371421 0.302221 0.275960
H56   H     H_    0.805658 0.359102 0.243968 0.220088
N11   N     N_3   0.773536 0.630740 0.259397 -0.565374
H57   H     H_    0.786817 0.583800 0.221995 0.225803
H58   H     H_    0.737145 0.619507 0.314298 0.277427
N12   N     N_3   0.319457 0.189231 0.669204 -0.541232
H59   H     H_    0.299497 0.150560 0.649894 0.223027
H60   H     H_    0.334928 0.228741 0.620460 0.296843
N13   N     N_3   0.723647 0.128139 0.735410 -0.557657
H61   H     H_    0.707133 0.079445 0.765818 0.246111
H62   H     H_    0.762204 0.118309 0.685214 0.261464
N14   N     N_3   0.264281 0.866163 0.249603 -0.548561
H63   H     H_    0.231653 0.871802 0.312264 0.274893
H64   H     H_    0.299754 0.863437 0.256465 0.219734
N15   N     N_3   0.280757 0.125949 0.266504 -0.565974
H65   H     H_    0.296421 0.076864 0.236315 0.246137
H66   H     H_    0.242939 0.116647 0.319037 0.270440
N16   N     N_3   0.810756 0.672351 0.674810 -0.530709
H67   H     H_    0.786902 0.639060 0.656942 0.222429
H68   H     H_    0.830193 0.709985 0.624908 0.279425
C197  C     C_2   0.287360 0.590565 0.829757 0.828254
O65   O     O_2   0.317285 0.573017 0.753252 -0.605500
O66   O     O_R   0.280233 0.545353 0.900601 -0.727712
H69   H     H_    0.302330 0.500133 0.880153 0.376779
C198  C     C_2   0.693639 0.377987 0.175470 0.869979
O67   O     O_2   0.697756 0.415511 0.113082 -0.544765
O68   O     O_R   0.660500 0.398447 0.263317 -0.781510
H70   H     H_    0.640905 0.444834 0.267466 0.337971
C199  C     C_2   0.692548 0.611250 0.196710 0.813766
O69   O     O_2   0.662869 0.606902 0.276526 -0.618611
O70   O     O_R   0.686724 0.563461 0.137369 -0.698085
H71   H     H_    0.652251 0.535045 0.166455 0.343836
C200  C     C_2   0.341165 0.316832 0.764059 0.834122
O71   O     O_2   0.334480 0.369742 0.810841 -0.591716
O72   O     O_R   0.378668 0.318600 0.674402 -0.770024
H72   H     H_    0.398025 0.366174 0.656568 0.341825
C201  C     C_2   0.803940 0.107881 0.798084 0.801121
O73   O     O_2   0.848729 0.131596 0.778626 -0.567698
O74   O     O_R   0.797644 0.038337 0.773354 -0.766141
H73   H     H_    0.833140 0.012930 0.739628 0.360809
C202  C     C_2   0.182144 0.871042 0.198642 0.874176
O75   O     O_2   0.183647 0.917689 0.146522 -0.590466
O76   O     O_R   0.144073 0.873728 0.287920 -0.790314
H74   H     H_    0.117849 0.914557 0.300568 0.323029
C203  C     C_2   0.195691 0.109303 0.211718 0.813149
O77   O     O_2   0.152442 0.134329 0.224062 -0.615053
O78   O     O_R   0.197872 0.043869 0.250004 -0.756029
H75   H     H_    0.160931 0.024556 0.289955 0.339691
C204  C     C_2   0.848842 0.793195 0.747444 0.805947
O79   O     O_2   0.843957 0.855823 0.770880 -0.586418
O80   O     O_R   0.893837 0.771282 0.671170 -0.778782
H76   H     H_    0.919127 0.812424 0.641067 0.329678

loop_
_geom_bond_atom_site_label_1
_geom_bond_atom_site_label_2
_ccdc_geom_bond_type
C197  O65   D    
C35   C131  A    
Cu3   O19   S    
C9    C169  A    
C34   C42   A    
Cu1   O9    S    
C181  C187  A    
C189  O49   D    
Cu12  O42   S    
C27   C99   A    
C85   C182  S    
C138  O46   A    
C12   C174  A    
C18   H10   S    
C42   C109  A    
C24   C96   A    
C149  N8    S    
C61   C189  S    
C186  H2    S    
Cu3   Cu8   S    
Cu1   Cu6   S    
C101  H13   S    
Cu4   O28   S    
C90   O1    A    
C127  C199  S    
C63   C191  S    
C147  C155  A    
C4    O15   A    
C143  C151  A    
C90   C177  S    
Cu11  Cu12  S    
C11   C167  A    
C112  H24   S    
C76   C84   A    
Cu6   O6    S    
C73   C81   A    
C161  C163  A    
C162  C164  A    
C86   O5    A    
Cu2   O18   S    
C5    O10   A    
C6    O22   A    
O60   H50   S    
C84   C100  A    
Cu4   Cu7   S    
C66   C194  S    
C104  H16   S    
C121  C129  A    
N12   H59   S    
C37   C114  A    
C27   C35   A    
C10   C171  A    
N9    H53   S    
C21   C29   A    
C81   C121  A    
Cu2   O2    S    
C23   C31   A    
C124  N16   S    
C24   C32   A    
C115  H27   S    
C5    C70   S    
C113  H25   S    
O50   H45   S    
C146  C154  A    
C135  O43   A    
C136  O44   A    
C107  H19   S    
C63   C71   A    
C105  H17   S    
C14   H6    S    
C203  O77   D    
C36   C44   A    
N8    H43   S    
O78   H75   S    
C90   O30   A    
C7    C72   S    
C109  H21   S    
C175  C183  A    
C58   C140  S    
C176  C184  A    
C8    C71   S    
C48   C96   A    
Cu7   O31   S    
N10   H55   S    
C56   C134  S    
O74   H73   S    
C148  C162  A    
Cu9   O40   S    
N6    H40   S    
Cu10  O39   S    
C1    O17   A    
C183  C188  A    
N4    H36   S    
C3    O19   A    
C108  C116  A    
C21   C93   A    
C78   C94   A    
N14   H63   S    
C188  H4    S    
C20   H12   S    
C49   C97   A    
C21   C42   A    
C22   C41   A    
C51   C107  A    
C194  O59   D    
O66   H69   S    
C24   C43   A    
Cu1   O25   S    
C68   C196  S    
C199  O69   D    
C121  N13   S    
C82   C122  A    
C161  C165  A    
C17   C175  A    
C60   C138  S    
C204  O80   S    
C18   C176  A    
C6    C69   S    
C29   C125  A    
C69   C77   A    
N15   H65   S    
C53   C135  S    
C31   C127  A    
C45   C93   A    
C174  C182  A    
C71   C79   A    
N7    H42   S    
C179  C186  A    
C62   C70   A    
C11   C176  A    
C155  N2    S    
C17   C144  A    
C1    C74   S    
C105  C113  A    
C18   C143  A    
C78   C118  A    
C149  C151  A    
C192  O56   S    
C66   C74   A    
C49   C57   A    
C124  C132  A    
C151  N6    S    
C195  O62   S    
C52   C60   A    
C59   C67   A    
C53   C61   A    
C141  C159  A    
C20   C174  A    
C23   C95   A    
C190  O52   S    
C55   C63   A    
C86   C181  S    
C56   C64   A    
C35   C43   A    
Cu11  O41   S    
C62   C190  S    
C139  O37   A    
C45   C53   A    
N1    H29   S    
C22   C94   A    
C171  C179  A    
C169  C177  A    
C191  O54   S    
C50   C98   A    
Cu3   O11   S    
N2    H31   S    
Cu11  O36   S    
C104  C112  A    
Cu9   O48   S    
Cu12  O35   S    
Cu10  O47   S    
C145  C163  A    
C146  C164  A    
C14   C147  A    
C52   C100  A    
C7    O23   A    
C16   C145  A    
C178  C186  A    
C25   C38   A    
C46   C94   A    
C27   C40   A    
C10   C166  A    
C91   C180  S    
Cu8   O24   S    
N5    H37   S    
C182  C188  A    
C89   C178  S    
C28   C36   A    
C2    C73   S    
C25   C97   A    
C39   C116  A    
C140  O38   A    
C67   C75   A    
C50   C106  A    
C133  O35   A    
C88   O7    A    
Cu7   O15   S    
C8    O24   A    
C22   C30   A    
Cu5   O13   S    
C20   C141  A    
C15   C146  A    
C118  N10   S    
C86   O26   A    
Cu4   O20   S    
C184  C187  A    
C32   C128  A    
C144  C152  A    
C129  C201  S    
C87   O27   A    
C3    O16   A    
Cu9   O37   S    
Cu9   Cu10  S    
C202  O76   S    
C91   O31   A    
C1    O14   A    
C13   C171  A    
C7    O12   A    
C157  C159  A    
N16   H67   S    
N3    H33   S    
C67   C195  S    
C117  C125  A    
C15   H7    S    
C25   C33   A    
C200  O72   S    
C119  C127  A    
C131  C203  S    
C82   C98   A    
Cu2   O10   S    
O54   H47   S    
C157  C167  A    
C80   C120  A    
C158  C168  A    
O76   H74   S    
C198  O68   S    
C122  N14   S    
C19   H11   S    
C150  N7    S    
C164  C165  A    
C17   H9    S    
C201  O74   S    
C120  C128  A    
N12   H60   S    
C40   C115  A    
C70   C78   A    
C101  C109  A    
O72   H72   S    
C187  H3    S    
C177  C185  A    
C57   C139  S    
C103  C111  A    
C185  H1    S    
C193  O58   S    
C4    C75   S    
Cu2   Cu5   S    
C162  C166  A    
C123  N15   S    
C102  H14   S    
C64   C192  S    
C79   C119  A    
Cu5   O29   S    
O68   H70   S    
C89   O2    A    
C153  C155  A    
C154  C156  A    
C172  C180  A    
C189  O50   S    
C173  C181  A    
O56   H48   S    
C197  O66   S    
C83   C99   A    
C158  C160  A    
Cu7   O7    S    
C154  N3    S    
N8    H44   S    
C74   C82   A    
Cu5   O5    S    
C65   C193  S    
N9    H54   S    
C6    O9    A    
C47   C103  A    
C136  O34   A    
C85   O6    A    
C50   C58   A    
C5    O21   A    
C163  C166  A    
N10   H56   S    
C147  C161  A    
N7    H41   S    
C126  C198  S    
C49   C105  A    
Cu8   O8    S    
C92   O3    A    
Cu3   O27   S    
C23   C44   A    
O52   H46   S    
Cu1   O1    S    
O64   H52   S    
C19   C173  A    
C79   C95   A    
C92   C179  S    
C114  H26   S    
Cu9   O45   S    
C119  N11   S    
N11   H57   S    
C46   C54   A    
N14   H64   S    
C111  H23   S    
C45   C101  A    
C106  H18   S    
C106  C114  A    
C116  H28   S    
C19   C142  A    
C13   H5    S    
C102  C110  A    
C134  O42   A    
C110  H22   S    
C103  H15   S    
C204  O79   D    
C33   C129  A    
Cu4   O4    S    
C134  O36   A    
C36   C132  A    
C123  C131  A    
C57   C65   A    
N15   H66   S    
C26   C37   A    
C10   C170  A    
C54   C62   A    
C28   C39   A    
C33   C41   A    
C142  C150  A    
C9    C165  A    
C2    O18   A    
O62   H51   S    
C55   C133  S    
C75   C83   A    
C192  O55   D    
C138  O40   A    
C77   C93   A    
C195  O61   D    
Cu4   O12   S    
C87   O8    A    
O58   H49   S    
C108  H20   S    
C44   C111  A    
C16   C170  A    
C60   C68   A    
C72   C80   A    
C190  O51   D    
C29   C37   A    
C153  N4    S    
C203  O78   S    
C9    C172  A    
C148  C156  A    
C83   C123  A    
Cu11  O44   S    
C170  C178  A    
Cu12  O43   S    
Cu2   O26   S    
C30   C126  A    
N3    H34   S    
C196  O63   D    
C152  N5    S    
C141  C149  A    
C88   O28   A    
C191  O53   D    
C128  C200  S    
C46   C102  A    
Cu8   O16   S    
N6    H39   S    
N2    H32   S    
Cu10  O38   S    
C77   C117  A    
C199  O70   S    
N4    H35   S    
C59   C137  S    
C48   C104  A    
C65   C73   A    
C159  C168  A    
C15   C169  A    
C160  C167  A    
Cu8   O32   S    
C4    O20   A    
Cu12  O34   S    
C58   C66   A    
Cu3   O3    S    
C194  O60   S    
Cu7   O23   S    
Cu5   O21   S    
C80   C96   A    
C145  C153  A    
C28   C100  A    
C32   C40   A    
C38   C113  A    
C52   C108  A    
C92   O32   A    
C26   C34   A    
C143  C157  A    
C125  C197  S    
C51   C99   A    
C11   C173  A    
Cu1   O17   S    
C89   O29   A    
C139  O47   A    
C14   C172  A    
C87   C184  S    
C88   C183  S    
Cu6   O30   S    
C132  C204  S    
O70   H71   S    
C133  O41   A    
C54   C136  S    
Cu6   O22   S    
C196  O64   S    
C117  N9    S    
C68   C76   A    
C3    C76   S    
C107  C115  A    
C202  O75   D    
C26   C98   A    
C12   C175  A    
N11   H58   S    
C135  O33   A    
N16   H68   S    
C41   C110  A    
N1    H30   S    
C150  C152  A    
C51   C59   A    
C43   C112  A    
C144  C158  A    
C47   C55   A    
C200  O71   D    
C8    O11   A    
C61   C69   A    
C48   C56   A    
Cu6   O14   S    
C142  C160  A    
C16   H8    S    
Cu11  O33   S    
Cu10  O46   S    
C84   C124  A    
C198  O67   D    
C85   O25   A    
C13   C148  A    
C91   O4    A    
C140  O48   A    
C156  N1    S    
C201  O73   D    
C137  O39   A    
N13   H62   S    
C81   C97   A    
C137  O45   A    
N5    H38   S    
C31   C39   A    
C64   C72   A    
C193  O57   D    
C2    O13   A    
C180  C185  A    
C120  N12   S    
C34   C130  A    
C12   C168  A    
C130  C202  S    
C47   C95   A    
C118  C126  A    
C30   C38   A    
N13   H61   S    
C122  C130  A    
O80   H76   S    
