data_mof_unit_27883.cif
_audit_creation_date              2013-03-05T16:42:52-0500
_audit_creation_method            fapswitch 2.2
_symmetry_space_group_name_H-M    P1
_symmetry_Int_Tables_number       1
_space_group_crystal_system       triclinic
_cell_length_a                    9.904372
_cell_length_b                    10.694551
_cell_length_c                    13.608138
_cell_angle_alpha                 90.470067
_cell_angle_beta                  83.550728
_cell_angle_gamma                 89.55742
_cell_volume                      1432.18811387

loop_
_atom_site_label
_atom_site_type_symbol
_atom_site_description
_atom_site_fract_x
_atom_site_fract_y
_atom_site_fract_z
_atom_type_partial_charge
O1    O     O_R   0.385310 0.683210 0.499990 -0.598581
O2    O     O_R   0.614650 0.683240 0.500000 -0.605327
C1    C     C_R   0.499626 0.739907 0.499805 0.904313
O3    O     O_R   0.368820 0.499950 0.640340 -0.566423
O4    O     O_R   0.598170 0.499990 0.640350 -0.589203
C2    C     C_R   0.476074 0.498972 0.685602 0.910944
Zn1   Zn    Zn3+2 0.346870 0.499980 0.499990 0.996225
Zn2   Zn    Zn3+2 0.653130 0.500020 0.500010 0.978441
O5    O     O_R   0.385350 0.316760 0.500000 -0.619447
O6    O     O_R   0.614690 0.316790 0.500010 -0.633100
O7    O     O_R   0.401830 0.500010 0.359650 -0.624615
O8    O     O_R   0.631180 0.500050 0.359660 -0.625594
C3    C     C_R   0.500730 0.260388 0.497375 0.860399
C4    C     C_R   0.523712 0.498704 0.314395 0.874765
C5    C     C_1   0.540301 0.486289 0.211015 -0.183669
C6    C     C_2   0.550931 0.460716 0.020450 -0.199300
C7    C     C_2   0.438440 0.489887 0.981081 -0.166279
C8    C     C_1   0.444246 0.491608 0.877058 0.017049
C9    C     C_1   0.549709 0.473550 0.123756 0.014043
C10   C     C_1   0.457723 0.494653 0.789272 -0.156852
H1    H     H_    0.345893 0.519817 0.025993 0.171197
H2    H     H_    0.644128 0.432444 0.975700 0.145384
C11   C     C_R   0.380091 0.938594 0.520845 0.056913
C12   C     C_R   0.499385 0.871915 0.491838 -0.056813
C13   C     C_R   0.615887 0.933596 0.449271 -0.221067
H3    H     H_    0.707163 0.882461 0.421138 0.167316
C14   C     C_R   0.616569 0.063040 0.447623 -0.222978
H4    H     H_    0.708415 0.111186 0.419181 0.164538
C15   C     C_R   0.500285 0.128699 0.487720 -0.052835
C16   C     C_R   0.380367 0.066143 0.517165 0.065470
C17   C     C_3   0.290092 0.080993 0.611869 -0.587519
C18   C     C_3   0.291352 0.939230 0.617864 0.321490
H5    H     H_    0.341310 0.129346 0.670013 0.211188
H6    H     H_    0.188974 0.120318 0.600156 0.172037
H7    H     H_    0.191315 0.895237 0.611832 0.137788
C19   C     C_R   0.918069 0.443294 0.573380 0.100609
N1    N     N_R   0.857130 0.500860 0.500650 -0.068884
C20   C     C_R   0.939568 0.550584 0.423535 -0.094401
H8    H     H_    0.894716 0.592647 0.362740 0.130115
C21   C     C_R   0.083194 0.550841 0.423640 -0.065397
H9    H     H_    0.145906 0.593361 0.362979 0.130812
N2    N     N_R   0.142770 0.500820 0.500650 -0.068272
C22   C     C_R   0.060352 0.442039 0.572882 0.019706
C23   C     C_3   0.048532 0.468143 0.681939 0.059853
C24   C     C_3   0.894110 0.471844 0.681735 0.215184
H10   H     H_    0.084671 0.388670 0.724614 0.052317
H11   H     H_    0.838854 0.394669 0.723140 0.022694
N3    N     N_R   0.106103 0.588225 0.707411 0.265480
O9    O     O_R   0.160018 0.599362 0.789827 -0.461946
O10   O     O_R   0.092199 0.686826 0.653974 -0.403568
O11   O     O_3   0.836103 0.592541 0.698601 -0.549794
C25   C     C_3   0.800335 0.612266 0.800869 0.139633
H12   H     H_    0.889299 0.598169 0.842902 0.158396
H13   H     H_    0.719238 0.546688 0.829065 0.117576
C26   C     C_3   0.748052 0.746341 0.817728 -0.295301
H14   H     H_    0.828687 0.812309 0.788389 0.238325
H15   H     H_    0.658024 0.761066 0.777029 0.232067
C27   C     C_3   0.708611 0.774380 0.927365 -1.006633
H16   H     H_    0.623043 0.714162 0.957078 0.281730
H17   H     H_    0.676016 0.873690 0.937160 0.266763
H18   H     H_    0.796659 0.758296 0.969746 0.272419
O12   O     O_3   0.363095 0.894163 0.694655 -0.620140
C28   C     C_3   0.278571 0.899650 0.785336 0.121244
H19   H     H_    0.185319 0.843497 0.781357 0.206971
H20   H     H_    0.248440 0.997980 0.805087 0.117893
C29   C     C_3   0.357062 0.847219 0.866388 -0.295262
H21   H     H_    0.395791 0.752237 0.844544 0.251318
H22   H     H_    0.445426 0.908107 0.875025 0.215303
C30   C     C_3   0.268064 0.839688 0.965152 -0.953711
H23   H     H_    0.229629 0.934144 0.989295 0.257742
H24   H     H_    0.328845 0.801588 0.022025 0.263075
H25   H     H_    0.180668 0.776827 0.958669 0.286187

loop_
_geom_bond_atom_site_label_1
_geom_bond_atom_site_label_2
_geom_bond_distance
_ccdc_geom_bond_type
C30   H25   1.110939 S    
C29   H22   1.111062 S    
C26   H14   1.112048 S    
C17   H5    1.112786 S    
O12   C28   1.411741 S    
C14   C15   1.399037 A    
C2    C10   1.403215 S    
C11   C16   1.365420 A    
Zn1   O7    1.926134 S    
C17   C18   1.518985 S    
C25   C26   1.527491 S    
O8    C4    1.288395 A    
C16   C17   1.490351 S    
Zn2   O8    1.946349 S    
C11   C18   1.501552 S    
C27   H18   1.111302 S    
C28   H20   1.113398 S    
C7    C8    1.410532 S    
C13   H3    1.083538 S    
C28   C29   1.526870 S    
C18   O12   1.413843 S    
C19   C24   1.495526 S    
C28   H19   1.111701 S    
Zn1   N2    2.020443 S    
C12   C13   1.403563 A    
C5    C9    1.187237 T    
C1    C12   1.416819 S    
C15   C16   1.388714 A    
C19   N1    1.364299 A    
O3    Zn1   1.946349 S    
O4    C2    1.294110 A    
N3    O10   1.300977 A    
N3    O9    1.300197 A    
C20   C21   1.422706 A    
N1    C20   1.368957 A    
C25   H13   1.108206 S    
C29   H21   1.109385 S    
O2    C1    1.286541 A    
C30   H23   1.110768 S    
C26   H15   1.112113 S    
C22   C23   1.499254 S    
C6    C9    1.410061 S    
C20   H8    1.081545 S    
O7    C4    1.292015 A    
C7    H1    1.087467 S    
C26   C27   1.525899 S    
C29   C30   1.525294 S    
C30   H24   1.110615 S    
Zn2   N1    2.021579 S    
C24   O11   1.415266 S    
C11   C12   1.392103 A    
C27   H17   1.110274 S    
O11   C25   1.410679 S    
C18   H7    1.111134 S    
C21   N2    1.369604 A    
C17   H6    1.111646 S    
C25   H12   1.113052 S    
C8    C10   1.187780 T    
Zn2   O6    1.999090 S    
O3    C2    1.286406 A    
N2    C22   1.365831 A    
C24   H11   1.115125 S    
C3    C15   1.413481 S    
C14   H4    1.083443 S    
Zn1   O5    1.993288 S    
O4    Zn2   1.926134 S    
C4    C5    1.402990 S    
C21   H9    1.081360 S    
C19   C22   1.408440 A    
O5    C3    1.284708 A    
C23   H10   1.112584 S    
C27   H16   1.110048 S    
O1    Zn1   1.999090 S    
O6    C3    1.287776 A    
O2    Zn2   1.993288 S    
C23   C24   1.529975 S    
C23   N3    1.463862 S    
C6    H2    1.086588 S    
C6    C7    1.325576 D    
O1    C1    1.288250 A    
C13   C14   1.384774 A    
