data_mof_unit_49423.cif
_audit_creation_date              2013-03-05T15:59:11-0500
_audit_creation_method            fapswitch 2.2
_symmetry_space_group_name_H-M    P1
_symmetry_Int_Tables_number       1
_space_group_crystal_system       triclinic
_cell_length_a                    12.763918
_cell_length_b                    13.113853
_cell_length_c                    15.754734
_cell_angle_alpha                 93.406065
_cell_angle_beta                  102.092658
_cell_angle_gamma                 81.213921
_cell_volume                      2547.29201735

loop_
_atom_site_label
_atom_site_type_symbol
_atom_site_description
_atom_site_fract_x
_atom_site_fract_y
_atom_site_fract_z
_atom_type_partial_charge
O1    O     O_R   0.366740 0.627160 0.478850 -0.573335
O2    O     O_R   0.544830 0.662520 0.507140 -0.571006
C1    C     C_R   0.438991 0.691325 0.489620 0.929492
O3    O     O_R   0.410920 0.482310 0.608710 -0.578280
O4    O     O_R   0.589010 0.517670 0.637000 -0.571654
C2    C     C_R   0.501015 0.500344 0.661042 0.865192
Zn1   Zn    Zn3+2 0.381090 0.476390 0.481110 1.113757
Zn2   Zn    Zn3+2 0.618910 0.523610 0.518890 1.114267
O5    O     O_R   0.455170 0.337480 0.492860 -0.617746
O6    O     O_R   0.633260 0.372840 0.521150 -0.554101
O7    O     O_R   0.410990 0.482330 0.363000 -0.563403
O8    O     O_R   0.589080 0.517690 0.391290 -0.535936
C3    C     C_R   0.561440 0.309013 0.514064 0.938229
C4    C     C_R   0.498921 0.499904 0.339080 0.931498
C5    C     C_3   0.376128 0.547846 0.929848 0.269368
C6    C     C_3   0.578484 0.576103 0.967971 0.107825
C7    C     C_3   0.574265 0.585387 0.067911 0.436690
H1    H     H_    0.658228 0.536487 0.959467 0.218674
C8    C     C_1   0.497012 0.500822 0.250214 0.086090
C9    C     C_3   0.495875 0.505267 0.916487 -0.334748
C10   C     C_3   0.375293 0.531357 0.031064 0.379027
C11   C     C_3   0.498089 0.505664 0.083733 -0.344869
C12   C     C_3   0.551359 0.397305 0.052861 0.080570
C13   C     C_3   0.531065 0.392601 0.952355 -0.021383
C14   C     C_1   0.497703 0.502815 0.175271 0.263398
C15   C     C_1   0.501156 0.502954 0.825287 0.240280
C16   C     C_1   0.502822 0.501534 0.750217 0.030568
H2    H     H_    0.463582 0.347864 0.928744 0.259958
H3    H     H_    0.639859 0.388565 0.079172 0.218431
C17   C     C_R   0.730592 0.045798 0.515290 0.279239
C18   C     C_R   0.599930 0.198674 0.527126 -0.195612
C19   C     C_R   0.312112 0.837901 0.528801 -0.216043
C20   C     C_R   0.300001 0.935645 0.568528 0.291528
C21   C     C_R   0.382932 0.996642 0.574700 0.311110
C22   C     C_R   0.465778 0.967766 0.525637 -0.026533
C23   C     C_R   0.472402 0.871358 0.481101 -0.065548
C24   C     C_R   0.544985 0.030124 0.521654 0.069404
C25   C     C_R   0.643024 0.987742 0.496452 -0.177962
C26   C     C_R   0.645083 0.894874 0.446480 0.249299
C27   C     C_R   0.553872 0.843680 0.431450 0.350094
C28   C     C_R   0.522066 0.136349 0.529271 -0.111957
C29   C     C_R   0.708710 0.152339 0.534715 0.349851
C30   C     C_R   0.401892 0.802592 0.491695 -0.098956
H4    H     H_    0.439914 0.171135 0.529824 0.227357
H5    H     H_    0.257275 0.785725 0.535372 0.259509
C31   C     C_R   0.119088 0.305132 0.422846 0.170009
H6    H     H_    0.926368 0.256879 0.417040 0.242556
N1    N     N_R   0.222200 0.444690 0.455710 -0.202653
C32   C     C_R   0.798833 0.632362 0.604428 0.398020
C33   C     C_R   0.905182 0.649880 0.637945 0.276314
C34   C     C_R   0.990719 0.589791 0.607552 0.225771
C35   C     C_R   0.967874 0.517016 0.538515 -0.123199
C36   C     C_R   0.860154 0.493078 0.512344 0.052562
C37   C     C_R   0.050728 0.462284 0.497986 -0.027926
C38   C     C_R   0.038267 0.363219 0.460989 -0.119264
C39   C     C_R   0.938465 0.330678 0.449523 -0.044070
C40   C     C_R   0.848398 0.399702 0.460306 0.452176
C41   C     C_R   0.141779 0.504935 0.487024 0.481612
C42   C     C_R   0.210262 0.349254 0.418839 0.279558
N2    N     N_R   0.776960 0.554780 0.543830 -0.160743
Cl1   Cl    Cl    0.301794 0.642173 0.078725 -0.295419
N3    N     N_R   0.292453 0.493214 0.873728 0.251734
O9    O     O_R   0.315542 0.418646 0.819330 -0.292833
O10   O     O_R   0.190899 0.525237 0.874548 -0.193664
N4    N     N_R   0.315864 0.445360 0.043802 0.259720
O11   O     O_R   0.305077 0.366574 0.990098 -0.242600
O12   O     O_R   0.283033 0.441494 0.116343 -0.217192
Cl2   Cl    Cl    0.816320 0.221189 0.580452 -0.441393
N5    N     N_R   0.730254 0.860887 0.400062 0.267740
O13   O     O_R   0.776169 0.765116 0.403226 -0.267316
O14   O     O_R   0.753926 0.922512 0.347361 -0.230910
N6    N     N_R   0.840244 0.996592 0.519899 0.271982
O15   O     O_R   0.873918 0.909303 0.558793 -0.259795
O16   O     O_R   0.907045 0.038861 0.485858 -0.216449
Cl3   Cl    Cl    0.396164 0.090533 0.660844 -0.405427
N7    N     N_R   0.208901 0.967730 0.609522 0.280467
O17   O     O_R   0.156632 0.899600 0.632382 -0.211499
O18   O     O_R   0.169743 0.064975 0.614898 -0.205056
N8    N     N_R   0.349147 0.656630 0.900813 0.273623
O19   O     O_R   0.324058 0.673275 0.817848 -0.247676
O20   O     O_R   0.356021 0.737054 0.952751 -0.166008
Cl4   Cl    Cl    0.534350 0.756882 0.340888 -0.433289
N9    N     N_R   0.285211 0.298827 0.368199 0.252063
O21   O     O_R   0.324077 0.201843 0.379476 -0.339046
O22   O     O_R   0.290249 0.340247 0.296507 -0.244094
N10   N     N_R   0.105078 0.205868 0.382015 0.236566
O23   O     O_R   0.097725 0.192583 0.298589 -0.212669
O24   O     O_R   0.100437 0.128476 0.428385 -0.269804
Cl5   Cl    Cl    0.137139 0.639026 0.484665 -0.464450
Cl6   Cl    Cl    0.696017 0.703551 0.651808 -0.431591
N11   N     N_R   0.099779 0.590934 0.655631 0.257933
O25   O     O_R   0.162628 0.504546 0.676551 -0.289158
O26   O     O_R   0.137165 0.677619 0.678158 -0.194059
Cl7   Cl    Cl    0.931257 0.740284 0.725115 -0.233826
Cl8   Cl    Cl    0.737531 0.360876 0.387427 -0.517643
Cl9   Cl    Cl    0.578031 0.696902 0.918527 -0.290753
Cl10  Cl    Cl    0.526756 0.715070 0.101460 -0.231426
N12   N     N_R   0.684724 0.561733 0.122836 0.211237
O27   O     O_R   0.771439 0.547424 0.089881 -0.261278
O28   O     O_R   0.698115 0.570152 0.207066 -0.265786
N13   N     N_R   0.625037 0.335478 0.921022 0.242047
O29   O     O_R   0.611748 0.257005 0.867310 -0.235399
O30   O     O_R   0.722390 0.358012 0.949108 -0.290672
Cl11  Cl    Cl    0.514641 0.286143 0.095038 -0.319286

loop_
_geom_bond_atom_site_label_1
_geom_bond_atom_site_label_2
_geom_bond_distance
_ccdc_geom_bond_type
C38   C39   1.377655 A    
N13   O29   1.301382 A    
C18   C29   1.411622 A    
C31   C42   1.390641 A    
C19   H5    1.074186 S    
C22   C23   1.408782 A    
C32   Cl6   1.761919 S    
C32   C33   1.398129 A    
Zn1   O7    1.984467 S    
C1    C30   1.464277 S    
C15   C16   1.186346 T    
C24   C25   1.414894 A    
C32   N2    1.372655 A    
C12   H3    1.109452 S    
C22   C24   1.407125 A    
C42   N9    1.432767 S    
C13   N13   1.474172 S    
C25   C26   1.410205 A    
O7    C4    1.312006 A    
N10   O24   1.300703 A    
C39   C40   1.384008 A    
C17   C25   1.418139 A    
C21   C22   1.429830 A    
N5    O14   1.301221 A    
O5    C3    1.327073 A    
N3    O10   1.302617 A    
C34   N11   1.440484 S    
C19   C30   1.398489 A    
C5    N8    1.491456 S    
C9    C13   1.579293 S    
C6    C7    1.583546 S    
N4    O12   1.303218 A    
C11   C14   1.445911 S    
C31   C38   1.403875 A    
C12   C13   1.549062 S    
C7    N12   1.489942 S    
C10   Cl1   1.817923 S    
C2    C16   1.399476 S    
C6    C9    1.576064 S    
C21   Cl3   1.776355 S    
N13   O30   1.301329 A    
C10   C11   1.607998 S    
C29   Cl2   1.762907 S    
O3    Zn1   1.965224 S    
C36   N2    1.392456 A    
C35   C37   1.427532 A    
C20   C21   1.405727 A    
C5    C9    1.597610 S    
C6    Cl9   1.805062 S    
C34   C35   1.416908 A    
C27   Cl4   1.771479 S    
C23   C27   1.420130 A    
N7    O17   1.301573 A    
N6    O16   1.301235 A    
C26   C27   1.402326 A    
N8    O20   1.298166 A    
C36   C40   1.442001 A    
N10   O23   1.301066 A    
C33   Cl7   1.771413 S    
O1    C1    1.319785 A    
N3    O9    1.302223 A    
N11   O26   1.301056 A    
C20   N7    1.441912 S    
N9    O21   1.300921 A    
Zn2   O8    1.965224 S    
C33   C34   1.397705 A    
C26   N5    1.435836 S    
O3    C2    1.311776 A    
N9    O22   1.299579 A    
O8    C4    1.310681 A    
N4    O11   1.301176 A    
N12   O28   1.302197 A    
C28   H4    1.079318 S    
N11   O25   1.300576 A    
C35   C36   1.427564 A    
N1    C42   1.364469 A    
C37   C41   1.409770 A    
Zn1   O5    1.920224 S    
C37   C38   1.409641 A    
C18   C28   1.386506 A    
C10   N4    1.496491 S    
O1    Zn1   1.959347 S    
C4    C8    1.395890 S    
C3    C18   1.467399 S    
Zn2   O6    1.959348 S    
O2    Zn2   1.920223 S    
C13   H2    1.103936 S    
N7    O18   1.301329 A    
N6    O15   1.301248 A    
O6    C3    1.316751 A    
O4    Zn2   1.984469 S    
C17   N6    1.437904 S    
N1    C41   1.356224 A    
C7    C11   1.594854 S    
C19   C20   1.394037 A    
O2    C1    1.320653 A    
Zn1   N1    2.084162 S    
O4    C2    1.312641 A    
C9    C15   1.450758 S    
C5    N3    1.482741 S    
C12   Cl11  1.800153 S    
C24   C28   1.382331 A    
N5    O13   1.301403 A    
C8    C14   1.184455 T    
C41   Cl5   1.752722 S    
N8    O19   1.302240 A    
C5    C10   1.624348 S    
C6    H1    1.100540 S    
N12   O27   1.302145 A    
C40   Cl8   1.746419 S    
C11   C12   1.574615 S    
C17   C29   1.410512 A    
C23   C30   1.407063 A    
C7    Cl10  1.803257 S    
Zn2   N2    2.071675 S    
H6    C39   1.084456 S    
C31   N10   1.436565 S    
