data_mof_unit_60515.cif
_audit_creation_date              2012-12-10T20:13:41-0500
_audit_creation_method            fapswitch 2.2
_symmetry_space_group_name_H-M    P1
_symmetry_Int_Tables_number       1
_space_group_crystal_system       triclinic
_cell_length_a                    15.914753
_cell_length_b                    15.913925
_cell_length_c                    39.726698
_cell_angle_alpha                 90.000208
_cell_angle_beta                  89.999945
_cell_angle_gamma                 90.055982
_cell_volume                      10061.4244676

loop_
_atom_site_label
_atom_site_type_symbol
_atom_type_description
_atom_site_fract_x
_atom_site_fract_y
_atom_site_fract_z
_atom_type_partial_charge
C1    C     C_R   0.000006 0.500002 0.948729 -0.060713
C2    C     C_1   0.000007 0.500003 0.015274 0.085621
C3    C     C_1   0.500003 0.000001 0.984726 0.085629
C4    C     C_1   0.500003 0.000002 0.014987 -0.003740
C5    C     C_1   0.500015 0.999995 0.484972 -0.003936
C6    C     C_1   0.500015 0.999995 0.515226 0.085521
C7    C     C_1   0.999993 0.500016 0.484715 0.085118
C8    C     C_1   0.999993 0.500018 0.514974 0.000630
C9    C     C_R   0.500000 0.999999 0.840945 0.629714
C10   C     C_R   0.500000 0.000000 0.159011 0.609177
C11   C     C_R   0.000000 0.500000 0.840990 0.608952
C12   C     C_R   0.000006 0.500002 0.051562 0.036604
C13   C     C_R   0.000000 0.500000 0.159055 0.629798
C14   C     C_R   0.000000 0.500001 0.340943 0.629834
C15   C     C_R   0.000000 0.500001 0.659005 0.604829
C16   C     C_R   0.500002 0.000000 0.340985 0.609004
C17   C     C_R   0.499998 0.999999 0.659037 0.624565
C18   C     C_R   0.660091 0.160091 0.749999 0.547441
C19   C     C_R   0.339910 0.839909 0.250000 0.546223
C20   C     C_R   0.839896 0.660103 0.750001 0.526647
C21   C     C_R   0.160102 0.339897 0.250000 0.531084
C22   C     C_R   0.339909 0.839909 0.749999 0.547422
C23   C     C_R   0.500002 0.000001 0.948438 0.036606
C24   C     C_R   0.660090 0.160091 0.250000 0.546232
C25   C     C_R   0.160104 0.339897 0.750001 0.526645
C26   C     C_R   0.839898 0.660103 0.250000 0.531090
C27   C     C_R   0.660103 0.839896 0.250000 0.526138
C28   C     C_R   0.339900 0.160105 0.750001 0.530373
C29   C     C_R   0.839910 0.339909 0.250000 0.546195
C30   C     C_R   0.160090 0.660091 0.750000 0.547710
C31   C     C_R   0.339897 0.160104 0.250000 0.526136
C32   C     C_R   0.660100 0.839894 0.750001 0.530378
C33   C     C_R   0.160090 0.660091 0.250000 0.546180
C34   C     C_R   0.500002 0.000001 0.051271 -0.060714
C35   C     C_R   0.839910 0.339909 0.750000 0.547705
C36   C     C_1   0.276640 0.223366 0.750001 0.019512
C37   C     C_1   0.723364 0.776635 0.250000 0.017649
C38   C     C_1   0.776646 0.276645 0.750000 0.041503
C39   C     C_1   0.223354 0.723356 0.250000 0.037809
C40   C     C_1   0.723360 0.776633 0.750001 0.019515
C41   C     C_1   0.276636 0.223365 0.250000 0.017642
C42   C     C_1   0.223354 0.723355 0.750000 0.041501
C43   C     C_1   0.776646 0.276644 0.250000 0.037809
C44   C     C_1   0.276646 0.776645 0.250000 0.038228
C45   C     C_R   0.500013 0.999996 0.448699 -0.060677
C46   C     C_1   0.723354 0.223355 0.749999 0.040570
C47   C     C_1   0.776637 0.723364 0.250000 0.018506
C48   C     C_1   0.223366 0.276637 0.750002 0.018983
C49   C     C_1   0.723354 0.223355 0.250000 0.038238
C50   C     C_1   0.276646 0.776644 0.749999 0.040567
C51   C     C_1   0.223362 0.276636 0.250000 0.018496
C52   C     C_1   0.776634 0.723363 0.750002 0.018985
C53   C     C_R   0.064377 0.541997 0.931211 0.089759
C54   C     C_R   0.929799 0.468912 0.068864 0.069522
C55   C     C_R   0.468913 0.929791 0.931135 0.069518
C56   C     C_R   0.500012 0.999994 0.551504 0.037264
C57   C     C_R   0.541947 0.064408 0.068790 0.089754
C58   C     C_R   0.935634 0.458005 0.931212 0.089765
C59   C     C_R   0.070211 0.531091 0.068866 0.069521
C60   C     C_R   0.531088 0.070212 0.931135 0.069546
C61   C     C_R   0.458056 0.935594 0.068790 0.089754
C62   C     C_R   0.564296 0.042134 0.431187 0.089941
C63   C     C_R   0.432195 0.963985 0.568793 0.069909
C64   C     C_R   0.968943 0.429782 0.431129 0.069623
C65   C     C_R   0.042267 0.564215 0.568768 0.087960
C66   C     C_R   0.435726 0.957863 0.431188 0.089930
C67   C     C_R   0.999995 0.500012 0.448429 0.036134
C68   C     C_R   0.567827 0.036001 0.568796 0.069944
C69   C     C_R   0.031051 0.570235 0.431127 0.069546
C70   C     C_R   0.957723 0.435811 0.568766 0.087968
C71   C     C_R   0.066491 0.539774 0.895788 0.245570
C72   C     C_R   0.927929 0.470827 0.104459 0.209591
C73   C     C_R   0.470824 0.927924 0.895540 0.209657
C74   C     C_R   0.539723 0.066520 0.104213 0.245506
C75   C     C_R   0.933517 0.460226 0.895789 0.245576
C76   C     C_R   0.072078 0.529174 0.104461 0.209591
C77   C     C_R   0.529170 0.072080 0.895540 0.209676
C78   C     C_R   0.999994 0.500015 0.551258 -0.047151
C79   C     C_R   0.460278 0.933482 0.104212 0.245504
C80   C     C_R   0.566423 0.039903 0.395768 0.245506
C81   C     C_R   0.430153 0.965761 0.604385 0.208391
C82   C     C_R   0.970864 0.427909 0.395535 0.209693
C83   C     C_R   0.040236 0.566254 0.604195 0.235915
C84   C     C_R   0.433589 0.960102 0.395770 0.245507
C85   C     C_R   0.569863 0.034223 0.604387 0.208394
C86   C     C_R   0.029144 0.572093 0.395533 0.209643
C87   C     C_R   0.959760 0.433762 0.604193 0.235927
C88   C     C_R   0.000003 0.500000 0.878034 -0.050137
C89   C     C_1   0.000007 0.500003 0.985014 -0.003736
C90   C     C_R   0.000002 0.500000 0.122076 -0.021957
C91   C     C_R   0.499998 0.000001 0.877924 -0.021867
C92   C     C_R   0.500000 0.000001 0.121967 -0.050222
C93   C     C_R   0.500005 0.000002 0.378019 -0.050363
C94   C     C_R   0.500005 0.999996 0.622027 -0.023363
C95   C     C_R   0.000003 0.499999 0.377920 -0.022005
C96   C     C_R   1.000000 0.500005 0.621948 -0.044985
H1    H     H_    0.098452 0.633456 0.964032 0.248829
H2    H     H_    0.841107 0.454296 0.965421 0.260321
H3    H     H_    0.189901 0.524179 0.051390 0.299494
H4    H     H_    0.153773 0.624538 0.058317 0.301553
H5    H     H_    0.524174 0.189906 0.948613 0.299494
H6    H     H_    0.624528 0.153781 0.941683 0.301559
H7    H     H_    0.366629 0.901450 0.035967 0.248825
H8    H     H_    0.454419 0.841058 0.034582 0.260313
H9    H     H_    0.598155 0.133681 0.464006 0.248407
H10   H     H_    0.658808 0.046072 0.465400 0.259599
H11   H     H_    0.312344 0.962419 0.551268 0.299994
H12   H     H_    0.158907 0.545707 0.965418 0.260318
H13   H     H_    0.355470 0.864856 0.558216 0.294647
H14   H     H_    0.975910 0.310095 0.448611 0.299514
H15   H     H_    0.875540 0.346170 0.441678 0.300792
H16   H     H_    0.133640 0.598095 0.535876 0.248041
H17   H     H_    0.046036 0.658792 0.534580 0.264632
H18   H     H_    0.401875 0.866307 0.464005 0.248411
H19   H     H_    0.341223 0.953916 0.465405 0.259592
H20   H     H_    0.687676 0.037562 0.551268 0.299989
H21   H     H_    0.644567 0.135126 0.558227 0.294570
H22   H     H_    0.024081 0.689941 0.448587 0.299527
H23   H     H_    0.810111 0.475825 0.051387 0.299494
H24   H     H_    0.124456 0.653829 0.441690 0.300863
H25   H     H_    0.866345 0.401940 0.535875 0.248041
H26   H     H_    0.953949 0.341242 0.534574 0.264623
H27   H     H_    0.279742 0.626281 0.884993 0.376229
H28   H     H_    0.703724 0.420078 0.120038 0.378956
H29   H     H_    0.420172 0.703695 0.879943 0.378945
H30   H     H_    0.626006 0.279869 0.115019 0.376158
H31   H     H_    0.720307 0.373617 0.885014 0.376213
H32   H     H_    0.296281 0.579920 0.120044 0.378957
H33   H     H_    0.579875 0.296302 0.879958 0.378932
H34   H     H_    0.846238 0.375465 0.058313 0.301552
H35   H     H_    0.373981 0.720138 0.115014 0.376165
H36   H     H_    0.779355 0.127201 0.385061 0.376375
H37   H     H_    0.211556 0.892733 0.619051 0.395157
H38   H     H_    0.920280 0.203658 0.379956 0.378998
H39   H     H_    0.158682 0.743105 0.596931 0.377627
H40   H     H_    0.220460 0.873287 0.385002 0.376275
H41   H     H_    0.788384 0.107493 0.619008 0.395096
H42   H     H_    0.079872 0.796316 0.379932 0.378982
H43   H     H_    0.841325 0.256919 0.596916 0.377493
H44   H     H_    0.475825 0.810092 0.948607 0.299493
H45   H     H_    0.375470 0.846231 0.941690 0.301593
H46   H     H_    0.633375 0.098554 0.035969 0.248826
H47   H     H_    0.545586 0.158946 0.034583 0.260309
H48   H     H_    0.901562 0.366548 0.964034 0.248828
N1    N     N_3   0.127763 0.587443 0.949378 -0.496702
N2    N     N_3   0.366482 0.925738 0.549373 -0.603391
N3    N     N_3   0.935476 0.361483 0.450533 -0.600844
N4    N     N_3   0.087768 0.627493 0.550572 -0.542250
N5    N     N_3   0.372453 0.912263 0.449357 -0.497637
N6    N     N_3   0.633543 0.074252 0.549378 -0.603418
N7    N     N_3   0.064500 0.638545 0.450529 -0.600811
N8    N     N_3   0.912219 0.372539 0.550569 -0.542289
N9    N     N_3   0.861516 0.435414 0.049461 -0.600008
N10   N     N_3   0.435422 0.861503 0.950538 -0.599989
N11   N     N_3   0.587343 0.127831 0.050623 -0.496712
N12   N     N_3   0.872250 0.412560 0.949380 -0.496735
N13   N     N_3   0.138495 0.564589 0.049464 -0.600001
N14   N     N_3   0.564585 0.138499 0.950537 -0.599999
N15   N     N_3   0.412661 0.872172 0.050622 -0.496714
N16   N     N_3   0.627573 0.087729 0.449356 -0.497762
O1    O     O_3   0.500000 0.000000 0.750000 -0.493139
O2    O     O_R   0.430670 0.000000 0.175110 -0.485337
O3    O     O_3   0.902281 0.262166 0.601524 -0.457312
O4    O     O_R   0.000000 0.569330 0.824890 -0.485485
O5    O     O_R   0.000000 0.430670 0.175110 -0.485598
O6    O     O_R   0.930670 0.500000 0.324890 -0.485618
O7    O     O_R   0.069330 0.500000 0.675110 -0.485408
O8    O     O_R   0.500000 0.930670 0.324890 -0.485340
O9    O     O_R   0.500000 0.069330 0.675110 -0.484284
O10   O     O_R   0.069330 0.500000 0.324890 -0.485618
O11   O     O_R   0.930670 0.500000 0.675110 -0.485409
O12   O     O_R   0.500000 0.069330 0.324890 -0.485306
O13   O     O_3   0.500000 1.000000 0.250000 -0.492301
O14   O     O_R   0.500000 0.930670 0.675110 -0.484283
O15   O     O_R   0.666560 0.097440 0.769680 -0.509721
O16   O     O_R   0.333440 0.902560 0.230320 -0.507652
O17   O     O_R   0.902560 0.666560 0.769680 -0.526213
O18   O     O_R   0.097440 0.333440 0.230320 -0.525371
O19   O     O_R   0.333440 0.902560 0.769680 -0.509721
O20   O     O_R   0.666560 0.097440 0.230320 -0.507651
O21   O     O_R   0.097440 0.333440 0.769680 -0.526210
O22   O     O_R   0.902560 0.666560 0.230320 -0.525376
O23   O     O_R   0.666560 0.902560 0.230320 -0.526787
O24   O     O_3   0.000000 0.500000 0.750000 -0.493303
O25   O     O_R   0.333440 0.097440 0.769680 -0.524821
O26   O     O_R   0.902560 0.333440 0.230320 -0.509812
O27   O     O_R   0.097440 0.666560 0.769680 -0.507428
O28   O     O_R   0.333440 0.097440 0.230320 -0.526789
O29   O     O_R   0.666560 0.902560 0.769680 -0.524819
O30   O     O_R   0.097440 0.666560 0.230320 -0.509820
O31   O     O_R   0.902560 0.333440 0.769680 -0.507429
O32   O     O_R   0.166560 0.597440 0.269680 -0.509845
O33   O     O_R   0.833440 0.402560 0.730320 -0.506645
O34   O     O_R   0.402560 0.166560 0.269680 -0.526868
O35   O     O_3   0.000000 0.500000 0.250000 -0.492239
O36   O     O_R   0.597440 0.833440 0.730320 -0.526513
O37   O     O_R   0.833440 0.402560 0.269680 -0.509864
O38   O     O_R   0.166560 0.597440 0.730320 -0.506641
O39   O     O_R   0.597440 0.833440 0.269680 -0.526873
O40   O     O_R   0.402560 0.166560 0.730320 -0.526514
O41   O     O_R   0.166560 0.402560 0.730320 -0.527112
O42   O     O_R   0.833440 0.597440 0.269680 -0.525415
O43   O     O_R   0.402560 0.833440 0.730320 -0.507642
O44   O     O_R   0.597440 0.166560 0.269680 -0.507594
O45   O     O_R   0.833440 0.597440 0.730320 -0.527110
O46   O     O_R   0.430670 0.000000 0.824890 -0.485611
O47   O     O_R   0.166560 0.402560 0.269680 -0.525419
O48   O     O_R   0.597440 0.166560 0.730320 -0.507640
O49   O     O_R   0.402560 0.833440 0.269680 -0.507601
O50   O     O_2   0.175790 0.534562 0.843633 -0.302865
O51   O     O_2   0.127357 0.672785 0.862521 -0.229638
O52   O     O_3   0.238372 0.594486 0.898593 -0.457003
O53   O     O_2   0.853504 0.345996 0.138425 -0.236940
O54   O     O_2   0.823627 0.488750 0.157812 -0.298813
O55   O     O_3   0.748916 0.436666 0.104231 -0.526485
O56   O     O_2   0.346026 0.853529 0.861546 -0.236830
O57   O     O_R   0.569330 0.000000 0.175110 -0.485339
O58   O     O_2   0.488794 0.823597 0.842200 -0.299079
O59   O     O_3   0.436592 0.748909 0.895769 -0.526546
O60   O     O_2   0.534443 0.175812 0.156372 -0.302608
O61   O     O_2   0.672691 0.127487 0.137475 -0.229745
O62   O     O_3   0.594297 0.238451 0.101410 -0.457029
O63   O     O_2   0.824211 0.465430 0.843635 -0.302796
O64   O     O_2   0.872656 0.327211 0.862524 -0.229703
O65   O     O_3   0.761640 0.405505 0.898598 -0.457040
O66   O     O_2   0.146497 0.654003 0.138429 -0.236939
O67   O     O_2   0.176375 0.511247 0.157814 -0.298816
O68   O     O_R   0.000000 0.430670 0.824890 -0.485476
O69   O     O_3   0.251090 0.563338 0.104235 -0.526493
O70   O     O_2   0.653998 0.146518 0.861580 -0.236952
O71   O     O_2   0.511255 0.176377 0.842183 -0.298988
O72   O     O_3   0.563305 0.251105 0.895766 -0.526534
O73   O     O_2   0.465555 0.824188 0.156371 -0.302597
O74   O     O_2   0.327308 0.872514 0.137473 -0.229754
O75   O     O_3   0.405704 0.761551 0.101407 -0.457029
O76   O     O_2   0.675744 0.034900 0.343612 -0.302126
O77   O     O_2   0.627072 0.173029 0.362512 -0.230313
O78   O     O_3   0.738215 0.094893 0.398580 -0.457486
O79   O     O_R   0.000000 0.569330 0.175110 -0.485595
O80   O     O_2   0.364576 0.836439 0.638552 -0.241408
O81   O     O_2   0.324177 0.976961 0.657506 -0.288693
O82   O     O_3   0.253920 0.918651 0.604009 -0.526497
O83   O     O_2   0.846056 0.353401 0.361588 -0.237452
O84   O     O_2   0.988802 0.323625 0.342174 -0.298709
O85   O     O_3   0.936835 0.248866 0.395763 -0.526843
O86   O     O_2   0.034921 0.676400 0.656061 -0.267223
O87   O     O_2   0.172742 0.625434 0.638392 -0.250534
O88   O     O_3   0.097724 0.737849 0.601533 -0.457249
O89   O     O_2   0.324271 0.965132 0.343614 -0.302414
O90   O     O_R   0.569330 0.000000 0.824890 -0.485618
O91   O     O_2   0.372877 0.826985 0.362522 -0.230047
O92   O     O_3   0.261779 0.905188 0.398587 -0.457428
O93   O     O_2   0.635479 0.163590 0.638513 -0.241660
O94   O     O_2   0.675784 0.023099 0.657534 -0.288456
O95   O     O_3   0.746119 0.081213 0.604022 -0.526377
O96   O     O_2   0.153819 0.646463 0.361459 -0.237254
O97   O     O_2   0.010971 0.676470 0.342228 -0.298785
O98   O     O_3   0.063477 0.751105 0.395763 -0.526794
O99   O     O_2   0.965082 0.323603 0.656054 -0.267207
O100  O     O_2   0.827259 0.374567 0.638389 -0.250550
S1    S     S_3+6 0.152873 0.586430 0.873901 0.070191
S2    S     S_3+6 0.342288 0.923638 0.627116 0.026321
S3    S     S_3+6 0.934854 0.337496 0.372749 0.021258
S4    S     S_3+6 0.087476 0.652274 0.626149 0.074403
S5    S     S_3+6 0.347261 0.913322 0.373890 0.070111
S6    S     S_3+6 0.657728 0.076346 0.627118 0.026353
S7    S     S_3+6 0.065134 0.662492 0.372734 0.021327
S8    S     S_3+6 0.912525 0.347734 0.626143 0.074377
S9    S     S_3+6 0.837539 0.434774 0.127248 0.021583
S10   S     S_3+6 0.434774 0.837534 0.872749 0.021480
S11   S     S_3+6 0.586316 0.152938 0.126100 0.070239
S12   S     S_3+6 0.847136 0.413566 0.873904 0.070183
S13   S     S_3+6 0.162464 0.565226 0.127251 0.021580
S14   S     S_3+6 0.565218 0.162474 0.872751 0.021469
S15   S     S_3+6 0.413684 0.847063 0.126099 0.070239
S16   S     S_3+6 0.652732 0.086709 0.373885 0.070123
Zn1   Zn    Zn3+2 0.500000 0.098940 0.722030 1.062952
Zn2   Zn    Zn3+2 0.000000 0.401060 0.777970 1.058782
Zn3   Zn    Zn3+2 0.401060 0.000000 0.222030 1.057966
Zn4   Zn    Zn3+2 0.598940 1.000000 0.777970 1.062840
Zn5   Zn    Zn3+2 1.000000 0.401060 0.222030 1.062480
Zn6   Zn    Zn3+2 0.000000 0.598940 0.777970 1.058780
Zn7   Zn    Zn3+2 0.598940 0.000000 0.222030 1.057970
Zn8   Zn    Zn3+2 0.401060 1.000000 0.777970 1.062833
Zn9   Zn    Zn3+2 0.500000 0.901060 0.277970 1.057904
Zn10  Zn    Zn3+2 0.901060 0.500000 0.722030 1.058951
Zn11  Zn    Zn3+2 0.098940 0.500000 0.277970 1.062389
Zn12  Zn    Zn3+2 0.500000 0.901060 0.722030 1.062949
Zn13  Zn    Zn3+2 0.500000 0.098940 0.277970 1.057926
Zn14  Zn    Zn3+2 0.098940 0.500000 0.722030 1.058955
Zn15  Zn    Zn3+2 0.901060 0.500000 0.277970 1.062387
Zn16  Zn    Zn3+2 0.000000 0.598940 0.222030 1.062468

loop_
_geom_bond_atom_site_label_1
_geom_bond_atom_site_label_2
_ccdc_geom_bond_type
O43   Zn12  S    
C71   S1    S    
C55   N10   S    
H42   O98   S    
H32   O69   S    
C13   C90   S    
C70   C78   A    
O75   S15   S    
C3    C23   S    
H13   N2    S    
O97   S7    D    
C14   O10   A    
O11   Zn10  S    
O46   Zn8   S    
H26   N8    S    
H6    N14   S    
C54   N9    S    
H20   N6    S    
C83   S4    S    
O1    Zn8   S    
O86   S4    D    
C7    C8    T    
C13   O79   A    
C63   N2    S    
C19   C44   S    
O7    Zn14  S    
O23   Zn7   S    
C57   N11   S    
H33   O72   S    
O69   S13   S    
C16   C93   S    
C33   C39   S    
C22   O43   A    
C63   C81   A    
C33   O32   A    
C20   O45   A    
H17   N4    S    
C62   C80   A    
C26   O42   A    
C60   N14   S    
O9    Zn1   S    
C25   O41   A    
C73   S10   S    
C61   N15   S    
O47   Zn11  S    
C5    C6    T    
O3    S8    S    
C17   O9    A    
H45   N10   S    
C65   C83   A    
H9    N16   S    
O12   Zn13  S    
C70   C87   A    
O18   Zn5   S    
O24   Zn2   S    
O73   S15   D    
C45   C62   A    
C80   S16   S    
C29   O26   A    
C7    C67   S    
C18   O48   A    
O89   S5    D    
O28   Zn3   S    
O60   S11   D    
C1    C53   A    
C19   O16   A    
C29   C43   S    
H36   O78   S    
O99   S8    D    
O13   Zn9   S    
O21   Zn2   S    
C12   C59   A    
C13   O5    A    
O35   Zn16  S    
O30   Zn16  S    
O79   Zn16  S    
O10   Zn11  S    
O8    Zn9   S    
O88   S4    S    
O33   Zn10  S    
C31   O28   A    
C24   O20   A    
C34   C57   A    
C1    C89   S    
O24   Zn10  S    
C36   C48   T    
H21   N6    S    
C65   C78   A    
O66   S13   D    
C82   S3    S    
H46   N11   S    
O100  S8    D    
C20   O17   A    
O91   S5    D    
H38   O85   S    
O87   S4    D    
O61   S11   D    
O1    Zn12  S    
C32   O36   A    
C87   S8    S    
C22   C50   S    
C18   O15   A    
O50   S1    D    
C77   C91   A    
C10   C92   S    
C81   S2    S    
H23   N9    S    
O70   S14   D    
C8    C78   S    
C68   C85   A    
C15   O7    A    
O44   Zn13  S    
O48   Zn1   S    
C59   N13   S    
O83   S3    D    
C86   S7    S    
O78   S16   S    
O98   S7    S    
C18   C46   S    
O32   Zn11  S    
O56   S10   D    
O27   Zn6   S    
C25   O21   A    
C58   C75   A    
C4    C34   S    
C23   C60   A    
O39   Zn9   S    
O29   Zn4   S    
H2    N12   S    
O52   S1    S    
O51   S1    D    
O49   Zn9   S    
C15   O11   A    
C69   N7    S    
C64   C67   A    
O37   Zn15  S    
C35   C38   S    
C27   O39   A    
O15   Zn4   S    
C73   C91   A    
C66   N5    S    
O16   Zn3   S    
C6    C56   S    
C15   C96   S    
H11   N2    S    
C68   N6    S    
C11   O68   A    
H35   O75   S    
C40   C52   T    
C5    C45   S    
C34   C61   A    
O74   S15   D    
H16   N4    S    
O54   S9    D    
C33   O30   A    
O76   S16   D    
O90   Zn4   S    
C57   C74   A    
H48   N12   S    
C2    C89   T    
C32   O29   A    
O31   Zn2   S    
O19   Zn8   S    
C74   C92   A    
O26   Zn5   S    
O5    Zn5   S    
H37   O82   S    
O64   S12   D    
C72   C90   A    
C85   C94   A    
O17   Zn6   S    
O65   S12   S    
H47   N11   S    
H44   N10   S    
C61   C79   A    
C11   C88   S    
O2    Zn3   S    
O14   Zn12  S    
H27   O52   S    
H19   N5    S    
C53   N1    S    
C64   C82   A    
O82   S2    S    
C56   C63   A    
O4    Zn6   S    
O84   S3    D    
O58   S10   D    
C24   O44   A    
O55   S9    S    
O20   Zn7   S    
C35   O31   A    
C77   S14   S    
C25   C48   S    
C28   C36   S    
C79   C92   A    
H41   O95   S    
C58   N12   S    
C26   C47   S    
C42   C50   T    
O62   S11   S    
C26   O22   A    
O24   Zn6   S    
O6    Zn15  S    
C30   O38   A    
O96   S7    D    
H5    N14   S    
O40   Zn1   S    
C29   O37   A    
O81   S2    D    
H3    N13   S    
C64   N3    S    
H29   O59   S    
C72   S9    S    
C62   N16   S    
O77   S16   D    
C37   C47   T    
H8    N15   S    
C3    C4    T    
O85   S3    S    
O41   Zn14  S    
O24   Zn14  S    
C14   C95   S    
C21   C51   S    
C65   N4    S    
C17   O14   A    
O94   S6    D    
H12   N1    S    
C67   C69   A    
C24   C49   S    
C70   N8    S    
O13   Zn13  S    
C21   O18   A    
H24   N7    S    
C79   S15   S    
C82   C95   A    
C31   C41   S    
C19   O49   A    
C35   O33   A    
H1    N1    S    
C85   S6    S    
C43   C49   T    
C16   O8    A    
O80   S2    D    
C22   O19   A    
H4    N13   S    
O1    Zn4   S    
C31   O34   A    
O35   Zn11  S    
C74   S11   S    
H30   O62   S    
C87   C96   A    
C23   C55   A    
C39   C44   T    
O13   Zn7   S    
O95   S6    S    
O93   S6    D    
O72   S14   S    
O34   Zn13  S    
O92   S5    S    
H25   N8    S    
O45   Zn10  S    
O35   Zn5   S    
O59   S10   S    
O68   Zn2   S    
C60   C77   A    
C21   O47   A    
H43   O3    S    
C9    O46   A    
O67   S13   D    
O36   Zn12  S    
O63   S12   D    
C20   C52   S    
C56   C68   A    
C28   O25   A    
C30   O27   A    
C38   C46   T    
C81   C94   A    
C28   O40   A    
H7    N15   S    
O42   Zn15  S    
C27   C37   S    
H10   N16   S    
C83   C96   A    
O38   Zn14  S    
C11   O4    A    
C84   S5    S    
C9    O90   A    
H34   N9    S    
C30   C42   S    
C84   C93   A    
C32   C40   S    
H22   N7    S    
O25   Zn8   S    
C27   O23   A    
C2    C12   S    
O57   Zn7   S    
C86   C95   A    
C76   S13   S    
C66   C84   A    
C71   C88   A    
C55   C73   A    
O35   Zn15  S    
C75   C88   A    
H39   O88   S    
C54   C72   A    
C9    C91   S    
O71   S14   D    
C10   O2    A    
C14   O6    A    
C75   S12   S    
O53   S9    D    
C45   C66   A    
H31   O65   S    
H15   N3    S    
H40   O92   S    
O1    Zn1   S    
C17   C94   S    
H18   N5    S    
O22   Zn16  S    
C80   C93   A    
C1    C58   A    
C59   C76   A    
C41   C51   T    
C12   C54   A    
C69   C86   A    
H14   N3    S    
C10   O57   A    
C76   C90   A    
C16   O12   A    
O13   Zn3   S    
H28   O55   S    
C53   C71   A    
