data_mof_unit_26094.cif
_audit_creation_date              2012-12-11T16:25:31-0500
_audit_creation_method            fapswitch 2.2
_symmetry_space_group_name_H-M    P1
_symmetry_Int_Tables_number       1
_space_group_crystal_system       triclinic
_cell_length_a                    20.254725
_cell_length_b                    7.274197
_cell_length_c                    13.364186
_cell_angle_alpha                 89.122242
_cell_angle_beta                  103.304079
_cell_angle_gamma                 90.87005
_cell_volume                      1915.83074318

loop_
_atom_site_label
_atom_site_type_symbol
_atom_type_description
_atom_site_fract_x
_atom_site_fract_y
_atom_site_fract_z
_atom_type_partial_charge
O1    O     O_R   0.449520 0.506760 0.599710 -0.537000
O2    O     O_R   0.550480 0.006760 0.400290 -0.536555
O3    O     O_R   0.587930 0.180200 0.595790 -0.538236
O4    O     O_R   0.412070 0.680200 0.404210 -0.537636
C1    C     C_R   0.613927 0.344763 0.619144 0.696030
C2    C     C_R   0.386030 0.844266 0.381040 0.694922
O5    O     O_R   0.452350 0.177380 0.611700 -0.541274
O6    O     O_R   0.547650 0.677380 0.388300 -0.541079
O7    O     O_R   0.413930 0.001760 0.416320 -0.535397
O8    O     O_R   0.586070 0.501760 0.583680 -0.534395
C3    C     C_R   0.435442 0.343164 0.636897 0.684024
C4    C     C_R   0.564450 0.847505 0.363209 0.684241
O9    O     O_3   0.487550 0.337460 0.435880 -0.377460
O10   O     O_3   0.512450 0.837460 0.564120 -0.377516
V1    V     V_3+5 0.502310 0.064670 0.511900 1.413544
V2    V     V_3+5 0.497690 0.564670 0.488100 1.411675
C5    C     C_R   0.614218 0.968737 0.117182 -0.174777
C6    C     C_R   0.385724 0.252566 0.886214 -0.173979
H1    H     H_    0.522514 0.977687 0.171136 0.099768
H2    H     H_    0.477089 0.232476 0.832275 0.100619
H3    H     H_    0.697993 0.015352 0.993058 0.140546
H4    H     H_    0.301919 0.220803 0.011176 0.138979
H5    H     H_    0.589889 0.021211 0.041618 0.122575
H6    H     H_    0.409946 0.205144 0.962954 0.122020
C7    C     C_R   0.604628 0.865145 0.285737 -0.029073
C8    C     C_R   0.395489 0.340046 0.715099 -0.030235
C9    C     C_R   0.929507 0.791291 0.315079 -0.175326
C10   C     C_R   0.070541 0.420302 0.682536 -0.174230
C11   C     C_R   0.893338 0.761696 0.390525 -0.123095
C12   C     C_R   0.106679 0.439246 0.606326 -0.124562
C13   C     C_R   0.823446 0.787294 0.368405 -0.159734
C14   C     C_R   0.176579 0.413833 0.629463 -0.159183
C15   C     C_R   0.787679 0.844202 0.269047 0.067311
C16   C     C_R   0.212347 0.367491 0.730596 0.068278
C17   C     C_R   0.825435 0.878987 0.192673 0.059819
C18   C     C_R   0.174552 0.342112 0.807779 0.059670
C19   C     C_R   0.715878 0.868569 0.243091 0.051344
C20   C     C_R   0.284206 0.344582 0.757544 0.051080
C21   C     C_R   0.684120 0.934879 0.143111 0.125210
C22   C     C_R   0.315888 0.286759 0.859264 0.126056
C23   C     C_R   0.722140 0.967234 0.069741 -0.188723
C24   C     C_R   0.277822 0.262651 0.933271 -0.187488
C25   C     C_R   0.791558 0.938535 0.093676 -0.201247
C26   C     C_R   0.208438 0.291872 0.908453 -0.202781
C27   C     C_R   0.674157 0.829304 0.312643 -0.230669
C28   C     C_R   0.326022 0.376628 0.687234 -0.231596
C29   C     C_R   0.575367 0.940077 0.189446 -0.183567
C30   C     C_R   0.424517 0.272522 0.813281 -0.182962
C31   C     C_R   0.896435 0.850820 0.216601 -0.071344
C32   C     C_R   0.103561 0.370800 0.782889 -0.072328
H7    H     H_    0.694053 0.774915 0.388905 0.108738
H8    H     H_    0.306141 0.424478 0.609577 0.109719
H9    H     H_    0.983597 0.766621 0.333432 0.100301
H10   H     H_    0.016497 0.445734 0.663302 0.100567
H11   H     H_    0.799156 0.762275 0.431089 0.121228
H12   H     H_    0.200886 0.430309 0.566155 0.121154
H13   H     H_    0.919605 0.716842 0.466747 0.120943
H14   H     H_    0.080404 0.476128 0.528714 0.121259
H15   H     H_    0.818554 0.965345 0.033768 0.135423
H16   H     H_    0.181489 0.272423 0.969030 0.136791
H17   H     H_    0.104796 0.965335 0.476148 0.119050
H18   H     H_    0.896745 0.241768 0.526537 0.118576
C33   C     C_R   0.230921 0.805757 0.034299 -0.195173
C34   C     C_R   0.768440 0.417047 0.964401 -0.194805
C35   C     C_R   0.286038 0.782903 0.990242 -0.098084
C36   C     C_R   0.713069 0.439977 0.007837 -0.099600
C37   C     C_R   0.352356 0.783863 0.051249 0.179377
C38   C     C_R   0.646785 0.431876 0.946873 0.179175
C39   C     C_R   0.362015 0.803857 0.158207 -0.211270
C40   C     C_R   0.637378 0.405141 0.840440 -0.211079
C41   C     C_R   0.306599 0.827044 0.204898 0.047606
C42   C     C_R   0.693069 0.381914 0.794393 0.046691
C43   C     C_R   0.239811 0.829616 0.141296 0.060060
C44   C     C_R   0.759828 0.386009 0.858090 0.060076
C45   C     C_R   0.316746 0.851336 0.312847 -0.165518
C46   C     C_R   0.683326 0.352120 0.686992 -0.164638
C47   C     C_R   0.260118 0.881789 0.356145 0.063683
C48   C     C_R   0.740359 0.323059 0.644417 0.063841
C49   C     C_R   0.193456 0.886462 0.291952 0.068343
C50   C     C_R   0.806998 0.324811 0.708793 0.067607
C51   C     C_R   0.183302 0.859017 0.184707 -0.165470
C52   C     C_R   0.816684 0.357244 0.815445 -0.164799
C53   C     C_R   0.268474 0.906678 0.463307 -0.150714
C54   C     C_R   0.732376 0.292235 0.537855 -0.149653
C55   C     C_R   0.212858 0.936958 0.505671 -0.121480
C56   C     C_R   0.788393 0.263064 0.496227 -0.121287
C57   C     C_R   0.147850 0.942088 0.442858 -0.124781
C58   C     C_R   0.853398 0.264432 0.559241 -0.124563
C59   C     C_R   0.137970 0.916856 0.337232 -0.142317
C60   C     C_R   0.862876 0.295009 0.664345 -0.142167
H19   H     H_    0.181149 0.806630 0.982790 0.125383
H20   H     H_    0.818226 0.421988 0.015839 0.124162
H21   H     H_    0.275825 0.766543 0.907831 0.134483
H22   H     H_    0.723085 0.461964 0.089784 0.135567
H23   H     H_    0.413529 0.803785 0.204331 0.092283
H24   H     H_    0.585907 0.400631 0.794208 0.091467
H25   H     H_    0.317923 0.902872 0.515614 0.115421
H26   H     H_    0.682895 0.290491 0.485515 0.114174
H27   H     H_    0.220266 0.956339 0.587711 0.126949
H28   H     H_    0.781291 0.239260 0.414625 0.127703
H29   H     H_    0.086439 0.921216 0.291588 0.090883
H30   H     H_    0.914363 0.294749 0.710329 0.089697
O11   O     O_R   0.913760 0.203480 0.916370 -0.535251
O12   O     O_R   0.086240 0.703480 0.083630 -0.532532
O13   O     O_R   0.047590 0.535230 0.888250 -0.539382
O14   O     O_R   0.952410 0.035230 0.111750 -0.540752
C61   C     C_R   0.063992 0.370350 0.862113 0.673049
C62   C     C_R   0.936178 0.866514 0.137893 0.672886
O15   O     O_R   0.912020 0.532880 0.904260 -0.536362
O16   O     O_R   0.087980 0.032880 0.095740 -0.539502
O17   O     O_R   0.949590 0.708460 0.099750 -0.535986
O18   O     O_R   0.050410 0.208460 0.900250 -0.538347
C63   C     C_R   0.886114 0.364589 0.882618 0.684170
C64   C     C_R   0.113940 0.865246 0.117214 0.682688
O19   O     O_3   0.012370 0.375360 0.064120 -0.376348
O20   O     O_3   0.987630 0.875360 0.935880 -0.376362
V3    V     V_3+5 0.997700 0.648160 0.988110 1.420073
V4    V     V_3+5 0.002300 0.148160 0.011890 1.411184
C65   C     C_3   0.414392 0.766389 0.006465 -0.378861
C66   C     C_3   0.400637 0.757443 0.889191 -0.751931
H31   H     H_    0.369349 0.635253 0.860886 0.243755
H32   H     H_    0.374072 0.882215 0.853073 0.233952
H33   H     H_    0.449402 0.747837 0.865153 0.217615
H34   H     H_    0.447714 0.887665 0.029776 0.172959
H35   H     H_    0.442584 0.641534 0.039611 0.189209
C67   C     C_3   0.584572 0.448805 0.991240 -0.380932
C68   C     C_3   0.598176 0.463083 0.108252 -0.752996
H36   H     H_    0.625789 0.341084 0.146236 0.233770
H37   H     H_    0.628439 0.587805 0.134521 0.244912
H38   H     H_    0.549323 0.471490 0.132140 0.217614
H39   H     H_    0.555376 0.570890 0.956111 0.190199
H40   H     H_    0.552289 0.325138 0.969955 0.172270

loop_
_geom_bond_atom_site_label_1
_geom_bond_atom_site_label_2
_ccdc_geom_bond_type
C36   C38   A    
C33   C35   A    
C67   C68   S    
C38   C67   S    
C9    C11   A    
C61   O18   A    
O1    C3    A    
C42   C46   A    
O2    C4    A    
O16   V4    S    
C2    O7    A    
O15   V3    S    
C2    C45   S    
C21   C23   A    
C65   H34   S    
O5    C3    A    
O13   C61   A    
C5    H5    S    
C27   H7    S    
C6    H6    S    
C46   C48   A    
O11   C63   A    
C54   C56   A    
C56   C58   A    
C47   C53   A    
C28   H8    S    
O20   V3    S    
C5    C21   A    
C39   C41   A    
C6    C22   A    
C60   H30   S    
H17   C57   S    
C10   C32   A    
C35   C37   A    
C51   C64   S    
C17   C31   A    
C13   C15   A    
C12   C14   A    
C17   C25   A    
O16   C64   A    
C16   C18   A    
C66   H33   S    
C25   H15   S    
C36   H22   S    
O5    V1    S    
O6    V2    S    
C20   C22   A    
O14   V4    S    
C23   C25   A    
O13   V3    S    
C24   C26   A    
C44   C52   A    
C43   C51   A    
C66   H32   S    
C31   C62   S    
C47   C49   A    
C49   C59   A    
C55   C57   A    
C8    C30   A    
C42   C44   A    
C49   C51   A    
C10   H10   S    
C33   C43   A    
C3    C8    S    
O3    C1    A    
H18   C58   S    
C15   C19   A    
C37   C39   A    
C14   C16   A    
O4    V2    S    
C40   H24   S    
C68   H37   S    
C55   H27   S    
O18   V4    S    
C67   H40   S    
O6    C4    A    
O19   V4    S    
H1    C29   S    
O1    V2    S    
O2    V1    S    
C45   C47   A    
H2    C30   S    
H3    C23   S    
C65   H35   S    
C50   C52   A    
C53   C55   A    
C11   H13   S    
C57   C59   A    
C32   C61   S    
O12   C64   A    
C18   C26   A    
O4    C2    A    
C34   H20   S    
C19   C27   A    
C68   H36   S    
C7    C27   A    
C18   C32   A    
C66   H31   S    
C41   C43   A    
O12   V3    S    
C7    C29   A    
C59   H29   S    
C16   C20   A    
C5    C29   A    
C52   C63   S    
C58   C60   A    
C39   H23   S    
C6    C30   A    
C65   C66   S    
C9    H9    S    
O15   C63   A    
C62   O17   A    
C4    C7    S    
O17   V3    S    
C54   H26   S    
C1    C46   S    
C10   C12   A    
O7    V1    S    
C68   H38   S    
C1    O8    A    
C19   C21   A    
O8    V2    S    
C41   C45   A    
C56   H28   S    
H4    C24   S    
O14   C62   A    
C67   H39   S    
C26   H16   S    
C12   H14   S    
C22   C24   A    
C35   H21   S    
C15   C17   A    
C48   C50   A    
C50   C60   A    
C20   C28   A    
C8    C28   A    
O11   V4    S    
C48   C54   A    
C11   C13   A    
C53   H25   S    
O9    V2    S    
C33   H19   S    
C38   C40   A    
C34   C44   A    
O10   V1    S    
O3    V1    S    
C40   C42   A    
C13   H11   S    
C37   C65   S    
C14   H12   S    
C9    C31   A    
C34   C36   A    
