data_mof_unit_60943.cif
_audit_creation_date              2013-03-05T15:43:12-0500
_audit_creation_method            fapswitch 2.2
_symmetry_space_group_name_H-M    P1
_symmetry_Int_Tables_number       1
_space_group_crystal_system       triclinic
_cell_length_a                    11.710292
_cell_length_b                    10.938876
_cell_length_c                    9.706694
_cell_angle_alpha                 89.358388
_cell_angle_beta                  89.921217
_cell_angle_gamma                 90.141973
_cell_volume                      1243.31957435

loop_
_atom_site_label
_atom_site_type_symbol
_atom_site_description
_atom_site_fract_x
_atom_site_fract_y
_atom_site_fract_z
_atom_type_partial_charge
O1    O     O_R   0.500020 0.321960 0.617040 -0.542257
O2    O     O_R   0.499980 0.321920 0.382900 -0.617603
C1    C     C_R   0.495537 0.265604 0.500903 0.850857
O3    O     O_R   0.337220 0.500030 0.617070 -0.526264
O4    O     O_R   0.337180 0.499990 0.382930 -0.561936
C2    C     C_R   0.284035 0.500087 0.500081 0.831339
Cu1   Cu    Cu3+1 0.500020 0.500020 0.638630 1.091484
Cu2   Cu    Cu3+1 0.499980 0.499980 0.361370 1.113443
O5    O     O_R   0.500020 0.678080 0.617100 -0.540096
O6    O     O_R   0.499980 0.678040 0.382960 -0.498391
O7    O     O_R   0.662820 0.500010 0.617070 -0.578536
O8    O     O_R   0.662780 0.499970 0.382930 -0.554176
C3    C     C_R   0.501202 0.734673 0.499062 0.820063
C4    C     C_R   0.715970 0.500091 0.499915 0.815435
C5    C     C_1   0.162353 0.500197 0.500196 -0.084537
C6    C     C_1   0.059900 0.500257 0.500089 0.058208
C7    C     C_1   0.940125 0.500256 0.499884 0.053611
C8    C     C_1   0.837667 0.500197 0.499789 -0.104665
C9    C     C_2   0.459250 0.935556 0.399696 0.233642
C10   C     C_2   0.516231 0.866505 0.494787 0.064312
C11   C     C_2   0.477437 0.068131 0.390919 -0.154871
C12   C     C_2   0.480324 0.134526 0.505460 -0.259037
H1    H     H_    0.480993 0.111628 0.289824 0.197780
H2    H     H_    0.468055 0.091696 0.605994 0.195680
C13   C     C_2   0.433995 0.429937 0.923365 0.709938
N1    N     N_2   0.498780 0.498660 0.846910 -0.294230
H3    H     H_    0.569286 0.537434 0.891895 0.233533
C14   C     C_2   0.448259 0.418160 0.077313 0.009121
N2    N     N_2   0.498750 0.498630 0.153040 0.067973
H4    H     H_    0.411881 0.337869 0.127273 0.115220
N3    N     N_R   0.374526 0.883740 0.309597 0.154309
O9    O     O_R   0.361285 0.928506 0.185887 -0.279805
O10   O     O_R   0.297524 0.808873 0.358439 -0.345535
N4    N     N_R   0.606663 0.916450 0.578006 0.099459
O11   O     O_R   0.618186 0.881284 0.705736 -0.287846
O12   O     O_R   0.687891 0.980630 0.520586 -0.323418
F1    F     F_    0.353583 0.359247 0.862363 -0.632045
F2    F     F_    0.515056 0.609484 0.096775 -0.530159

loop_
_geom_bond_atom_site_label_1
_geom_bond_atom_site_label_2
_geom_bond_distance
_ccdc_geom_bond_type
N2    F2    1.337501 S    
O4    Cu2   1.917602 S    
N3    O10   1.301926 A    
C4    C8    1.425107 S    
C9    C10   1.362472 D    
Cu2   O8    1.918174 S    
C10   N4    1.442846 S    
C14   H4    1.084478 S    
C7    C8    1.199809 T    
C13   N1    1.294052 D    
C9    N3    1.442631 S    
Cu1   Cu2   2.691285 S    
C11   C12   1.335226 D    
C13   C14   1.507976 S    
Cu1   O7    1.917602 S    
N1    H3    1.027458 S    
Cu1   N1    2.021630 S    
O3    Cu1   1.918173 S    
Cu2   N2    2.022486 S    
Cu2   O6    1.961350 S    
C14   N2    1.295319 D    
C9    C11   1.466767 S    
O8    C4    1.295914 A    
O2    C1    1.295402 A    
N4    O12   1.301849 A    
C11   H1    1.086460 S    
O4    C2    1.295572 A    
O7    C4    1.295611 A    
C12   H2    1.086960 S    
C5    C6    1.199761 T    
O3    C2    1.295900 A    
N4    O11   1.301308 A    
Cu1   O5    1.956626 S    
O5    C3    1.296234 A    
C1    C12   1.444612 S    
C3    C10   1.452487 S    
C13   F1    1.357724 S    
C2    C5    1.424937 S    
O1    Cu1   1.961351 S    
O2    Cu2   1.956626 S    
N3    O9    1.301350 A    
C6    C7    1.402602 S    
O1    C1    1.291966 A    
O6    C3    1.292163 A    
