data_mof_unit_59751.cif
_audit_creation_date              2012-12-11T15:09:38-0500
_audit_creation_method            fapswitch 2.2
_symmetry_space_group_name_H-M    P1
_symmetry_Int_Tables_number       1
_space_group_crystal_system       triclinic
_cell_length_a                    20.941094
_cell_length_b                    7.128821
_cell_length_c                    14.019376
_cell_angle_alpha                 89.999437
_cell_angle_beta                  98.162432
_cell_angle_gamma                 90.000422
_cell_volume                      2071.68498984

loop_
_atom_site_label
_atom_site_type_symbol
_atom_type_description
_atom_site_fract_x
_atom_site_fract_y
_atom_site_fract_z
_atom_type_partial_charge
O1    O     O_R   0.447130 0.507140 0.597350 -0.536799
O2    O     O_R   0.552870 0.007140 0.402650 -0.536798
O3    O     O_R   0.578910 0.181280 0.586990 -0.538172
O4    O     O_R   0.421090 0.681280 0.413010 -0.538175
C1    C     C_R   0.604496 0.344476 0.607377 0.725152
C2    C     C_R   0.395504 0.844475 0.392623 0.725152
O5    O     O_R   0.449230 0.177860 0.608640 -0.541709
O6    O     O_R   0.550770 0.677860 0.391360 -0.541713
O7    O     O_R   0.422260 0.000770 0.424450 -0.535274
O8    O     O_R   0.577740 0.500770 0.575550 -0.535274
C3    C     C_R   0.433118 0.346492 0.634865 0.688732
C4    C     C_R   0.566881 0.846495 0.365134 0.688732
O9    O     O_3   0.491310 0.336980 0.439550 -0.374549
O10   O     O_3   0.508690 0.836980 0.560450 -0.374545
V1    V     V_3+5 0.501610 0.064760 0.511210 1.425364
V2    V     V_3+5 0.498390 0.564760 0.488790 1.425355
C5    C     C_R   0.617045 0.919046 0.122007 -0.147733
C6    C     C_R   0.382965 0.418744 0.878022 -0.147728
H1    H     H_    0.526496 0.914651 0.176898 0.102157
H2    H     H_    0.473514 0.414339 0.823129 0.102150
H3    H     H_    0.698786 0.928676 0.996096 0.127903
H4    H     H_    0.301224 0.428269 0.003937 0.127901
H5    H     H_    0.594292 0.943254 0.048664 0.112422
H6    H     H_    0.405723 0.442798 0.951377 0.112420
C7    C     C_R   0.606510 0.858248 0.288004 -0.028429
C8    C     C_R   0.393489 0.358228 0.711995 -0.028414
C9    C     C_R   0.918575 0.855577 0.302521 -0.263522
C10   C     C_R   0.081427 0.355811 0.697476 -0.263501
C11   C     C_R   0.882937 0.882308 0.377160 -0.077464
C12   C     C_R   0.117070 0.382668 0.622852 -0.077465
C13   C     C_R   0.816376 0.908093 0.359126 0.214009
C14   C     C_R   0.183633 0.408376 0.640902 0.214004
C15   C     C_R   0.782942 0.887553 0.262940 -0.018753
C16   C     C_R   0.217062 0.387619 0.737077 -0.018743
C17   C     C_R   0.820528 0.878945 0.185001 0.039224
C18   C     C_R   0.179476 0.378891 0.815011 0.039224
C19   C     C_R   0.714117 0.881683 0.240739 0.070907
C20   C     C_R   0.285887 0.381671 0.759275 0.070906
C21   C     C_R   0.684464 0.906778 0.144222 0.117990
C22   C     C_R   0.315544 0.406574 0.855802 0.117988
C23   C     C_R   0.721824 0.913806 0.070066 -0.251781
C24   C     C_R   0.278184 0.413518 0.929961 -0.251780
C25   C     C_R   0.788537 0.891551 0.088245 0.156491
C26   C     C_R   0.211467 0.391343 0.911773 0.156495
C27   C     C_R   0.673399 0.841820 0.310137 -0.220582
C28   C     C_R   0.326598 0.341907 0.689855 -0.220577
C29   C     C_R   0.578350 0.900257 0.194284 -0.171121
C30   C     C_R   0.421657 0.400040 0.805736 -0.171129
C31   C     C_R   0.888906 0.862179 0.207125 -0.070416
C32   C     C_R   0.111096 0.362205 0.792877 -0.070419
H7    H     H_    0.692253 0.794277 0.381384 0.111603
H8    H     H_    0.307734 0.294503 0.618585 0.111593
H9    H     H_    0.970568 0.843053 0.319164 0.117816
H10   H     H_    0.029431 0.343375 0.680824 0.117812
H11   H     H_    0.908015 0.894552 0.450003 0.136559
H12   H     H_    0.091995 0.395089 0.550016 0.136553
C33   C     C_1   0.166613 0.857173 0.168252 -0.198423
C34   C     C_1   0.833387 0.357172 0.831747 -0.198422
C35   C     C_1   0.219010 0.854866 0.219359 0.001812
C36   C     C_1   0.780990 0.354865 0.780641 0.001821
C37   C     C_1   0.280745 0.853378 0.279423 0.005982
C38   C     C_1   0.719255 0.353379 0.720576 0.005982
C39   C     C_1   0.333099 0.851056 0.330663 -0.197364
C40   C     C_1   0.666901 0.351057 0.669337 -0.197369
O11   O     O_R   0.922300 0.202240 0.924350 -0.531200
O12   O     O_R   0.077700 0.702240 0.075650 -0.531210
O13   O     O_R   0.050780 0.535130 0.891350 -0.539302
O14   O     O_R   0.949220 0.035130 0.108650 -0.539286
C41   C     C_R   0.068147 0.368251 0.866343 0.782900
C42   C     C_R   0.931852 0.868248 0.133656 0.782905
O15   O     O_R   0.921100 0.531560 0.912990 -0.535320
O16   O     O_R   0.078900 0.031560 0.087010 -0.535315
O17   O     O_R   0.947120 0.708470 0.097370 -0.535643
O18   O     O_R   0.052880 0.208470 0.902630 -0.535623
C43   C     C_R   0.895864 0.363576 0.893486 0.707180
C44   C     C_R   0.104136 0.863576 0.106513 0.707185
O19   O     O_3   0.008710 0.375800 0.060400 -0.372457
O20   O     O_3   0.991290 0.875800 0.939600 -0.372454
V3    V     V_3+5 0.998380 0.648080 0.988790 1.459963
V4    V     V_3+5 0.001620 0.148080 0.011210 1.459982
N1    N     N_3   0.787668 0.987712 0.436988 -0.687804
H13   H     H_    0.774508 0.881172 0.481520 0.224594
H14   H     H_    0.749196 0.076501 0.412107 0.241543
N2    N     N_3   0.212352 0.488169 0.563091 -0.687798
H15   H     H_    0.225499 0.381729 0.518490 0.224590
H16   H     H_    0.250837 0.576871 0.588029 0.241551
N3    N     N_3   0.822810 0.883504 0.006798 -0.654648
H17   H     H_    0.813126 0.006341 0.966579 0.230599
H18   H     H_    0.805063 0.770153 0.963606 0.227523
N4    N     N_3   0.177190 0.383267 0.993216 -0.654644
H19   H     H_    0.186880 0.506083 0.033450 0.230586
H20   H     H_    0.194930 0.269892 0.036396 0.227531

loop_
_geom_bond_atom_site_label_1
_geom_bond_atom_site_label_2
_ccdc_geom_bond_type
O14   V4    S    
C12   C14   A    
N3    H17   S    
C9    C11   A    
O1    C3    A    
O16   C44   A    
O2    C4    A    
C2    O7    A    
O15   V3    S    
N1    H13   S    
C26   N4    S    
C21   C23   A    
O5    C3    A    
O12   V3    S    
C5    H5    S    
C6    H6    S    
C33   C44   S    
C20   C22   A    
C32   C41   S    
N2    H16   S    
O20   V4    S    
C33   C35   T    
C27   H7    S    
C34   C36   T    
C28   H8    S    
C36   C38   S    
C5    C21   A    
C37   C39   T    
C6    C22   A    
C38   C40   T    
C10   C32   A    
C17   C31   A    
C13   C15   A    
C17   C25   A    
C7    C29   A    
C16   C18   A    
C8    C30   A    
O5    V1    S    
O6    V2    S    
O11   V4    S    
O18   V4    S    
C11   C13   A    
C23   C25   A    
C24   C26   A    
N1    H14   S    
C34   C43   S    
O19   V3    S    
C14   N2    S    
C35   C37   S    
O13   V3    S    
N2    H15   S    
O4    C2    A    
C10   H10   S    
O20   V3    S    
C11   H11   S    
C3    C8    S    
C12   H12   S    
C15   C19   A    
C1    C40   S    
O13   C41   A    
C14   C16   A    
C2    C39   S    
O4    V2    S    
N4    H20   S    
O6    C4    A    
O12   C44   A    
C42   O17   A    
O17   V3    S    
C41   O18   A    
O1    V2    S    
O2    V1    S    
H2    C30   S    
H3    C23   S    
O14   C42   A    
C31   C42   S    
N3    H18   S    
C18   C26   A    
C19   C27   A    
C7    C27   A    
C18   C32   A    
O19   V4    S    
C16   C20   A    
C5    C29   A    
O3    C1    A    
C6    C30   A    
C9    H9    S    
C13   N1    S    
C4    C7    S    
C25   N3    S    
C10   C12   A    
O7    V1    S    
C1    O8    A    
C19   C21   A    
O8    V2    S    
O15   C43   A    
N4    H19   S    
H4    C24   S    
C22   C24   A    
C15   C17   A    
H1    C29   S    
C20   C28   A    
C8    C28   A    
O16   V4    S    
O9    V2    S    
O10   V1    S    
O3    V1    S    
O11   C43   A    
C9    C31   A    
