data_mof_unit_23900.cif
_audit_creation_date              2012-12-11T14:42:14-0500
_audit_creation_method            fapswitch 2.2
_symmetry_space_group_name_H-M    P1
_symmetry_Int_Tables_number       1
_space_group_crystal_system       triclinic
_cell_length_a                    18.949484
_cell_length_b                    10.915589
_cell_length_c                    18.845577
_cell_angle_alpha                 90.097989
_cell_angle_beta                  90.268213
_cell_angle_gamma                 89.727665
_cell_volume                      3898.0169142

loop_
_atom_site_label
_atom_site_type_symbol
_atom_type_description
_atom_site_fract_x
_atom_site_fract_y
_atom_site_fract_z
_atom_type_partial_charge
Br1   Br    Br    0.498204 0.891407 0.414660 -0.489784
Br2   Br    Br    0.477262 0.909736 0.587568 -0.472425
Br3   Br    Br    0.998294 0.391430 0.414626 -0.489896
Br4   Br    Br    0.977384 0.409668 0.587538 -0.472664
C1    C     C_R   0.726632 0.956650 0.854162 0.533909
C2    C     C_R   0.242181 0.421856 0.926945 0.036286
C3    C     C_R   0.249150 0.901678 0.078863 0.027160
C4    C     C_R   0.742179 0.921864 0.926947 0.036284
C5    C     C_R   0.790210 0.309511 0.047363 -0.129261
C6    C     C_R   0.187167 0.370881 0.966229 -0.134159
C7    C     C_R   0.290232 0.809559 0.047353 -0.129272
C8    C     C_R   0.687161 0.870906 0.966234 -0.134156
C9    C     C_R   0.780251 0.279736 0.976629 -0.125968
C10   C     C_R   0.190898 0.367502 0.038785 -0.130607
C11   C     C_R   0.280274 0.779791 0.976618 -0.125969
C12   C     C_R   0.272465 0.954370 0.146530 0.543487
C13   C     C_R   0.690893 0.867528 0.038790 -0.130611
C14   C     C_R   0.728316 0.339556 0.936281 0.022668
C15   C     C_R   0.252607 0.403944 0.073963 0.032742
C16   C     C_R   0.228320 0.839572 0.936279 0.022679
C17   C     C_R   0.752606 0.903953 0.073965 0.032739
C18   C     C_R   0.528936 0.273409 0.527851 -0.170454
C19   C     C_R   0.526706 0.268971 0.455576 -0.175695
C20   C     C_R   0.028897 0.773423 0.527857 -0.170498
C21   C     C_R   0.026676 0.768995 0.455582 -0.175712
C22   C     C_R   0.507387 0.160855 0.421725 0.006832
C23   C     C_R   0.226632 0.456648 0.854161 0.533910
C24   C     C_R   0.514576 0.168533 0.568301 0.007617
C25   C     C_R   0.007393 0.660870 0.421721 0.006848
C26   C     C_R   0.014577 0.668525 0.568299 0.007611
C27   C     C_R   0.501949 0.050207 0.460536 0.178288
C28   C     C_R   0.501190 0.055446 0.534587 0.170391
C29   C     C_R   0.001992 0.550211 0.460523 0.178291
C30   C     C_R   0.001236 0.555430 0.534575 0.170425
C31   C     C_R   0.794023 0.319138 0.529826 -0.090518
C32   C     C_R   0.198360 0.337108 0.466734 -0.109227
C33   C     C_R   0.293856 0.818822 0.529767 -0.090376
C34   C     C_R   0.772464 0.454369 0.146530 0.543491
C35   C     C_R   0.698289 0.837220 0.466715 -0.109283
C36   C     C_R   0.796162 0.330473 0.457264 -0.107002
C37   C     C_R   0.196209 0.345226 0.539271 -0.116709
C38   C     C_R   0.295997 0.830211 0.457203 -0.106925
C39   C     C_R   0.696137 0.845324 0.539248 -0.116726
C40   C     C_R   0.555991 0.181617 0.858626 0.538605
C41   C     C_R   0.472043 0.177271 0.150684 0.551761
C42   C     C_R   0.055993 0.681617 0.858626 0.538602
C43   C     C_R   0.972043 0.677271 0.150685 0.551767
C44   C     C_R   0.752362 0.415426 0.423184 0.023430
C45   C     C_R   0.693170 0.454789 0.040377 -0.137389
C46   C     C_R   0.245371 0.417389 0.575655 0.024292
C47   C     C_R   0.252326 0.915404 0.423169 0.023459
C48   C     C_R   0.745357 0.917380 0.575653 0.024293
C49   C     C_R   0.701685 0.481264 0.462222 -0.139005
C50   C     C_R   0.300405 0.473807 0.538483 -0.136531
C51   C     C_R   0.201764 0.981429 0.462246 -0.138966
C52   C     C_R   0.800435 0.973714 0.538498 -0.136495
C53   C     C_R   0.698080 0.467016 0.535507 -0.144317
C54   C     C_R   0.304226 0.461558 0.465039 -0.137420
C55   C     C_R   0.198174 0.967168 0.535530 -0.144329
C56   C     C_R   0.303886 0.460780 0.961448 -0.144016
C57   C     C_R   0.804265 0.961459 0.465054 -0.137366
C58   C     C_R   0.745684 0.388120 0.569800 0.036207
C59   C     C_R   0.252442 0.394284 0.428777 0.028966
C60   C     C_R   0.245660 0.888033 0.569782 0.036297
C61   C     C_R   0.752435 0.894294 0.428775 0.028950
C62   C     C_R   0.724181 0.313307 0.860113 0.545086
C63   C     C_R   0.261975 0.362912 0.146698 0.549236
C64   C     C_R   0.224182 0.813312 0.860114 0.545083
C65   C     C_R   0.761975 0.862914 0.146699 0.549232
C66   C     C_R   0.727878 0.955085 0.647386 0.548860
C67   C     C_R   0.193155 0.954767 0.040384 -0.137382
C68   C     C_R   0.271760 0.954699 0.352344 0.546599
C69   C     C_R   0.227878 0.455089 0.647384 0.548852
C70   C     C_R   0.771766 0.454705 0.352348 0.546593
C71   C     C_R   0.531748 0.176271 0.643009 0.585059
C72   C     C_R   0.472768 0.174673 0.353630 0.564456
C73   C     C_R   0.031750 0.676270 0.643007 0.585039
C74   C     C_R   0.972771 0.674676 0.353628 0.564470
C75   C     C_R   0.738238 0.357821 0.644429 0.566745
C76   C     C_R   0.261240 0.359567 0.354912 0.551615
C77   C     C_R   0.238234 0.857800 0.644422 0.566751
C78   C     C_R   0.803886 0.960775 0.961448 -0.144037
C79   C     C_R   0.761239 0.859572 0.354910 0.551619
C80   C     C_2   0.530141 0.175542 0.931293 -0.104366
C81   C     C_2   0.513458 0.168103 0.085892 -0.109315
C82   C     C_2   0.030145 0.675542 0.931294 -0.104371
C83   C     C_2   0.013460 0.668105 0.085894 -0.109315
C84   C     C_2   0.509987 0.068902 0.043910 -0.156924
C85   C     C_2   0.533805 0.072321 0.969753 -0.158245
C86   C     C_2   0.009996 0.568901 0.043913 -0.156917
C87   C     C_2   0.033815 0.572322 0.969756 -0.158241
C88   C     C_R   0.682419 0.423090 0.969378 -0.140138
C89   C     C_R   0.749147 0.401672 0.078864 0.027149
C90   C     C_R   0.309374 0.450930 0.035013 -0.140205
C91   C     C_R   0.182404 0.923070 0.969384 -0.140143
C92   C     C_R   0.809375 0.950926 0.035014 -0.140214
Cr1   Cr    Cr6+3 0.769270 0.163730 0.750710 1.033983
Cr2   Cr    Cr6+3 0.385840 0.322500 0.252290 1.026861
Cr3   Cr    Cr6+3 0.114160 0.822500 0.747710 1.025995
Cr4   Cr    Cr6+3 0.885840 0.822500 0.252290 1.026854
Cr5   Cr    Cr6+3 0.230730 0.163730 0.249290 1.031063
Cr6   Cr    Cr6+3 0.269270 0.663730 0.750710 1.034012
Cr7   Cr    Cr6+3 0.730730 0.663730 0.249290 1.031048
Cr8   Cr    Cr6+3 0.612620 0.009790 0.748780 1.066647
Cr9   Cr    Cr6+3 0.387380 0.009790 0.251220 1.068996
Cr10  Cr    Cr6+3 0.112620 0.509790 0.748780 1.066665
Cr11  Cr    Cr6+3 0.887380 0.509790 0.251220 1.068986
Cr12  Cr    Cr6+3 0.614160 0.322500 0.747710 1.025995
H1    H     H_    0.485475 0.985165 0.062457 0.152241
H2    H     H_    0.338883 0.530023 0.565736 0.135981
H3    H     H_    0.167454 0.047872 0.436823 0.134907
H4    H     H_    0.838943 0.029874 0.565761 0.136007
H5    H     H_    0.658855 0.517898 0.565220 0.128158
H6    H     H_    0.347542 0.503487 0.436891 0.137199
H7    H     H_    0.159062 0.018242 0.565276 0.128127
H8    H     H_    0.847630 0.003296 0.436922 0.137240
H9    H     H_    0.540257 0.250304 0.068287 0.105916
H10   H     H_    0.509673 0.259734 0.954299 0.111143
H11   H     H_    0.040257 0.750308 0.068288 0.105914
H12   H     H_    0.550092 0.986988 0.945223 0.146766
H13   H     H_    0.009671 0.759731 0.954299 0.111140
H14   H     H_    0.640654 0.468145 0.939774 0.132301
H15   H     H_    0.358214 0.476766 0.060963 0.128663
H16   H     H_    0.140623 0.968100 0.939786 0.132286
H17   H     H_    0.858217 0.976750 0.060962 0.128667
H18   H     H_    0.660398 0.525567 0.063738 0.129265
H19   H     H_    0.347025 0.500101 0.931820 0.122287
H20   H     H_    0.160367 0.025520 0.063750 0.129251
H21   H     H_    0.847027 0.000086 0.931819 0.122288
H22   H     H_    0.833053 0.265554 0.076002 0.129958
H23   H     H_    0.985487 0.485161 0.062460 0.152246
H24   H     H_    0.139233 0.338002 0.941372 0.129302
H25   H     H_    0.333090 0.765627 0.075986 0.129964
H26   H     H_    0.639225 0.838036 0.941378 0.129298
H27   H     H_    0.815417 0.213563 0.952567 0.129519
H28   H     H_    0.146295 0.329588 0.066894 0.134538
H29   H     H_    0.315457 0.713651 0.952550 0.129529
H30   H     H_    0.646289 0.829628 0.066901 0.134533
H31   H     H_    0.542746 0.360486 0.551710 0.159300
H32   H     H_    0.534530 0.353421 0.426486 0.152125
H33   H     H_    0.042670 0.860511 0.551722 0.159359
H34   H     H_    0.050110 0.486991 0.945227 0.146768
H35   H     H_    0.034475 0.853457 0.426500 0.152169
H36   H     H_    0.829929 0.254227 0.554312 0.164858
H37   H     H_    0.158412 0.281995 0.440859 0.170407
H38   H     H_    0.329658 0.753728 0.554228 0.164552
H39   H     H_    0.658300 0.782179 0.440832 0.170485
H40   H     H_    0.835209 0.277637 0.428408 0.165411
H41   H     H_    0.153249 0.299970 0.566280 0.169532
H42   H     H_    0.334943 0.777222 0.428308 0.165106
H43   H     H_    0.653130 0.800147 0.566236 0.169609
H44   H     H_    0.667284 0.547545 0.436769 0.134897
O1    O     O_R   0.784320 0.290430 0.830510 -0.497655
O2    O     O_R   0.456080 0.282180 0.333210 -0.528038
O3    O     O_R   0.043920 0.782180 0.666790 -0.527291
O4    O     O_R   0.956080 0.782180 0.333210 -0.528065
O5    O     O_R   0.679040 0.374160 0.674430 -0.503424
O6    O     O_R   0.320960 0.374160 0.325570 -0.501910
O7    O     O_R   0.179040 0.874160 0.674430 -0.503426
O8    O     O_R   0.820960 0.874160 0.325570 -0.501919
O9    O     O_3   0.665350 0.165340 0.749070 -0.296947
O10   O     O_3   0.334650 0.165340 0.250930 -0.252842
O11   O     O_3   0.165350 0.665340 0.749070 -0.296964
O12   O     O_R   0.215680 0.290430 0.169490 -0.521783
O13   O     O_3   0.834650 0.665340 0.250930 -0.252834
O14   O     O_R   0.762640 0.040960 0.825200 -0.524806
O15   O     O_R   0.237360 0.040960 0.174800 -0.505555
O16   O     O_R   0.262640 0.540960 0.825200 -0.524801
O17   O     O_R   0.737360 0.540960 0.174800 -0.505559
O18   O     O_R   0.667400 0.923970 0.829950 -0.529072
O19   O     O_R   0.332600 0.923970 0.170050 -0.523894
O20   O     O_R   0.167400 0.423970 0.829950 -0.529075
O21   O     O_R   0.832600 0.423970 0.170050 -0.523871
O22   O     O_R   0.553960 0.081340 0.821780 -0.480702
O23   O     O_R   0.284320 0.790430 0.830510 -0.497661
O24   O     O_R   0.446040 0.081340 0.178220 -0.494551
O25   O     O_R   0.053960 0.581340 0.821780 -0.480704
O26   O     O_R   0.946040 0.581340 0.178220 -0.494537
O27   O     O_R   0.543180 0.283240 0.826740 -0.515445
O28   O     O_R   0.456820 0.283240 0.173260 -0.520187
O29   O     O_R   0.043180 0.783240 0.826740 -0.515451
O30   O     O_R   0.956820 0.783240 0.173260 -0.520187
O31   O     O_R   0.678360 0.375140 0.822710 -0.506800
O32   O     O_R   0.321640 0.375140 0.177290 -0.503985
O33   O     O_R   0.178360 0.875140 0.822710 -0.506792
O34   O     O_R   0.715680 0.790430 0.169490 -0.521793
O35   O     O_R   0.821640 0.875140 0.177290 -0.503983
O36   O     O_R   0.785050 0.289380 0.670560 -0.496459
O37   O     O_R   0.214950 0.289380 0.329440 -0.513034
O38   O     O_R   0.285050 0.789380 0.670560 -0.496359
O39   O     O_R   0.714950 0.789380 0.329440 -0.513049
O40   O     O_R   0.763320 0.039990 0.676930 -0.506503
O41   O     O_R   0.236680 0.039990 0.323070 -0.510745
O42   O     O_R   0.263320 0.539990 0.676930 -0.506540
O43   O     O_R   0.736680 0.539990 0.323070 -0.510697
O44   O     O_R   0.668130 0.922920 0.670000 -0.498382
O45   O     O_R   0.554640 0.080370 0.673500 -0.444260
O46   O     O_R   0.331870 0.922920 0.330000 -0.488373
O47   O     O_R   0.168130 0.422920 0.670000 -0.498313
O48   O     O_R   0.831870 0.422920 0.330000 -0.488505
O49   O     O_R   0.445360 0.080370 0.326500 -0.451132
O50   O     O_R   0.054640 0.580370 0.673500 -0.444227
O51   O     O_R   0.945360 0.580370 0.326500 -0.451130
O52   O     O_R   0.543920 0.282180 0.666790 -0.527287

loop_
_geom_bond_atom_site_label_1
_geom_bond_atom_site_label_2
_ccdc_geom_bond_type
C91   H16   S    
Cr1   O36   S    
C62   O31   A    
Cr2   O2    S    
C77   O7    A    
C51   C55   A    
C9    H27   S    
Cr8   O45   S    
Cr3   O33   S    
C73   O50   A    
Cr11  O13   S    
C66   O40   A    
C53   C58   A    
C5    H22   S    
C3    C7    A    
C45   H18   S    
C11   H29   S    
C55   C60   A    
C46   C50   A    
C9    C14   A    
C4    C78   A    
C42   O29   A    
C79   O39   A    
Cr5   O10   S    
C40   O22   A    
C43   O26   A    
Cr3   O7    S    
C82   C87   D    
C7    H25   S    
C3    C67   A    
Cr11  O48   S    
C39   C48   A    
C61   C79   S    
C37   H41   S    
Br3   C29   S    
C12   O15   A    
Cr1   O14   S    
C25   C29   A    
Cr9   O49   S    
Br1   C27   S    
C50   H2    S    
Br2   C28   S    
C76   O37   A    
C19   C22   A    
C33   C38   A    
Cr5   O15   S    
C5    C9    A    
C80   H10   S    
C41   O28   A    
C26   C73   S    
C7    C11   A    
C63   O12   A    
Cr1   O40   S    
C25   C74   S    
Cr2   O6    S    
Cr6   O11   S    
Cr9   O24   S    
Cr3   O3    S    
C8    C13   A    
C49   H44   S    
C22   C72   S    
C1    O18   A    
C15   C63   S    
C13   H30   S    
Cr1   O1    S    
C33   H38   S    
C65   O34   A    
C32   C59   A    
Cr4   O30   S    
C65   O35   A    
Cr10  O25   S    
C2    C23   S    
C38   C47   A    
C87   H34   S    
C90   H15   S    
Cr4   O4    S    
C22   C27   A    
C8    H26   S    
C69   O42   A    
C35   C61   A    
C42   O25   A    
C32   C37   A    
C21   H35   S    
Cr7   O34   S    
Cr7   O43   S    
C82   H13   S    
C43   O30   A    
C38   H42   S    
Cr6   O42   S    
C40   O27   A    
Cr2   O10   S    
C64   O23   A    
Cr5   O41   S    
C20   C26   A    
C59   C76   S    
C71   O45   A    
C21   C25   A    
C11   C16   A    
C60   C77   S    
Br4   C30   S    
C78   C92   A    
C75   O36   A    
C26   C30   A    
C44   C70   S    
C58   C75   S    
C24   C28   A    
Cr4   O35   S    
C20   C21   A    
C6    C10   A    
C46   C69   S    
C68   O41   A    
C49   C53   A    
C72   O49   A    
C34   O21   A    
C53   H5    S    
Cr12  O5    S    
Cr11  O21   S    
Cr6   O23   S    
Cr10  O11   S    
C18   H31   S    
C13   C17   A    
C79   O8    A    
Cr12  O27   S    
C17   C65   S    
Cr4   O13   S    
C43   C83   S    
C41   C81   S    
C83   H11   S    
C88   H14   S    
Cr10  O50   S    
Cr4   O8    S    
C76   O6    A    
C27   C28   A    
C85   H12   S    
C20   H33   S    
C4    C8    A    
C57   H8    S    
C29   C30   A    
Cr8   O44   S    
C52   C57   A    
C1    O14   A    
C74   O51   A    
C78   H21   S    
C81   H9    S    
C19   H32   S    
C15   C90   A    
Cr3   O11   S    
C86   H23   S    
C66   O44   A    
C3    C12   S    
C16   C91   A    
C70   O48   A    
C64   O33   A    
Cr7   O13   S    
Cr1   O9    S    
Cr11  O26   S    
C67   H20   S    
C41   O24   A    
Cr7   O39   S    
C47   C68   S    
C84   H1    S    
C45   C88   A    
Cr2   O28   S    
C5    C89   A    
C37   C46   A    
Cr8   O9    S    
C33   C60   A    
C39   H43   S    
C34   O17   A    
Cr8   O18   S    
C50   C54   A    
C81   C84   D    
C54   C59   A    
C36   C44   A    
C70   O43   A    
Cr9   O46   S    
C36   H40   S    
Cr6   O16   S    
Cr9   O19   S    
Cr12  O31   S    
C51   H3    S    
Cr9   O10   S    
Cr10  O20   S    
C10   C15   A    
C16   C64   S    
C56   H19   S    
C40   C80   S    
C75   O5    A    
C1    C4    S    
Cr8   O22   S    
C71   O52   A    
C17   C92   A    
C44   C49   A    
Cr5   O12   S    
C62   O1    A    
Cr11  O51   S    
Cr12  O9    S    
C31   H36   S    
Cr5   O37   S    
C14   C88   A    
C31   C36   A    
Cr12  O52   S    
C73   O3    A    
C12   O19   A    
C74   O4    A    
C86   C87   S    
C10   H28   S    
C69   O47   A    
C34   C89   S    
C72   O2    A    
Cr6   O38   S    
C92   H17   S    
C31   C58   A    
C47   C51   A    
C2    C56   A    
Cr2   O32   S    
C63   O32   A    
C14   C62   S    
C6    H24   S    
C77   O38   A    
Cr3   O29   S    
C48   C66   S    
C2    C6    A    
C54   H6    S    
C68   O46   A    
C57   C61   A    
C32   H37   S    
C67   C91   A    
C84   C85   S    
C35   C39   A    
C55   H7    S    
C80   C85   D    
C83   C86   D    
C35   H39   S    
Cr7   O17   S    
C18   C19   A    
C18   C24   A    
C45   C89   A    
C24   C71   S    
C23   O20   A    
C52   H4    S    
C48   C52   A    
C23   O16   A    
Cr10  O47   S    
C42   C82   S    
C56   C90   A    
