data_mof_unit_59310.cif
_audit_creation_date              2012-12-11T14:44:32-0500
_audit_creation_method            fapswitch 2.2
_symmetry_space_group_name_H-M    P1
_symmetry_Int_Tables_number       1
_space_group_crystal_system       triclinic
_cell_length_a                    20.032863
_cell_length_b                    7.30575
_cell_length_c                    19.477153
_cell_angle_alpha                 89.999864
_cell_angle_beta                  98.325913
_cell_angle_gamma                 89.999986
_cell_volume                      2820.53648115

loop_
_atom_site_label
_atom_site_type_symbol
_atom_type_description
_atom_site_fract_x
_atom_site_fract_y
_atom_site_fract_z
_atom_type_partial_charge
O1    O     O_R   0.673210 0.377390 0.686390 -0.543112
O2    O     O_R   0.326790 0.622610 0.313610 -0.523006
O3    O     O_R   0.826790 0.877390 0.813610 -0.543112
O4    O     O_R   0.173210 0.122610 0.186390 -0.523006
O5    O     O_R   0.810750 0.706450 0.681250 -0.529760
O6    O     O_R   0.189250 0.293550 0.318750 -0.528523
O7    O     O_R   0.689250 0.206450 0.818750 -0.529760
O8    O     O_R   0.310750 0.793550 0.181250 -0.528522
C1    C     C_R   0.832821 0.539152 0.667813 0.692236
C2    C     C_R   0.166988 0.460988 0.331994 0.695574
C3    C     C_R   0.667179 0.039152 0.832187 0.692235
C4    C     C_R   0.333012 0.960988 0.168006 0.695573
O9    O     O_R   0.672750 0.707060 0.678240 -0.527047
O10   O     O_R   0.327250 0.292940 0.321760 -0.547000
O11   O     O_R   0.827250 0.207060 0.821760 -0.527047
O12   O     O_R   0.172750 0.792940 0.178240 -0.547000
O13   O     O_R   0.687800 0.877990 0.810580 -0.528015
O14   O     O_R   0.312200 0.122010 0.189420 -0.531158
O15   O     O_R   0.812200 0.377990 0.689420 -0.528015
O16   O     O_R   0.187800 0.622010 0.310580 -0.531159
C5    C     C_R   0.649253 0.538374 0.661200 0.866748
C6    C     C_R   0.350743 0.461337 0.338885 0.862494
C7    C     C_R   0.850747 0.038374 0.838800 0.866749
C8    C     C_R   0.149257 0.961337 0.161115 0.862495
O17   O     O_3   0.755100 0.544060 0.793420 -0.381480
O18   O     O_3   0.244900 0.455940 0.206580 -0.379779
O19   O     O_3   0.744900 0.044060 0.706580 -0.381480
O20   O     O_3   0.255100 0.955940 0.293420 -0.379778
V1    V     V_3+5 0.749050 0.818670 0.741950 1.541379
V2    V     V_3+5 0.250950 0.181330 0.258050 1.540796
V3    V     V_3+5 0.750950 0.318670 0.758050 1.541379
V4    V     V_3+5 0.249050 0.681330 0.241950 1.540796
C9    C     C_R   0.087398 0.968612 0.108915 -0.274362
C10   C     C_R   0.912846 0.025690 0.890376 -0.272476
C11   C     C_R   0.412602 0.468612 0.391085 -0.274362
C12   C     C_R   0.587154 0.525690 0.609624 -0.272477
C13   C     C_R   0.034330 0.975642 0.914717 0.418968
C14   C     C_R   0.965124 0.942893 0.081891 0.417965
C15   C     C_R   0.465669 0.475647 0.585283 0.418968
C16   C     C_R   0.534876 0.442889 0.418109 0.417965
C17   C     C_R   0.974979 0.997832 0.867086 0.213231
C18   C     C_R   0.024376 0.942385 0.130407 0.218635
C19   C     C_R   0.525020 0.497837 0.632914 0.213231
C20   C     C_R   0.475624 0.442382 0.369593 0.218636
C21   C     C_R   0.909040 0.019588 0.961966 0.357650
C22   C     C_R   0.091535 0.992440 0.037850 0.363707
C23   C     C_R   0.590960 0.519585 0.538034 0.357650
C24   C     C_R   0.408465 0.492442 0.462150 0.363706
C25   C     C_R   0.967881 0.982721 0.010778 -0.188206
C26   C     C_R   0.032175 0.984571 0.987463 -0.181853
C27   C     C_R   0.532119 0.482719 0.489222 -0.188207
C28   C     C_R   0.467825 0.484573 0.512537 -0.181853
C29   C     C_R   0.543429 0.025222 0.853132 -0.010275
C30   C     C_R   0.456106 0.971832 0.145863 -0.012469
C31   C     C_R   0.956571 0.525221 0.646868 -0.010275
C32   C     C_R   0.043894 0.471834 0.354137 -0.012469
C33   C     C_R   0.614343 0.034396 0.878062 -0.085447
C34   C     C_R   0.385176 0.973222 0.121457 -0.088143
C35   C     C_R   0.885657 0.534397 0.621938 -0.085447
C36   C     C_R   0.114824 0.473221 0.378543 -0.088143
C37   C     C_R   0.636838 0.047408 0.949384 -0.179704
C38   C     C_R   0.362142 0.001318 0.050849 -0.179201
C39   C     C_R   0.863162 0.547411 0.550616 -0.179704
C40   C     C_R   0.137858 0.501315 0.449151 -0.179201
C41   C     C_R   0.591848 0.042807 0.997787 0.082611
C42   C     C_R   0.406972 0.022392 0.002716 0.082756
C43   C     C_R   0.908153 0.542810 0.502213 0.082611
C44   C     C_R   0.093028 0.522390 0.497284 0.082756
C45   C     C_R   0.522106 0.034429 0.975214 0.051183
C46   C     C_R   0.476836 0.021501 0.025049 0.049777
C47   C     C_R   0.977894 0.534429 0.524786 0.051183
C48   C     C_R   0.023164 0.521501 0.474952 0.049777
C49   C     C_R   0.497431 0.040219 0.903164 0.064705
C50   C     C_R   0.501605 0.009120 0.096927 0.066516
C51   C     C_R   0.002569 0.540217 0.596836 0.064705
C52   C     C_R   0.998395 0.509122 0.403073 0.066516
C53   C     C_R   0.615750 0.052145 0.068813 -0.141118
C54   C     C_R   0.382734 0.051433 0.932532 -0.138510
C55   C     C_R   0.884250 0.552150 0.431187 -0.141118
C56   C     C_R   0.117266 0.551429 0.567468 -0.138510
C57   C     C_R   0.571306 0.039728 0.117531 -0.171246
C58   C     C_R   0.427252 0.065253 0.883866 -0.177373
C59   C     C_R   0.928694 0.539732 0.382470 -0.171246
C60   C     C_R   0.072748 0.565249 0.616134 -0.177374
H1    H     H_    0.690402 0.056961 0.967474 0.190403
H2    H     H_    0.308461 0.004939 0.033089 0.191687
H3    H     H_    0.809598 0.556966 0.532526 0.190403
H4    H     H_    0.191540 0.504934 0.466911 0.191686
H5    H     H_    0.669177 0.068668 0.086910 0.172768
H6    H     H_    0.329029 0.063529 0.915069 0.175458
H7    H     H_    0.830823 0.568674 0.413090 0.172768
H8    H     H_    0.170971 0.563522 0.584931 0.175459
H9    H     H_    0.592462 0.055707 0.171445 0.167418
H10   H     H_    0.405793 0.096172 0.831009 0.166813
H11   H     H_    0.907539 0.555713 0.328556 0.167418
H12   H     H_    0.094207 0.596167 0.668991 0.166813
Cl1   Cl    Cl    0.170169 0.064392 0.016277 -0.638090
Cl2   Cl    Cl    0.831744 0.086972 0.988146 -0.643339
Cl3   Cl    Cl    0.329831 0.564400 0.483722 -0.638089
Cl4   Cl    Cl    0.668256 0.586964 0.511853 -0.643339
Cl5   Cl    Cl    0.019428 0.919271 0.219986 -0.663930
Cl6   Cl    Cl    0.978056 0.991079 0.776688 -0.663563
Cl7   Cl    Cl    0.480572 0.419265 0.280015 -0.663931
Cl8   Cl    Cl    0.521944 0.491085 0.723312 -0.663563
Cl9   Cl    Cl    0.107023 0.900983 0.880676 -0.542793
Cl10  Cl    Cl    0.890998 0.859506 0.110815 -0.542059
Cl11  Cl    Cl    0.392976 0.400991 0.619325 -0.542794
Cl12  Cl    Cl    0.609002 0.359498 0.389185 -0.542057
C61   C     C_R   0.517046 0.986922 0.777533 0.069783
C62   C     C_R   0.545496 0.066989 0.722579 -0.032433
C63   C     C_R   0.518083 0.036286 0.653331 -0.080519
C64   C     C_R   0.460096 0.930634 0.637378 -0.053486
C65   C     C_R   0.431274 0.848736 0.690604 0.001808
C66   C     C_R   0.461268 0.869267 0.759599 -0.068252
H13   H     H_    0.587264 0.159756 0.732082 0.143836
H14   H     H_    0.540791 0.099194 0.612015 0.116913
H15   H     H_    0.437919 0.910725 0.583837 0.146331
H16   H     H_    0.386711 0.764658 0.678409 0.186225
H17   H     H_    0.439994 0.793948 0.799100 0.147942
C67   C     C_R   0.483525 0.921532 0.219798 0.063711
C68   C     C_R   0.457508 0.996795 0.277019 -0.037461
C69   C     C_R   0.488895 0.965446 0.344894 -0.078260
C70   C     C_R   0.547666 0.861402 0.356863 -0.049646
C71   C     C_R   0.572999 0.780210 0.301214 0.001417
C72   C     C_R   0.539549 0.803213 0.233631 -0.078432
H18   H     H_    0.415184 0.088168 0.270105 0.148645
H19   H     H_    0.468802 0.027148 0.388116 0.119783
H20   H     H_    0.573072 0.841933 0.409270 0.165192
H21   H     H_    0.618065 0.697011 0.310384 0.185778
H22   H     H_    0.559251 0.733947 0.191689 0.142685
C73   C     C_R   0.982954 0.486918 0.722467 0.069783
C74   C     C_R   0.954503 0.566984 0.777421 -0.032432
C75   C     C_R   0.981916 0.536280 0.846669 -0.080518
C76   C     C_R   0.039904 0.430627 0.862622 -0.053486
C77   C     C_R   0.068726 0.348730 0.809396 0.001807
C78   C     C_R   0.038732 0.369262 0.740401 -0.068253
H23   H     H_    0.912736 0.659751 0.767918 0.143835
H24   H     H_    0.959209 0.599187 0.887986 0.116914
H25   H     H_    0.062081 0.410717 0.916163 0.146332
H26   H     H_    0.113289 0.264651 0.821591 0.186225
H27   H     H_    0.060006 0.293943 0.700900 0.147942
C79   C     C_R   0.016475 0.421535 0.280202 0.063711
C80   C     C_R   0.042492 0.496799 0.222981 -0.037462
C81   C     C_R   0.011104 0.465451 0.155106 -0.078262
C82   C     C_R   0.952333 0.361407 0.143137 -0.049646
C83   C     C_R   0.927001 0.280215 0.198787 0.001418
C84   C     C_R   0.960451 0.303217 0.266369 -0.078431
H28   H     H_    0.084816 0.588172 0.229896 0.148645
H29   H     H_    0.031197 0.527154 0.111884 0.119783
H30   H     H_    0.926927 0.341939 0.090730 0.165193
H31   H     H_    0.881935 0.197017 0.189616 0.185778
H32   H     H_    0.940749 0.233951 0.308311 0.142685

loop_
_geom_bond_atom_site_label_1
_geom_bond_atom_site_label_2
_ccdc_geom_bond_type
C34   C38   A    
C55   C59   A    
O1    C5    A    
C32   C52   A    
C31   C35   A    
O19   V1    S    
O13   V1    S    
O3    C7    A    
C63   C64   A    
C56   C60   A    
O15   V3    S    
C82   C83   A    
C70   C71   A    
C14   C25   A    
C54   H6    S    
O7    C3    A    
C6    C11   S    
C38   H2    S    
C53   H5    S    
C81   H29   S    
C58   H10   S    
C9    C18   A    
C40   C44   A    
O9    V1    S    
C14   C18   A    
C30   C67   S    
C21   Cl2   S    
C30   C34   A    
C64   H15   S    
O4    C8    A    
C51   C60   A    
C80   C81   A    
O1    V3    S    
C17   Cl6   S    
C12   C23   A    
O2    V4    S    
C60   H12   S    
C69   H19   S    
O3    V1    S    
C19   Cl8   S    
C62   C63   A    
C72   H22   S    
C1    O15   A    
C2    O16   A    
C74   C75   A    
C46   C50   A    
C45   C49   A    
C63   H14   S    
O14   V2    S    
C21   C25   A    
C16   C20   A    
C55   H7    S    
C66   H17   S    
C44   C48   A    
C16   Cl12  S    
C31   C51   A    
C65   H16   S    
O11   C7    A    
C15   C28   A    
C75   H24   S    
O12   C8    A    
C30   C50   A    
C9    C22   A    
C80   H28   S    
C10   C17   A    
O10   V2    S    
C11   C24   A    
C79   C84   A    
C52   C59   A    
C64   C65   A    
C20   Cl7   S    
O5    V1    S    
C77   H26   S    
C42   C54   A    
C39   C43   A    
C41   C53   A    
C38   C42   A    
C27   C28   A    
O8    V4    S    
C77   C78   A    
O7    V3    S    
C73   C78   A    
C76   H25   S    
C5    C12   S    
C29   C33   A    
C67   C72   A    
C23   C27   A    
C13   Cl9   S    
C23   Cl4   S    
C32   C36   A    
C1    C35   S    
C56   H8    S    
C15   Cl11  S    
O5    C1    A    
C78   H27   S    
C57   H9    S    
C54   C58   A    
C53   C57   A    
O8    C4    A    
C7    C10   S    
C59   H11   S    
C14   Cl10  S    
O9    C5    A    
C48   C52   A    
C10   C21   A    
C33   C37   A    
C11   C20   A    
C68   C69   A    
C83   C84   A    
C37   H1    S    
C61   C66   A    
O6    V2    S    
C22   Cl1   S    
C31   C73   S    
C75   C76   A    
C50   C57   A    
C44   C56   A    
C18   Cl5   S    
C49   C58   A    
C67   C68   A    
C65   C66   A    
O16   V4    S    
C29   C61   S    
C24   Cl3   S    
C2    C36   S    
C3    O13   A    
C39   H3    S    
O17   V3    S    
C29   C49   A    
C82   H30   S    
C81   C82   A    
O6    C2    A    
C15   C19   A    
O11   V3    S    
C76   C77   A    
O18   V4    S    
O12   V4    S    
C16   C27   A    
C22   C26   A    
C35   C39   A    
C8    C9    S    
C4    C34   S    
C36   C40   A    
O10   C6    A    
O20   V2    S    
C84   H32   S    
C74   H23   S    
C32   C79   S    
C68   H18   S    
C3    C33   S    
O2    C6    A    
C47   C51   A    
C13   C26   A    
C70   H20   S    
C42   C46   A    
C41   C45   A    
C71   H21   S    
C43   C47   A    
C13   C17   A    
C45   C46   A    
C83   H31   S    
C37   C41   A    
C24   C28   A    
C47   C48   A    
C25   C26   A    
C4    O14   A    
C79   C80   A    
C12   C19   A    
C69   C70   A    
C61   C62   A    
C62   H13   S    
C40   H4    S    
C43   C55   A    
O4    V2    S    
C73   C74   A    
C71   C72   A    
