data_mof_unit_29204.cif
_audit_creation_date              2013-03-05T15:54:04-0500
_audit_creation_method            fapswitch 2.2
_symmetry_space_group_name_H-M    P1
_symmetry_Int_Tables_number       1
_space_group_crystal_system       triclinic
_cell_length_a                    16.682198
_cell_length_b                    7.131411
_cell_length_c                    15.16194
_cell_angle_alpha                 89.856086
_cell_angle_beta                  94.737746
_cell_angle_gamma                 89.828965
_cell_volume                      1797.60170237

loop_
_atom_site_label
_atom_site_type_symbol
_atom_site_description
_atom_site_fract_x
_atom_site_fract_y
_atom_site_fract_z
_atom_type_partial_charge
O1    O     O_R   0.578230 0.505720 0.424270 -0.602236
O2    O     O_R   0.421770 0.005720 0.575730 -0.598844
O3    O     O_R   0.412470 0.173950 0.404530 -0.586410
O4    O     O_R   0.587530 0.673950 0.595470 -0.560467
C1    C     C_R   0.384158 0.345935 0.383094 1.027602
C2    C     C_R   0.612518 0.845501 0.620930 1.009697
O5    O     O_R   0.577030 0.175880 0.413670 -0.581239
O6    O     O_R   0.422970 0.675880 0.586330 -0.557382
O7    O     O_R   0.587510 0.007580 0.584940 -0.547688
O8    O     O_R   0.412490 0.507580 0.415060 -0.568473
C3    C     C_R   0.603337 0.344620 0.393335 1.011487
C4    C     C_R   0.396723 0.844711 0.606753 1.035812
O9    O     O_3   0.503240 0.339850 0.556180 -0.232966
O10   O     O_3   0.496760 0.839850 0.443820 -0.272313
V1    V     V_3+5 0.499400 0.064230 0.489580 1.283243
V2    V     V_3+5 0.500600 0.564230 0.510420 1.310216
C5    C     C_1   0.334008 0.854924 0.668783 -0.222262
C6    C     C_1   0.665950 0.354732 0.331159 -0.218740
C7    C     C_1   0.281250 0.865701 0.720039 0.122036
C8    C     C_1   0.718632 0.365597 0.279810 0.113291
C9    C     C_1   0.218992 0.879280 0.780220 0.116205
C10   C     C_1   0.780846 0.379366 0.219577 0.110074
C11   C     C_1   0.166281 0.890060 0.831537 -0.212223
C12   C     C_1   0.833561 0.390258 0.168270 -0.213727
C13   C     C_3   0.769341 0.690220 0.818807 0.824874
C14   C     C_3   0.255238 0.267924 0.155730 0.778804
C15   C     C_3   0.687022 0.687618 0.757106 -0.137558
C16   C     C_3   0.331443 0.264963 0.225866 -0.098065
H1    H     H_    0.688271 0.563809 0.715399 0.204073
H2    H     H_    0.345270 0.115278 0.242469 0.138027
H3    H     H_    0.775210 0.720804 0.621967 0.070450
H4    H     H_    0.249792 0.102263 0.340644 0.145869
C17   C     C_3   0.835774 0.919793 0.714800 0.055728
C18   C     C_3   0.159783 0.302133 0.283620 0.040926
C19   C     C_3   0.743941 0.034286 0.831436 0.119744
C20   C     C_3   0.221000 0.586812 0.215185 0.169573
C21   C     C_3   0.811447 0.887457 0.813012 -0.485257
C22   C     C_3   0.184447 0.386982 0.192232 -0.507168
H5    H     H_    0.717326 0.990532 0.892993 0.204369
H6    H     H_    0.250410 0.637398 0.156401 0.200756
C23   C     C_3   0.682802 0.860092 0.692687 -0.495933
C24   C     C_3   0.311714 0.362245 0.314372 -0.499735
C25   C     C_3   0.764090 0.864662 0.647039 0.315768
C26   C     C_3   0.237258 0.254791 0.345621 0.295009
C27   C     C_3   0.675074 0.034174 0.754696 0.244160
C28   C     C_3   0.287712 0.573959 0.293621 0.210614
H7    H     H_    0.617557 0.020082 0.786330 0.117519
H8    H     H_    0.341470 0.645379 0.271179 0.126874
H9    H     H_    0.847494 0.070915 0.705851 0.177373
H10   H     H_    0.127099 0.410985 0.318067 0.189303
O11   O     O_R   0.087480 0.241090 0.084980 -0.527501
O12   O     O_R   0.912520 0.741090 0.915020 -0.511894
O13   O     O_R   0.922960 0.569060 0.086330 -0.595229
O14   O     O_R   0.077040 0.069060 0.913670 -0.590707
C29   C     C_R   0.896251 0.400377 0.106188 1.009689
C30   C     C_R   0.103640 0.900271 0.893672 1.017798
O15   O     O_R   0.087520 0.570920 0.095480 -0.588266
O16   O     O_R   0.912480 0.070920 0.904520 -0.606424
O17   O     O_R   0.078240 0.739160 0.924260 -0.573572
O18   O     O_R   0.921760 0.239160 0.075740 -0.567595
C31   C     C_R   0.114019 0.401221 0.120010 1.106811
C32   C     C_R   0.883593 0.902179 0.882947 1.124963
O19   O     O_3   0.996740 0.404980 0.943840 -0.261504
O20   O     O_3   0.003260 0.904980 0.056160 -0.259915
V3    V     V_3+5 0.000600 0.680640 0.010420 1.313166
V4    V     V_3+5 0.999400 0.180640 0.989580 1.308098
O21   O     O_3   0.823217 0.551961 0.793555 -0.700934
H11   H     H_    0.819614 0.538002 0.728600 0.322864
O22   O     O_3   0.229302 0.083146 0.136700 -0.729612
H12   H     H_    0.222864 0.018481 0.193210 0.338414
N1    N     N_R   0.668703 0.211386 0.706295 0.266881
O23   O     O_R   0.726455 0.273292 0.661683 -0.401473
O24   O     O_R   0.600630 0.300945 0.702111 -0.342032
N2    N     N_R   0.266459 0.678563 0.372435 0.279369
O25   O     O_R   0.198622 0.653073 0.407201 -0.288368
O26   O     O_R   0.313547 0.811659 0.403989 -0.421026
O27   O     O_3   0.760947 0.986715 0.573662 -0.640721
H13   H     H_    0.738083 0.916059 0.521136 0.313620
O28   O     O_3   0.224307 0.295325 0.434137 -0.645509
H14   H     H_    0.259211 0.209960 0.472370 0.334484
O29   O     O_3   0.755594 0.654513 0.907774 -0.709798
H15   H     H_    0.735954 0.523895 0.911482 0.389774
O30   O     O_3   0.274988 0.349137 0.075482 -0.717496
H16   H     H_    0.310116 0.259078 0.046749 0.372882
N3    N     N_R   0.613472 0.673692 0.805860 0.266191
O31   O     O_R   0.610015 0.743566 0.884706 -0.355880
O32   O     O_R   0.546250 0.619660 0.764261 -0.335397
N4    N     N_R   0.404800 0.340396 0.191004 0.257183
O33   O     O_R   0.406363 0.506175 0.155122 -0.358171
O34   O     O_R   0.469008 0.235973 0.192524 -0.367595
N5    N     N_R   0.909924 0.825622 0.691128 0.234048
O35   O     O_R   0.955655 0.726725 0.747245 -0.383396
O36   O     O_R   0.934210 0.854783 0.612880 -0.301564
N6    N     N_R   0.102740 0.144571 0.275696 0.260510
O37   O     O_R   0.030403 0.175312 0.239711 -0.400686
O38   O     O_R   0.112138 0.003965 0.330449 -0.286041
O39   O     O_3   0.772338 0.215191 0.849831 -0.704710
H17   H     H_    0.814954 0.239101 0.810321 0.388049
O40   O     O_3   0.163747 0.726228 0.230427 -0.670099
H18   H     H_    0.115467 0.670013 0.253312 0.367533

loop_
_geom_bond_atom_site_label_1
_geom_bond_atom_site_label_2
_geom_bond_distance
_ccdc_geom_bond_type
O16   C32   1.329173 A    
C1    C24   1.533067 S    
O19   V3    2.210822 S    
C3    C6    1.465512 S    
C14   O30   1.410033 S    
C27   N1    1.458975 S    
O1    C3    1.321967 A    
O2    C4    1.321691 A    
C2    O7    1.328215 A    
O39   H17   0.981795 S    
C11   C30   1.465387 S    
O27   H13   0.993279 S    
C12   C29   1.465496 S    
O5    C3    1.326405 A    
N2    O26   1.300585 A    
C19   C21   1.577665 S    
C17   N5    1.476331 S    
C15   H1    1.088460 S    
C17   H9    1.105897 S    
C24   C28   1.584947 S    
C16   C24   1.570553 S    
C15   N3    1.487264 S    
C13   C21   1.579570 S    
O16   V4    2.020143 S    
O30   H16   0.993484 S    
C2    C23   1.536175 S    
C13   O21   1.407128 S    
C4    C5    1.465214 S    
C16   N4    1.475021 S    
C20   C28   1.562516 S    
O13   V3    1.970584 S    
C22   C31   1.541420 S    
C27   H7    1.112279 S    
O19   V4    1.741090 S    
O18   V4    1.958900 S    
O6    V2    1.969881 S    
C29   O18   1.322211 A    
C13   O29   1.409516 S    
C23   C25   1.572939 S    
O22   H12   0.985798 S    
C24   C26   1.567011 S    
C21   C32   1.540912 S    
C28   H8    1.109834 S    
O13   C29   1.326574 A    
O14   C30   1.326128 A    
C18   H10   1.104177 S    
N2    O25   1.300333 A    
N3    O32   1.300313 A    
O21   H11   0.987006 S    
C17   C25   1.562700 S    
C20   H6    1.112154 S    
C18   C26   1.569464 S    
O4    C2    1.341016 A    
O15   V3    2.014272 S    
N5    O35   1.299957 A    
N1    O24   1.298121 A    
C14   C22   1.589401 S    
N3    O31   1.301898 A    
O29   H15   0.991352 S    
O11   V4    2.023097 S    
O20   V4    2.205965 S    
O4    V2    2.020169 S    
C19   H5    1.110599 S    
N5    O36   1.301385 A    
C15   C23   1.566483 S    
O40   H18   0.988535 S    
O6    C4    1.326032 A    
H4    C26   1.110969 S    
O1    V2    1.958658 S    
N6    O38   1.300991 A    
O2    V1    1.958905 S    
H3    C25   1.115299 S    
C8    C10   1.441368 S    
C9    C11   1.223698 T    
C10   C12   1.223779 T    
C13   C15   1.596680 S    
C20   C22   1.580002 S    
C19   C27   1.566161 S    
C28   N2    1.477511 S    
O3    V1    2.014296 S    
C7    C9    1.441202 S    
C18   C22   1.595873 S    
C26   O28   1.407444 S    
C18   N6    1.473333 S    
N4    O34   1.301348 A    
O3    C1    1.342451 A    
O15   C31   1.328799 A    
O14   V4    1.969799 S    
C25   O27   1.408309 S    
C14   C16   1.588651 S    
C30   O17   1.321891 A    
O20   V3    1.744531 S    
C16   H2    1.115184 S    
O7    V1    2.014111 S    
C1    O8    1.324899 A    
O8    V2    2.017325 S    
O17   V3    1.959151 S    
O11   C31   1.322648 A    
O5    V1    1.970669 S    
C5    C7    1.223655 T    
C20   O40   1.409288 S    
C6    C8    1.223786 T    
N6    O37   1.300397 A    
C17   C21   1.591831 S    
O28   H14   0.992995 S    
N1    O23   1.299734 A    
N4    O33   1.301403 A    
O9    V2    1.741475 S    
C14   O22   1.411224 S    
C23   C27   1.570569 S    
O10   V1    1.744915 S    
O12   C32   1.320675 A    
C19   O39   1.396502 S    
O12   V3    2.019677 S    
