data_mof_unit_28763.cif
_audit_creation_date              2013-03-05T15:43:51-0500
_audit_creation_method            fapswitch 2.2
_symmetry_space_group_name_H-M    P1
_symmetry_Int_Tables_number       1
_space_group_crystal_system       triclinic
_cell_length_a                    13.516886
_cell_length_b                    13.536005
_cell_length_c                    27.52769
_cell_angle_alpha                 91.125536
_cell_angle_beta                  90.381041
_cell_angle_gamma                 60.066973
_cell_volume                      4363.88781585

loop_
_atom_site_label
_atom_site_type_symbol
_atom_site_description
_atom_site_fract_x
_atom_site_fract_y
_atom_site_fract_z
_atom_type_partial_charge
O1    O     O_R   0.301710 0.195650 0.554160 -0.460507
O2    O     O_R   0.522390 0.158990 0.550460 -0.479190
C1    C     C_R   0.620458 0.101507 0.570028 0.549922
O3    O     O_R   0.694390 0.003530 0.554040 -0.497116
O4    O     O_R   0.657700 0.819660 0.549320 -0.490219
C2    C     C_R   0.598836 0.781612 0.569102 0.560732
O5    O     O_R   0.501930 0.803280 0.552920 -0.472182
O6    O     O_R   0.318170 0.023580 0.549580 -0.494233
C3    C     C_R   0.278456 0.121878 0.569803 0.569237
O7    O     O_R   0.303010 0.193990 0.446760 -0.479866
O8    O     O_R   0.523600 0.157450 0.450900 -0.508181
C4    C     C_R   0.621449 0.099924 0.431517 0.541202
O9    O     O_R   0.695690 0.001860 0.446640 -0.463768
O10   O     O_R   0.658900 0.818120 0.449760 -0.452541
C5    C     C_R   0.604059 0.772496 0.431308 0.571228
O11   O     O_R   0.503220 0.801620 0.445520 -0.456902
O12   O     O_R   0.319370 0.022040 0.450020 -0.486598
C6    C     C_R   0.278577 0.119652 0.431262 0.582963
Cr1   Cr    Cr6+3 0.417550 0.169090 0.500530 1.125964
Cr2   Cr    Cr6+3 0.669180 0.913420 0.499920 1.149351
Cr3   Cr    Cr6+3 0.413260 0.917540 0.499520 1.141249
O13   O     O_3   0.499990 0.000010 0.499990 -0.313416
C7    C     C_3   0.753280 0.582938 0.732607 0.256070
C8    C     C_3   0.784654 0.646134 0.771986 -0.130683
H1    H     H_    0.872591 0.622836 0.783148 0.194506
H2    H     H_    0.706924 0.835174 0.744217 0.183085
C9    C     C_1   0.701941 0.601509 0.899571 0.066582
C10   C     C_1   0.627853 0.741549 0.617591 0.087331
C11   C     C_3   0.662500 0.582016 0.766668 -0.063535
C12   C     C_3   0.692550 0.647273 0.805459 -0.054006
C13   C     C_3   0.573136 0.697924 0.746231 0.189391
C14   C     C_3   0.662574 0.697429 0.711975 0.000325
C15   C     C_3   0.603338 0.760998 0.784718 0.210806
C16   C     C_3   0.693216 0.762376 0.750798 -0.148078
C17   C     C_1   0.698682 0.624370 0.857391 0.048751
C18   C     C_1   0.645883 0.719403 0.659930 0.095434
H3    H     H_    0.648184 0.510146 0.774296 0.231541
C19   C     C_3   0.077147 0.153569 0.735664 -0.103947
C20   C     C_3   0.161596 0.071395 0.774122 -0.125816
H4    H     H_    0.165150 0.992326 0.786769 0.194742
H5    H     H_    0.013421 0.139974 0.715514 0.189767
H6    H     H_    0.345936 0.003304 0.741293 0.233062
C21   C     C_1   0.091761 0.203354 0.901472 0.071911
C22   C     C_1   0.230442 0.139310 0.617679 0.079097
C23   C     C_3   0.051903 0.258063 0.769197 -0.062838
C24   C     C_3   0.136679 0.175325 0.806693 -0.017361
C25   C     C_3   0.151520 0.263043 0.745128 0.216950
C26   C     C_3   0.176548 0.160677 0.711978 -0.018391
C27   C     C_3   0.233766 0.182990 0.782840 0.244717
C28   C     C_3   0.261657 0.078410 0.749951 -0.066096
C29   C     C_1   0.115794 0.186262 0.859029 0.061756
C30   C     C_1   0.201710 0.150294 0.659730 0.069912
H7    H     H_    0.969627 0.334379 0.779270 0.224395
C31   C     C_3   0.603852 0.274961 0.742227 0.231091
C32   C     C_3   0.546253 0.234182 0.779014 -0.051678
H8    H     H_    0.458351 0.287186 0.793214 0.224870
C33   C     C_1   0.688087 0.204762 0.903957 0.069277
C34   C     C_1   0.635997 0.133027 0.618160 0.064624
C35   C     C_3   0.712822 0.220578 0.772686 0.227306
C36   C     C_3   0.657348 0.179583 0.809475 -0.031603
C37   C     C_3   0.761513 0.107920 0.743432 -0.169492
C38   C     C_3   0.650941 0.162768 0.713268 0.016790
C39   C     C_3   0.704569 0.065646 0.780381 -0.124874
C40   C     C_3   0.594409 0.120803 0.749366 0.250205
C41   C     C_1   0.669267 0.191520 0.862087 0.062124
C42   C     C_1   0.644767 0.150287 0.660577 0.073499
H9    H     H_    0.743936 0.979434 0.796215 0.166684
H10   H     H_    0.849905 0.058553 0.728928 0.149295
C43   C     C_R   0.743512 0.695679 0.361884 0.158136
C44   C     C_R   0.754220 0.676067 0.311382 -0.052448
C45   C     C_R   0.766888 0.654705 0.209402 0.021816
C46   C     C_R   0.857967 0.650863 0.235984 0.214681
C47   C     C_R   0.850802 0.662076 0.286337 -0.043491
C48   C     C_R   0.774734 0.636477 0.158988 -0.105704
H11   H     H_    0.852659 0.615322 0.139803 0.197201
H12   H     H_    0.922687 0.657949 0.305658 0.225205
C49   C     C_R   0.686007 0.634350 0.133611 -0.020931
C50   C     C_R   0.575470 0.673655 0.361151 0.223418
C51   C     C_R   0.571905 0.676315 0.310137 -0.034725
C52   C     C_R   0.664444 0.674534 0.285246 -0.085218
C53   C     C_R   0.477864 0.685312 0.283280 0.253507
C54   C     C_R   0.480964 0.683072 0.232441 0.190605
C55   C     C_R   0.576685 0.673228 0.207979 -0.055475
C56   C     C_R   0.668843 0.668587 0.234234 -0.022424
C57   C     C_R   0.583802 0.663432 0.157531 -0.082761
C58   C     C_R   0.647237 0.704550 0.385920 0.000537
H13   H     H_    0.513742 0.666559 0.137005 0.210750
C59   C     C_R   0.298471 0.050665 0.348183 -0.124490
C60   C     C_R   0.269783 0.067113 0.299441 0.026629
C61   C     C_R   0.215324 0.102855 0.200332 0.037065
C62   C     C_R   0.316799 0.006878 0.215326 -0.049770
C63   C     C_R   0.343557 0.989379 0.264419 -0.090709
C64   C     C_R   0.186707 0.122878 0.150802 0.221943
H14   H     H_    0.378388 0.976898 0.358801 0.127750
H15   H     H_    0.376637 0.944997 0.189470 0.186859
H16   H     H_    0.423199 0.915864 0.275007 0.112263
C65   C     C_R   0.086114 0.221927 0.137917 0.029706
C66   C     C_R   0.127980 0.230391 0.370123 0.206363
C67   C     C_R   0.094768 0.245107 0.320941 0.029117
C68   C     C_R   0.167942 0.164323 0.285501 0.040452
C69   C     C_R   0.990646 0.338171 0.306184 -0.075061
C70   C     C_R   0.962528 0.354253 0.257205 -0.113217
C71   C     C_R   0.038042 0.278551 0.222096 0.003422
C72   C     C_R   0.140363 0.181708 0.235951 0.022002
C73   C     C_R   0.012316 0.298262 0.173241 -0.153636
C74   C     C_R   0.230174 0.132723 0.383103 0.016239
H17   H     H_    0.933113 0.372622 0.162426 0.122098
H18   H     H_    0.881803 0.426456 0.246724 0.124753
H19   H     H_    0.930163 0.398958 0.332184 0.177643
C75   C     C_R   0.540106 0.205636 0.356894 -0.106923
C76   C     C_R   0.551005 0.229953 0.309271 0.018011
C77   C     C_R   0.573838 0.262479 0.210483 0.039603
C78   C     C_R   0.465247 0.302280 0.231057 -0.051656
C79   C     C_R   0.454082 0.286283 0.280019 -0.107236
C80   C     C_R   0.587717 0.271631 0.160342 0.226994
H20   H     H_    0.455593 0.230970 0.370739 0.147751
H21   H     H_    0.388315 0.344201 0.209557 0.211165
H22   H     H_    0.369562 0.315341 0.294741 0.144585
C81   C     C_R   0.698503 0.228084 0.141592 0.021725
C82   C     C_R   0.745981 0.107540 0.367329 -0.061598
C83   C     C_R   0.758943 0.134579 0.319756 0.030405
C84   C     C_R   0.660513 0.192746 0.290119 0.029489
C85   C     C_R   0.867549 0.101344 0.300281 0.248517
C86   C     C_R   0.877779 0.120185 0.251489 -0.066206
C87   C     C_R   0.781252 0.170901 0.221649 -0.041981
C88   C     C_R   0.671696 0.209795 0.240822 0.013209
C89   C     C_R   0.793500 0.181155 0.172539 -0.155023
C90   C     C_R   0.637231 0.140709 0.385294 -0.003542
H23   H     H_    0.878470 0.152223 0.158220 0.149570
H24   H     H_    0.961877 0.092447 0.236560 0.165449
H25   H     H_    0.819436 0.058288 0.390133 0.209186
O14   O     O_R   0.818720 0.150820 0.967160 -0.494151
O15   O     O_R   0.006410 0.181720 0.970200 -0.484094
C91   C     C_R   0.048455 0.236437 0.949788 0.572409
O16   O     O_R   0.027890 0.334070 0.964920 -0.482891
O17   O     O_R   0.809600 0.521790 0.967960 -0.496484
C92   C     C_R   0.712434 0.561255 0.947981 0.559560
O18   O     O_R   0.635520 0.542770 0.964420 -0.480179
O19   O     O_R   0.665950 0.325030 0.970100 -0.479404
C93   C     C_R   0.721682 0.224951 0.951129 0.563337
O20   O     O_R   0.816620 0.158530 0.074540 -0.511738
O21   O     O_R   0.004460 0.188870 0.069750 -0.482595
C94   C     C_R   0.047237 0.245981 0.088274 0.599889
O22   O     O_R   0.025800 0.341780 0.072300 -0.486579
O23   O     O_R   0.807650 0.528950 0.067500 -0.508111
C95   C     C_R   0.707855 0.574905 0.086553 0.539351
O24   O     O_R   0.633420 0.550490 0.071810 -0.491246
O25   O     O_R   0.664000 0.332180 0.069640 -0.449413
C96   C     C_R   0.721756 0.236729 0.090745 0.581188
Cr4   Cr    Cr6+3 0.909170 0.177380 0.020380 1.106407
Cr5   Cr    Cr6+3 0.912710 0.429210 0.018220 1.095127
Cr6   Cr    Cr6+3 0.657170 0.432570 0.019030 1.135186
O26   O     O_3   0.826350 0.346390 0.019210 -0.301524
N1    N     N_R   0.312230 0.204789 0.811330 0.098409
O27   O     O_R   0.275510 0.306037 0.830190 -0.294940
O28   O     O_R   0.402052 0.119546 0.829928 -0.227103
N2    N     N_R   0.145793 0.368426 0.730013 0.132696
O29   O     O_R   0.111035 0.454001 0.760494 -0.269194
O30   O     O_R   0.170899 0.379308 0.685654 -0.249779
Cl1   Cl    Cl    0.537719 0.412939 0.716337 -0.444065
Cl2   Cl    Cl    0.517451 0.053452 0.728924 -0.614910
N3    N     N_R   0.778486 0.276693 0.782386 0.069261
O31   O     O_R   0.813869 0.309610 0.745789 -0.322818
O32   O     O_R   0.799633 0.296813 0.826498 -0.389775
Cl3   Cl    Cl    0.855511 0.471991 0.694108 -0.468463
N4    N     N_R   0.827694 0.710113 0.388319 0.090273
O33   O     O_R   0.847649 0.791639 0.377278 -0.300694
O34   O     O_R   0.875363 0.649878 0.426630 -0.229548
Cl4   Cl    Cl    0.984129 0.630467 0.208083 -0.513319
N5    N     N_R   0.387612 0.687060 0.205719 0.104691
O35   O     O_R   0.291857 0.782633 0.201985 -0.246448
O36   O     O_R   0.396847 0.593903 0.186887 -0.261570
Cl5   Cl    Cl    0.347095 0.716495 0.310855 -0.355530
Cl6   Cl    Cl    0.508301 0.613364 0.395116 -0.428668
Cl7   Cl    Cl    0.275287 0.027012 0.104692 -0.536802
N6    N     N_R   0.061193 0.315018 0.406427 0.076771
O37   O     O_R   0.041358 0.418896 0.402283 -0.269283
O38   O     O_R   0.032863 0.285506 0.446407 -0.276473
Cl8   Cl    Cl    0.469055 0.331346 0.120658 -0.497991
N7    N     N_R   0.525910 0.855910 0.816062 0.126257
O39   O     O_R   0.419913 0.881853 0.820406 -0.286345
O40   O     O_R   0.568228 0.898774 0.846921 -0.272376
Cl9   Cl    Cl    0.993460 0.034231 0.335114 -0.508678
N8    N     N_R   0.457002 0.726884 0.733391 0.120982
O41   O     O_R   0.394089 0.711893 0.764591 -0.241203
O42   O     O_R   0.416107 0.766074 0.690712 -0.303635

loop_
_geom_bond_atom_site_label_1
_geom_bond_atom_site_label_2
_geom_bond_distance
_ccdc_geom_bond_type
C81   C96   1.456240 S    
C32   H8    1.106210 S    
C54   N5    1.434399 S    
N2    O29   1.300192 A    
C64   C65   1.401835 A    
C13   N8    1.458336 S    
C82   H25   1.082555 S    
O14   Cr4   2.040694 S    
C63   H16   1.082692 S    
C52   C56   1.404933 A    
C21   C29   1.201464 T    
C89   H23   1.085790 S    
C53   C54   1.399652 A    
O20   C96   1.264188 A    
C85   C86   1.392562 A    
C25   C27   1.521315 S    
O4    Cr2   1.936794 S    
C23   C24   1.543276 S    
C82   C83   1.401940 A    
C4    O9    1.276366 A    
C73   H17   1.086286 S    
C24   C27   1.521228 S    
O8    Cr1   1.933479 S    
C9    C92   1.428894 S    
C12   C17   1.461789 S    
C36   C39   1.550241 S    
C7    C11   1.554370 S    
N3    O31   1.295727 A    
O22   Cr5   2.046221 S    
O4    C2    1.273019 A    
N5    O35   1.300700 A    
C69   H19   1.082114 S    
C94   O22   1.266727 A    
C66   C67   1.409756 A    
O19   Cr6   1.923528 S    
C68   C72   1.404669 A    
C59   C74   1.398787 A    
N8    O41   1.300285 A    
O12   C6    1.269800 A    
C37   C39   1.557966 S    
C43   N4    1.437967 S    
C65   C94   1.444564 S    
C19   C23   1.562174 S    
C38   C40   1.536045 S    
C49   C57   1.398653 A    
C14   C16   1.551489 S    
C75   C76   1.384414 A    
C34   C42   1.202958 T    
C2    C10   1.427862 S    
C25   C26   1.534204 S    
O6    C3    1.276919 A    
Cr4   O26   1.983553 S    
C85   Cl9   1.763750 S    
C7    C8    1.551188 S    
C13   C15   1.524643 S    
C70   H18   1.082438 S    
C77   C88   1.422330 A    
C19   C26   1.543615 S    
O9    Cr2   2.053466 S    
C46   C47   1.390174 A    
C65   C73   1.397509 A    
C50   C58   1.402013 A    
C23   C25   1.536486 S    
C23   H7    1.107776 S    
C35   C36   1.530765 S    
N2    O30   1.300158 A    
C7    Cl3   1.781539 S    
Cr3   O13   1.981391 S    
C76   C84   1.406613 A    
N4    O34   1.301011 A    
N4    O33   1.301630 A    
C43   C44   1.404974 A    
C77   C78   1.405476 A    
N7    O40   1.300324 A    
O20   Cr4   2.052112 S    
O23   C95   1.280935 A    
N3    O32   1.300207 A    
C31   C35   1.529771 S    
C57   H13   1.082430 S    
C39   H9    1.110021 S    
O1    Cr1   2.051478 S    
C35   C37   1.537630 S    
C48   H11   1.082028 S    
C38   C42   1.463627 S    
C60   C68   1.406688 A    
C44   C52   1.415468 A    
C70   C71   1.398676 A    
C69   C70   1.389925 A    
O10   Cr2   1.922575 S    
C27   N1    1.455733 S    
Cr1   O13   1.983349 S    
O1    C3    1.270159 A    
C8    H1    1.109771 S    
C19   H5    1.109655 S    
C62   C63   1.390622 A    
C51   C53   1.419073 A    
C50   C51   1.405350 A    
O17   C92   1.270651 A    
C31   C38   1.530165 S    
C9    C17   1.202387 T    
O5    Cr3   2.050689 S    
C62   H15   1.081897 S    
C24   C29   1.460316 S    
C64   Cl7   1.770174 S    
C8    C16   1.558603 S    
C39   C40   1.549887 S    
C33   C93   1.438448 S    
C53   Cl5   1.771845 S    
C84   C88   1.402690 A    
C21   C91   1.427416 S    
C6    C74   1.448791 S    
C11   C12   1.549429 S    
O15   C91   1.275911 A    
C66   N6    1.435596 S    
C55   C56   1.410588 A    
O7    Cr1   2.042018 S    
O19   C93   1.278411 A    
C32   C40   1.551124 S    
C48   C49   1.396325 A    
C44   C47   1.405561 A    
C15   C16   1.544839 S    
N1    O27   1.300298 A    
C86   H24   1.084565 S    
C71   C73   1.384233 A    
O23   Cr5   1.928716 S    
Cr6   O26   1.981940 S    
C60   C63   1.398845 A    
C61   C72   1.421307 A    
C83   C84   1.421633 A    
C79   H22   1.084242 S    
C95   O24   1.267820 A    
H6    C28   1.107430 S    
C20   C24   1.542083 S    
C78   H21   1.081547 S    
N6    O37   1.300643 A    
C67   C69   1.405646 A    
Cr2   O13   1.982103 S    
C36   C41   1.470788 S    
C54   C55   1.407587 A    
C80   C81   1.404891 A    
C5    C58   1.475289 S    
C87   C88   1.403590 A    
C47   H12   1.081783 S    
C8    C12   1.547498 S    
C1    O3    1.269439 A    
C14   C18   1.461996 S    
C20   H4    1.110014 S    
O17   Cr5   1.930419 S    
N7    O39   1.299571 A    
C61   C64   1.408872 A    
C87   C89   1.381144 A    
C78   C79   1.390346 A    
C25   N2    1.458295 S    
C75   H20   1.085127 S    
C31   C32   1.548438 S    
C3    C22   1.435309 S    
C45   C56   1.420339 A    
C12   C15   1.524024 S    
H2    C16   1.108068 S    
O2    Cr1   1.924619 S    
O10   C5    1.276096 A    
N1    O28   1.297853 A    
C13   C14   1.535443 S    
O15   Cr4   1.934823 S    
O25   Cr6   1.934806 S    
C33   C41   1.207816 T    
C40   Cl2   1.774365 S    
O6    Cr3   1.927688 S    
C45   C48   1.400180 A    
O8    C4    1.267119 A    
C82   C90   1.396155 A    
O11   Cr3   2.044168 S    
C2    O5    1.270498 A    
C4    C90   1.455359 S    
O14   C93   1.272111 A    
C92   O18   1.272222 A    
C91   O16   1.269099 A    
C66   C74   1.404662 A    
C67   C68   1.420335 A    
C55   C57   1.391822 A    
O18   Cr6   2.053581 S    
C46   Cl4   1.764490 S    
O21   Cr4   1.923155 S    
O2    C1    1.276857 A    
C45   C46   1.406891 A    
C11   C13   1.539955 S    
C35   N3    1.448347 S    
C7    C14   1.535117 S    
C37   H10   1.110191 S    
C22   C30   1.206042 T    
C61   C62   1.405238 A    
C19   C20   1.556933 S    
N5    O36   1.300933 A    
O7    C6    1.271406 A    
O16   Cr5   2.047030 S    
C26   C28   1.551594 S    
N8    O42   1.300180 A    
O24   Cr6   2.040948 S    
C76   C79   1.399753 A    
O25   C96   1.277954 A    
Cr5   O26   1.981850 S    
C37   C38   1.541034 S    
O12   Cr3   1.931165 S    
C83   C85   1.409531 A    
C31   Cl1   1.781251 S    
C51   C52   1.419616 A    
O3    Cr2   2.039609 S    
C1    C34   1.430116 S    
C26   C30   1.467940 S    
C20   C28   1.556793 S    
C59   C60   1.385239 A    
C10   C18   1.201951 T    
C27   C28   1.545080 S    
C11   H3    1.106508 S    
C71   C72   1.407117 A    
C50   Cl6   1.773490 S    
C59   H14   1.086361 S    
O21   C94   1.272258 A    
C86   C87   1.400854 A    
C32   C36   1.550593 S    
C49   C95   1.462776 S    
C77   C80   1.410337 A    
C80   Cl8   1.771119 S    
C43   C58   1.413531 A    
C5    O11   1.277142 A    
C75   C90   1.403207 A    
N6    O38   1.301129 A    
C15   N7    1.454969 S    
C81   C89   1.403836 A    
