data_mof_unit_32897.cif
_audit_creation_date              2012-12-10T20:25:38-0500
_audit_creation_method            fapswitch 2.2
_symmetry_space_group_name_H-M    P1
_symmetry_Int_Tables_number       1
_space_group_crystal_system       triclinic
_cell_length_a                    8.574149
_cell_length_b                    10.688124
_cell_length_c                    9.932115
_cell_angle_alpha                 90.152297
_cell_angle_beta                  98.455401
_cell_angle_gamma                 91.239709
_cell_volume                      900.074910586

loop_
_atom_site_label
_atom_site_type_symbol
_atom_type_description
_atom_site_fract_x
_atom_site_fract_y
_atom_site_fract_z
_atom_type_partial_charge
C1    C     C_R   0.495789 0.260261 0.499484 0.878591
C2    C     C_R   0.419986 0.933353 0.379194 -0.211267
C3    C     C_R   0.478369 0.871224 0.499631 -0.095103
C4    C     C_R   0.511387 0.937087 0.621873 0.133206
C5    C     C_3   0.654930 0.933977 0.727151 -0.466149
C6    C     C_3   0.654509 0.075452 0.726644 -0.466245
C7    C     C_R   0.380348 0.442526 0.055728 0.171726
C8    C     C_R   0.612815 0.565770 0.086107 -0.032445
C9    C     C_R   0.612160 0.565134 0.941570 -0.025116
C10   C     C_R   0.379981 0.442690 0.913500 0.140125
C11   C     C_3   0.334071 0.307028 0.901677 -0.288816
C12   C     C_R   0.201490 0.498914 0.464412 0.970318
C13   C     C_3   0.334557 0.307273 0.056131 -0.310165
C14   C     C_R   0.497088 0.739736 0.499871 0.868134
C15   C     C_R   0.798532 0.500986 0.535626 0.967605
C16   C     C_2   0.036258 0.494583 0.445717 -0.342531
C17   C     C_2   0.963830 0.505398 0.554495 -0.368313
C18   C     C_R   0.510894 0.064750 0.621586 0.118800
C19   C     C_R   0.476875 0.128236 0.499202 -0.093415
C20   C     C_R   0.418838 0.062894 0.379148 -0.211920
H1    H     H_    0.974704 0.480473 0.342973 0.221717
H2    H     H_    0.427691 0.249008 0.869147 0.160883
H3    H     H_    0.428971 0.249483 0.111641 0.159052
H4    H     H_    0.025504 0.518682 0.657511 0.195195
H5    H     H_    0.380384 0.111083 0.285021 0.161917
H6    H     H_    0.382975 0.882815 0.284793 0.176467
H7    H     H_    0.628776 0.893488 0.824556 0.208320
H8    H     H_    0.758432 0.894976 0.687280 0.212716
H9    H     H_    0.629506 0.115950 0.824070 0.203036
H10   H     H_    0.757433 0.118514 0.686431 0.218805
N1    N     N_R   0.498950 0.499140 0.142680 -0.158383
N2    N     N_R   0.498950 0.499180 0.857030 -0.151430
O1    O     O_R   0.500020 0.316790 0.614690 -0.621800
O2    O     O_R   0.500000 0.316760 0.385350 -0.626542
O3    O     O_R   0.271760 0.500010 0.587850 -0.616646
O4    O     O_R   0.271740 0.499970 0.358500 -0.602689
O5    O     O_R   0.500000 0.683240 0.614650 -0.619440
O6    O     O_R   0.499980 0.683210 0.385310 -0.656593
O7    O     O_R   0.728260 0.500030 0.641500 -0.616637
O8    O     O_R   0.728240 0.499990 0.412150 -0.631482
Zn1   Zn    Zn3+2 0.500010 0.500020 0.653130 0.956148
Zn2   Zn    Zn3+2 0.499990 0.499980 0.346870 0.949712
C21   C     C_1   0.732418 0.633469 0.883175 0.337507
N3    N     N_1   0.830885 0.687940 0.838442 -0.215882
C22   C     C_1   0.179722 0.285782 0.816719 0.260822
N4    N     N_1   0.058620 0.268143 0.750240 -0.226507
C23   C     C_1   0.180681 0.288761 0.103692 0.259520
N5    N     N_1   0.060050 0.274261 0.141217 -0.203227
C24   C     C_2   0.737283 0.638122 0.175040 0.403174
H11   H     H_    0.710575 0.688824 0.262165 0.123996
O9    O     O_2   0.873283 0.641855 0.151925 -0.598750

loop_
_geom_bond_atom_site_label_1
_geom_bond_atom_site_label_2
_ccdc_geom_bond_type
C8    C9    A    
C7    C10   A    
C21   N3    T    
C16   H1    S    
N1    Zn2   S    
C14   O6    A    
C5    H8    S    
C11   H2    S    
O4    Zn2   S    
C23   N5    T    
O2    Zn2   S    
N2    Zn1   S    
O1    Zn1   S    
C19   C20   A    
O8    Zn2   S    
C2    C3    A    
C1    O1    A    
O7    Zn1   S    
C22   N4    T    
C14   O5    A    
C11   C13   S    
C15   O7    A    
C16   C17   D    
C3    C14   S    
C11   C22   S    
O3    Zn1   S    
C8    C24   S    
C6    H10   S    
C1    O2    A    
O6    Zn2   S    
O5    Zn1   S    
C5    C6    S    
C6    C18   S    
C12   O3    A    
C15   O8    A    
C9    C21   S    
C17   H4    S    
C12   O4    A    
C20   H5    S    
C2    C20   A    
C3    C4    A    
C10   N2    A    
C7    C13   S    
C6    H9    S    
C7    N1    A    
C13   H3    S    
C2    H6    S    
C24   H11   S    
C10   C11   S    
C15   C17   S    
C18   C19   A    
C9    N2    A    
C5    H7    S    
C1    C19   S    
C13   C23   S    
C4    C18   A    
C8    N1    A    
C12   C16   S    
C4    C5    S    
C24   O9    D    
