data_mof_unit_17438.cif
_audit_creation_date              2013-03-05T15:49:04-0500
_audit_creation_method            fapswitch 2.2
_symmetry_space_group_name_H-M    P1
_symmetry_Int_Tables_number       1
_space_group_crystal_system       triclinic
_cell_length_a                    10.647787
_cell_length_b                    12.977157
_cell_length_c                    11.758394
_cell_angle_alpha                 100.497711
_cell_angle_beta                  94.43879
_cell_angle_gamma                 91.353302
_cell_volume                      1591.58549836

loop_
_atom_site_label
_atom_site_type_symbol
_atom_site_description
_atom_site_fract_x
_atom_site_fract_y
_atom_site_fract_z
_atom_type_partial_charge
O1    O     O_R   0.506670 0.354460 0.582000 -0.604404
O2    O     O_R   0.493330 0.645540 0.418000 -0.602424
O3    O     O_R   0.490800 0.341410 0.386200 -0.548320
O4    O     O_R   0.509200 0.658590 0.613800 -0.548124
C1    C     C_R   0.499204 0.299127 0.478222 0.810464
C2    C     C_R   0.500595 0.700865 0.521763 0.811570
O5    O     O_R   0.324790 0.506500 0.597880 -0.563066
O6    O     O_R   0.675210 0.493500 0.402120 -0.569508
O7    O     O_R   0.308910 0.493440 0.402080 -0.562875
O8    O     O_R   0.691090 0.506560 0.597920 -0.559946
C3    C     C_R   0.259306 0.496493 0.499346 0.842867
C4    C     C_R   0.740669 0.503618 0.500698 0.851395
Cu1   Cu    Cu3+1 0.509400 0.507730 0.615930 1.009245
Cu2   Cu    Cu3+1 0.490600 0.492270 0.384070 1.006467
C5    C     C_3   0.044613 0.458153 0.588118 0.538713
C6    C     C_3   0.955002 0.542217 0.411833 0.543173
C7    C     C_3   0.949994 0.401701 0.489371 -0.342900
C8    C     C_3   0.049734 0.598365 0.510359 -0.309937
H1    H     H_    0.906600 0.321711 0.480783 0.158388
H2    H     H_    0.092769 0.678291 0.517431 0.160484
C9    C     C_3   0.877429 0.504062 0.501186 -0.094683
C10   C     C_3   0.122510 0.496222 0.498962 -0.096899
C11   C     C_3   0.971417 0.559649 0.601138 -0.232525
C12   C     C_3   0.028591 0.440449 0.398743 -0.267177
H3    H     H_    0.951539 0.610104 0.683394 0.211381
H4    H     H_    0.049785 0.388758 0.317685 0.217385
C13   C     C_R   0.496475 0.814337 0.533894 -0.060411
C14   C     C_R   0.502911 0.185627 0.466002 -0.059995
C15   C     C_R   0.553230 0.016925 0.357481 -0.157475
C16   C     C_R   0.445736 0.982988 0.642265 -0.159202
C17   C     C_R   0.544665 0.124788 0.365913 -0.128763
C18   C     C_R   0.454456 0.875134 0.633879 -0.128274
C19   C     C_R   0.469642 0.138243 0.557843 -0.226934
C20   C     C_R   0.529550 0.861716 0.441992 -0.223182
C21   C     C_R   0.478398 0.030531 0.550383 0.144823
C22   C     C_R   0.520620 0.969399 0.449388 0.143995
H5    H     H_    0.562192 0.814769 0.364641 0.190460
H6    H     H_    0.437092 0.185213 0.635231 0.187927
H7    H     H_    0.425560 0.839036 0.704209 0.193825
H8    H     H_    0.573523 0.160866 0.295552 0.193506
H9    H     H_    0.586312 0.970973 0.279859 0.200001
H10   H     H_    0.412574 0.028928 0.719858 0.198568
N1    N     N_R   0.523540 0.519360 0.790140 -0.272852
N2    N     N_R   0.476460 0.480640 0.209860 -0.267614
C23   C     C_R   0.401629 0.385501 0.016782 0.191541
C24   C     C_R   0.597432 0.615305 0.983218 0.188627
C25   C     C_R   0.408387 0.398189 0.139585 0.418166
C26   C     C_R   0.591171 0.602166 0.860325 0.424938
C27   C     C_R   0.539859 0.550874 0.159319 0.014077
C28   C     C_R   0.460103 0.449235 0.840739 0.023727
C29   C     C_R   0.534443 0.542329 0.036122 -0.157820
C30   C     C_R   0.465263 0.458065 0.963917 -0.151940
H11   H     H_    0.403697 0.387245 0.784504 0.204132
H12   H     H_    0.596528 0.612654 0.215599 0.204102
O9    O     O_3   0.099721 0.414688 0.681129 -0.601477
C31   C     C_3   0.005834 0.371785 0.739960 0.084966
H13   H     H_    0.039616 0.296224 0.760044 0.206833
H14   H     H_    0.913518 0.352848 0.687889 0.124451
C32   C     C_3   0.985916 0.444968 0.854360 -0.334016
H15   H     H_    0.074659 0.453654 0.912124 0.242681
H16   H     H_    0.960884 0.523690 0.837935 0.234537
C33   C     C_3   0.879995 0.402080 0.915129 -0.834748
H17   H     H_    0.790672 0.391788 0.857966 0.256204
H18   H     H_    0.864022 0.458021 0.995372 0.238986
H19   H     H_    0.905319 0.325572 0.938532 0.280012
O10   O     O_3   0.898717 0.593514 0.325554 -0.600340
C34   C     C_3   0.964976 0.577234 0.224506 0.068734
H20   H     H_    0.903046 0.601403 0.154613 0.207072
H21   H     H_    0.982016 0.493047 0.193479 0.141780
C35   C     C_3   0.087810 0.644620 0.239875 -0.349748
H22   H     H_    0.066099 0.728740 0.264153 0.245019
H23   H     H_    0.152608 0.623781 0.309797 0.221507
C36   C     C_3   0.155470 0.628069 0.128543 -0.825852
H24   H     H_    0.181505 0.544921 0.105287 0.251647
H25   H     H_    0.243102 0.678427 0.141802 0.267823
H26   H     H_    0.094147 0.649055 0.056041 0.269235
N3    N     N_R   0.650727 0.681049 0.810601 0.171339
O11   O     O_R   0.612655 0.776606 0.832806 -0.323080
O12   O     O_R   0.761927 0.665533 0.774380 -0.371372
N4    N     N_R   0.348167 0.319517 0.189070 0.170304
O13   O     O_R   0.385868 0.223850 0.166884 -0.324531
O14   O     O_R   0.236432 0.335180 0.223924 -0.369243
N5    N     N_R   0.331042 0.297541 0.947073 0.139581
O15   O     O_R   0.213025 0.281068 0.962219 -0.330622
O16   O     O_R   0.387956 0.227871 0.877166 -0.378332
N6    N     N_R   0.665443 0.704764 0.052920 0.134960
O17   O     O_R   0.781448 0.726213 0.035044 -0.322487
O18   O     O_R   0.606725 0.771971 0.124087 -0.378520

loop_
_geom_bond_atom_site_label_1
_geom_bond_atom_site_label_2
_geom_bond_distance
_ccdc_geom_bond_type
N2    C27   1.367481 A    
O9    C31   1.417389 S    
C6    C9    1.528344 S    
C20   H5    1.084538 S    
C36   H24   1.110980 S    
C21   C22   1.413478 A    
C23   N5    1.436275 S    
N3    O11   1.300922 A    
C17   H8    1.082504 S    
O5    C3    1.288895 A    
C15   C22   1.399869 A    
C16   C21   1.399912 A    
O1    C1    1.293821 A    
C12   H4    1.103084 S    
N6    O18   1.301006 A    
C27   H12   1.080184 S    
C31   H13   1.111106 S    
C18   H7    1.082462 S    
O4    Cu1   1.962500 S    
C33   H18   1.107827 S    
C19   C21   1.390302 A    
C5    C10   1.528070 S    
N5    O15   1.300895 A    
C27   C29   1.429082 A    
C28   C30   1.428587 A    
C35   H22   1.111386 S    
N1    C26   1.379380 A    
C20   C22   1.390209 A    
N2    C25   1.378962 A    
N3    O12   1.296895 A    
O10   C34   1.414014 S    
C32   H15   1.111131 S    
C6    C12   1.541191 S    
Cu1   Cu2   2.688374 S    
C36   H25   1.110664 S    
O2    C2    1.293687 A    
C25   N4    1.426643 S    
C23   C25   1.419161 A    
C13   C20   1.400204 A    
C24   C26   1.419997 A    
C32   H16   1.108507 S    
C28   H11   1.080259 S    
C8    C11   1.549391 S    
C7    C12   1.549919 S    
O4    C2    1.297653 A    
N6    O17   1.301015 A    
C23   C30   1.407338 A    
C4    C9    1.455633 S    
C7    C9    1.542298 S    
C34   H20   1.108338 S    
C34   H21   1.110842 S    
C5    O9    1.414078 S    
C26   N3    1.427137 S    
O7    Cu2   1.962490 S    
C33   H17   1.111992 S    
C1    C14   1.455392 S    
C2    C13   1.455393 S    
O6    C4    1.289092 A    
C35   C36   1.526332 S    
O7    C3    1.290949 A    
O3    Cu2   1.962501 S    
O8    C4    1.290522 A    
N4    O14   1.296642 A    
N5    O16   1.300977 A    
C14   C19   1.400257 A    
C9    C11   1.542108 S    
C36   H26   1.110917 S    
C10   C12   1.544398 S    
O1    Cu1   1.955118 S    
Cu1   N1    2.019912 S    
Cu2   N2    2.019913 S    
C5    C7    1.540774 S    
C32   C33   1.527203 S    
O6    Cu2   1.960087 S    
C33   H19   1.111256 S    
C15   H9    1.083548 S    
C13   C18   1.401767 A    
C8    C10   1.541213 S    
C14   C17   1.401791 A    
N4    O13   1.300861 A    
O3    C1    1.297523 A    
O8    Cu1   1.962491 S    
N1    C28   1.367055 A    
C3    C10   1.456145 S    
C19   H6    1.084608 S    
C31   C32   1.531187 S    
C34   C35   1.536172 S    
C29   C30   1.409260 A    
C15   C17   1.390806 A    
C16   C18   1.390895 A    
C24   C29   1.408152 A    
C5    C11   1.535960 S    
C7    H1    1.110468 S    
C31   H14   1.114487 S    
C8    H2    1.110368 S    
C11   H3    1.102930 S    
O2    Cu2   1.955118 S    
O5    Cu1   1.960086 S    
C6    O10   1.415051 S    
C6    C8    1.538613 S    
C16   H10   1.083570 S    
C35   H23   1.107771 S    
C24   N6    1.437221 S    
