data_mof_unit_19240.cif
_audit_creation_date              2012-12-10T17:32:20-0500
_audit_creation_method            fapswitch 2.2
_symmetry_space_group_name_H-M    P1
_symmetry_Int_Tables_number       1
_space_group_crystal_system       triclinic
_cell_length_a                    12.315403
_cell_length_b                    13.144247
_cell_length_c                    15.066671
_cell_angle_alpha                 78.094342
_cell_angle_beta                  101.032867
_cell_angle_gamma                 116.343557
_cell_volume                      2124.73684977

loop_
_atom_site_label
_atom_site_type_symbol
_atom_type_description
_atom_site_fract_x
_atom_site_fract_y
_atom_site_fract_z
_atom_type_partial_charge
C1    C     C_R   0.855015 0.286413 0.507624 0.795676
C2    C     C_R   0.944769 0.555017 0.074332 0.106174
C3    C     C_R   0.099778 0.364708 0.082075 -0.192940
C4    C     C_R   0.099727 0.366985 0.989425 -0.198668
C5    C     C_R   0.047762 0.430348 0.924845 0.111417
C6    C     C_R   0.994689 0.492043 0.953159 0.074793
C7    C     C_R   0.940631 0.554881 0.887819 0.103427
C8    C     C_R   0.888840 0.616725 0.916253 -0.188544
C9    C     C_R   0.891348 0.617172 0.009003 -0.193763
C10   C     C_R   0.048540 0.433361 0.832175 -0.231080
C11   C     C_R   0.995465 0.495979 0.767428 -0.071490
C12   C     C_R   0.998680 0.499098 0.670932 0.810919
C13   C     C_R   0.940294 0.555478 0.795104 -0.228470
C14   C     C_R   0.272518 0.025930 0.396420 -0.166619
C15   C     C_R   0.226916 0.835301 0.476369 -0.051173
C16   C     C_R   0.816535 0.086426 0.570050 -0.215003
C17   C     C_R   0.736868 0.973592 0.595348 0.039002
C18   C     C_R   0.612197 0.937353 0.568590 -0.203967
C19   C     C_R   0.565238 0.011544 0.509995 0.060130
C20   C     C_R   0.649148 0.122437 0.475204 0.029194
C21   C     C_R   0.438027 0.978376 0.482875 0.086132
C22   C     C_R   0.397371 0.056254 0.422867 0.139202
C23   C     C_R   0.144827 0.713445 0.488814 0.799209
C24   C     C_R   0.481479 0.159123 0.382723 -0.263709
C25   C     C_R   0.605532 0.187558 0.402493 -0.023635
C26   C     C_R   0.349703 0.868719 0.510532 -0.231525
C27   C     C_R   0.187528 0.915501 0.422582 -0.185027
C28   C     C_R   0.773496 0.163037 0.513561 -0.115151
C29   C     C_R   0.340195 0.322323 0.644899 -0.117588
C30   C     C_R   0.758669 0.645427 0.376931 0.037021
C31   C     C_R   0.661405 0.676549 0.351273 -0.062748
C32   C     C_R   0.558168 0.620441 0.398171 -0.225805
C33   C     C_R   0.550878 0.532341 0.471912 -0.011189
C34   C     C_R   0.000137 0.498468 0.329062 0.822343
C35   C     C_R   0.653106 0.504538 0.495482 0.271421
C36   C     C_R   0.446696 0.471578 0.522967 -0.041933
C37   C     C_R   0.445217 0.382108 0.596299 0.067859
C38   C     C_R   0.548794 0.357277 0.617847 -0.097759
C39   C     C_R   0.648698 0.418565 0.568940 -0.219454
C40   C     C_R   0.342988 0.496558 0.503802 0.045649
C41   C     C_R   0.243056 0.353149 0.621530 0.039509
C42   C     C_R   0.948017 0.556336 0.166782 -0.225515
C43   C     C_R   0.999901 0.493578 0.232652 -0.097977
C44   C     C_R   0.048431 0.426307 0.205760 -0.074041
C45   C     C_R   0.048599 0.426906 0.112185 0.059141
C46   C     C_R   0.996093 0.491303 0.046719 0.053301
Cu1   Cu    Cu3+1 0.098270 0.475420 0.521130 0.952923
Cu2   Cu    Cu3+1 0.901730 0.524580 0.478870 0.944723
H1    H     H_    0.449944 0.212562 0.329380 0.152417
H2    H     H_    0.241241 0.085559 0.351095 0.150291
H3    H     H_    0.373833 0.804999 0.555201 0.149973
H4    H     H_    0.911768 0.115519 0.597741 0.158840
H5    H     H_    0.838754 0.688746 0.340805 0.123913
H6    H     H_    0.722799 0.395657 0.591615 0.210744
H7    H     H_    0.089721 0.386153 0.810394 0.150436
H8    H     H_    0.847152 0.665277 0.866804 0.171267
H9    H     H_    0.851495 0.666158 0.029696 0.152768
N1    N     N_R   0.246280 0.438190 0.553160 -0.187757
N2    N     N_R   0.754320 0.561190 0.447410 -0.207311
O1    O     O_R   0.972510 0.318130 0.526570 -0.579162
O2    O     O_R   0.806530 0.359650 0.490890 -0.598625
O3    O     O_R   0.082980 0.479210 0.647590 -0.585806
O4    O     O_R   0.917000 0.520730 0.611900 -0.603999
O5    O     O_R   0.193470 0.640350 0.509110 -0.590244
O6    O     O_R   0.027490 0.681870 0.473430 -0.587608
O7    O     O_R   0.083000 0.479270 0.388100 -0.579335
O8    O     O_R   0.917020 0.520790 0.352410 -0.576674
H10   H     H_    0.910233 0.607041 0.187653 0.153417
H11   H     H_    0.555269 0.850413 0.594340 0.130325
C47   C     C_1   0.782633 0.895810 0.653162 0.238286
N3    N     N_1   0.819354 0.833286 0.699479 -0.302939
C48   C     C_1   0.680201 0.265616 0.333166 0.280806
N4    N     N_1   0.737033 0.326103 0.275334 -0.281029
H12   H     H_    0.162928 0.308623 0.657694 0.125014
C49   C     C_1   0.560277 0.270070 0.690446 0.259274
N5    N     N_1   0.571265 0.200779 0.748096 -0.249767
C50   C     C_1   0.324883 0.228681 0.718446 0.227712
N6    N     N_1   0.311005 0.153520 0.777401 -0.248050
C51   C     C_1   0.093138 0.353249 0.273270 0.261733
N7    N     N_1   0.128722 0.294950 0.326967 -0.286951
H13   H     H_    0.336383 0.562098 0.449915 0.125479
H14   H     H_    0.485509 0.647607 0.375378 0.140672
C52   C     C_1   0.667682 0.766637 0.276667 0.220949
N8    N     N_1   0.672744 0.839057 0.216751 -0.266025
H15   H     H_    0.141217 0.314619 0.129661 0.155664
H16   H     H_    0.140496 0.319079 0.968267 0.150976
H17   H     H_    0.899447 0.604003 0.744622 0.170977
H18   H     H_    0.092379 0.891154 0.396406 0.154956

loop_
_geom_bond_atom_site_label_1
_geom_bond_atom_site_label_2
_ccdc_geom_bond_type
C16   C28   A    
C21   C26   A    
C3    H15   S    
C19   C20   A    
C49   N5    T    
C34   O7    A    
Cu1   O3    S    
C7    C8    A    
C14   H2    S    
C50   N6    T    
C2    C46   A    
C52   N8    T    
C36   C37   A    
C19   C21   A    
C41   N1    A    
C5    C6    A    
C39   H6    S    
C4    H16   S    
C20   C25   A    
C33   C36   A    
C31   C52   S    
C35   N2    A    
C18   C19   A    
C41   H12   S    
C31   C32   A    
C8    C9    A    
C1    C28   S    
C47   N3    T    
Cu2   O6    S    
Cu1   O7    S    
C18   H11   S    
C15   C23   S    
Cu1   O1    S    
C17   C47   S    
C21   C22   A    
C42   H10   S    
C8    H8    S    
C38   C49   S    
C38   C39   A    
C30   H5    S    
C40   N1    A    
C36   C40   A    
C24   C25   A    
C1    O1    A    
Cu1   O5    S    
C12   O4    A    
C16   C17   A    
C15   C26   A    
C20   C28   A    
C45   C46   A    
C3    C45   A    
C35   C39   A    
C43   C44   A    
C37   C38   A    
C12   O3    A    
C15   C27   A    
Cu1   Cu2   S    
C7    C13   A    
C30   N2    A    
C13   H17   S    
C17   C18   A    
C25   C48   S    
C10   H7    S    
C23   O5    A    
C14   C27   A    
C22   C24   A    
C42   C43   A    
C3    C4    A    
C44   C45   A    
Cu2   N2    S    
C24   H1    S    
C6    C46   A    
C29   C41   A    
C40   H13   S    
C44   C51   S    
C34   C43   S    
C16   H4    S    
C48   N4    T    
Cu2   O4    S    
C1    O2    A    
C34   O8    A    
C11   C12   S    
C6    C7    A    
C32   H14   S    
C32   C33   A    
C14   C22   A    
C5    C10   A    
C26   H3    S    
Cu1   N1    S    
C11   C13   A    
C23   O6    A    
Cu2   O2    S    
C30   C31   A    
C2    C42   A    
C33   C35   A    
C9    H9    S    
Cu2   O8    S    
C27   H18   S    
C10   C11   A    
C51   N7    T    
C4    C5    A    
C29   C50   S    
C29   C37   A    
C2    C9    A    
