data_mof_unit_62645.cif
_audit_creation_date              2012-12-11T17:04:24-0500
_audit_creation_method            fapswitch 2.2
_symmetry_space_group_name_H-M    P1
_symmetry_Int_Tables_number       1
_space_group_crystal_system       triclinic
_cell_length_a                    6.98719
_cell_length_b                    17.342074
_cell_length_c                    18.754555
_cell_angle_alpha                 106.25346
_cell_angle_beta                  89.651405
_cell_angle_gamma                 90.470007
_cell_volume                      2181.61695031

loop_
_atom_site_label
_atom_site_type_symbol
_atom_type_description
_atom_site_fract_x
_atom_site_fract_y
_atom_site_fract_z
_atom_type_partial_charge
O1    O     O_R   0.494360 0.415680 0.413760 -0.537872
O2    O     O_R   0.818780 0.432910 0.557230 -0.529615
O3    O     O_R   0.994290 0.584320 0.586240 -0.513272
C1    C     C_R   0.649807 0.416031 0.580564 0.705063
O4    O     O_R   0.823730 0.406440 0.412520 -0.544377
O5    O     O_R   0.999270 0.557660 0.440500 -0.518844
C2    C     C_R   0.654979 0.383564 0.384797 0.703850
O6    O     O_R   0.489370 0.442340 0.559500 -0.525537
O7    O     O_3   0.662510 0.549640 0.509350 -0.338517
V1    V     V_3+5 0.935340 0.490790 0.498270 1.456320
O8    O     O_R   0.329300 0.567090 0.442770 -0.523562
C3    C     C_R   0.161257 0.583977 0.419444 0.726216
O9    O     O_R   0.324340 0.593560 0.587480 -0.540631
C4    C     C_R   0.155331 0.616542 0.615143 0.716660
V2    V     V_3+5 0.435970 0.509210 0.501730 1.460325
O10   O     O_3   0.158930 0.450360 0.490650 -0.372444
C5    C     C_R   0.987996 0.692831 0.732652 -0.008271
C6    C     C_R   0.146741 0.682955 0.685064 -0.060028
C7    C     C_R   0.299700 0.737503 0.707070 -0.173560
H1    H     H_    0.422771 0.733227 0.671381 0.201783
C8    C     C_R   0.289023 0.801702 0.772443 -0.168130
H2    H     H_    0.405979 0.844466 0.785538 0.133324
C9    C     C_R   0.123775 0.813849 0.817583 -0.064190
C10   C     C_R   0.976618 0.756657 0.797370 0.004922
C11   C     C_3   0.770274 0.769771 0.785384 -0.446269
C12   C     C_3   0.783179 0.700908 0.714812 0.507990
H3    H     H_    0.744555 0.829062 0.775358 0.195545
H4    H     H_    0.677794 0.755851 0.828665 0.127931
H5    H     H_    0.694529 0.647506 0.715177 0.020202
C13   C     C_1   0.111782 0.863942 0.132574 -0.199174
C14   C     C_1   0.119241 0.821348 0.176150 0.014188
C15   C     C_1   0.128651 0.771101 0.228051 0.012381
C16   C     C_1   0.136703 0.728792 0.271862 0.014075
C17   C     C_1   0.146111 0.678553 0.323770 0.019873
C18   C     C_1   0.153563 0.635972 0.367356 -0.184909
C19   C     C_1   0.641251 0.364113 0.632651 -0.210504
C20   C     C_1   0.637133 0.321527 0.676259 0.004583
C21   C     C_1   0.633858 0.271278 0.728179 0.006186
C22   C     C_1   0.631436 0.228941 0.772012 0.008012
C23   C     C_1   0.628165 0.178674 0.823917 0.009898
C24   C     C_1   0.624053 0.136055 0.867495 -0.200935
C25   C     C_R   0.485300 0.263247 0.301889 0.007312
C26   C     C_R   0.646058 0.313956 0.317544 -0.110094
C27   C     C_R   0.797336 0.297836 0.265621 -0.126686
H6    H     H_    0.921273 0.336944 0.274212 0.141003
C28   C     C_R   0.783767 0.234709 0.199415 -0.032708
H7    H     H_    0.895504 0.226310 0.158423 0.152642
C29   C     C_R   0.620731 0.185515 0.183132 -0.197668
C30   C     C_R   0.471203 0.202194 0.234955 0.080256
C31   C     C_3   0.269881 0.224516 0.224082 0.520609
C32   C     C_3   0.281578 0.286900 0.299512 -0.409110
H8    H     H_    0.194881 0.270740 0.343191 0.190128
H9    H     H_    0.266286 0.350520 0.299142 0.170725
O11   O     O_R   0.775950 0.057750 0.940570 -0.524699
O12   O     O_R   0.441430 0.093570 0.087490 -0.536278
O13   O     O_R   0.266040 0.942320 0.059480 -0.517778
C33   C     C_R   0.610164 0.117377 0.114573 0.718019
O14   O     O_R   0.446530 0.067110 0.942790 -0.530556
O15   O     O_R   0.271180 0.915660 0.913750 -0.543200
C34   C     C_R   0.615506 0.084072 0.919522 0.700266
O16   O     O_R   0.770810 0.084400 0.086300 -0.518549
O17   O     O_3   0.602860 0.950400 0.990690 -0.366601
V3    V     V_3+5 0.329970 0.009200 0.001730 1.447068
O18   O     O_R   0.941130 0.906360 0.912450 -0.538494
C35   C     C_R   0.110355 0.883606 0.884660 0.683577
O19   O     O_R   0.936030 0.932820 0.057160 -0.523027
C36   C     C_R   0.104072 0.915956 0.080502 0.753548
V4    V     V_3+5 0.829350 0.990680 0.998180 1.447784
O20   O     O_3   0.106340 0.049590 0.009310 -0.360410
C37   C     C_2   0.247814 0.257750 0.157897 0.263236
H10   H     H_    0.242383 0.216918 0.102407 0.087284
O21   O     O_2   0.232919 0.329707 0.165408 -0.550679
F1    F     F_    0.764514 0.726284 0.651400 -0.672894
F2    F     F_    0.144758 0.162057 0.223431 -0.692712

loop_
_geom_bond_atom_site_label_1
_geom_bond_atom_site_label_2
_ccdc_geom_bond_type
O19   V4    S    
C1    C19   S    
C4    C6    S    
C7    H1    S    
C1    O6    A    
C29   C33   S    
O11   C34   A    
C11   H4    S    
C20   C21   S    
C5    C12   S    
O18   V4    S    
C19   C20   T    
C7    C8    A    
C6    C7    A    
C31   F2    S    
O5    C3    A    
C21   C22   T    
O11   V4    S    
O14   C34   A    
V2    O10   S    
C12   F1    S    
C17   C18   T    
O8    V2    S    
V3    O20   S    
V4    O20   S    
O12   V3    S    
C9    C10   A    
C37   H10   S    
O1    V2    S    
C2    C26   S    
O7    V1    S    
C13   C36   S    
C25   C32   S    
O19   C36   A    
O9    C4    A    
C27   C28   A    
C5    C6    A    
C8    C9    A    
C28   C29   A    
C5    C10   A    
C32   H8    S    
C10   C11   S    
C22   C23   S    
O4    C2    A    
C31   C32   S    
C11   C12   S    
C32   H9    S    
O2    C1    A    
C26   C27   A    
O17   V3    S    
C14   C15   S    
C16   C17   S    
O13   V3    S    
C3    C18   S    
O3    C4    A    
C23   C24   T    
O6    V2    S    
O9    V2    S    
C25   C26   A    
O2    V1    S    
C27   H6    S    
O14   V3    S    
C28   H7    S    
C29   C30   A    
O1    C2    A    
C24   C34   S    
O5    V1    S    
O8    C3    A    
C33   O16   A    
C11   H3    S    
O13   C36   A    
O15   V3    S    
O17   V4    S    
C15   C16   T    
C9    C35   S    
O12   C33   A    
C31   C37   S    
O4    V1    S    
O3    V1    S    
V1    O10   S    
O18   C35   A    
O16   V4    S    
C13   C14   T    
O7    V2    S    
C25   C30   A    
C12   H5    S    
C30   C31   S    
C37   O21   D    
C8    H2    S    
O15   C35   A    
