data_mof_unit_9619.cif
_audit_creation_date              2012-12-10T17:56:45-0500
_audit_creation_method            fapswitch 2.2
_symmetry_space_group_name_H-M    P1
_symmetry_Int_Tables_number       1
_space_group_crystal_system       triclinic
_cell_length_a                    10.857226
_cell_length_b                    9.516071
_cell_length_c                    10.780625
_cell_angle_alpha                 90.089924
_cell_angle_beta                  90.566605
_cell_angle_gamma                 90.781105
_cell_volume                      1113.6744728

loop_
_atom_site_label
_atom_site_type_symbol
_atom_type_description
_atom_site_fract_x
_atom_site_fract_y
_atom_site_fract_z
_atom_type_partial_charge
C1    C     C_R   0.262654 0.499221 0.506635 0.805314
C2    C     C_R   0.738351 0.501866 0.500986 0.786277
C3    C     C_R   0.940956 0.628178 0.546452 0.173425
C4    C     C_R   0.068427 0.616104 0.567118 0.176195
C5    C     C_R   0.430665 0.073210 0.415678 -0.022992
C6    C     C_R   0.568788 0.075643 0.584736 -0.014146
C7    C     C_R   0.430827 0.924360 0.415549 -0.020187
C8    C     C_R   0.568239 0.926852 0.585136 -0.022675
C9    C     C_R   0.502711 0.499992 0.262539 0.791209
C10   C     C_R   0.502464 0.500039 0.737603 0.781450
C11   C     C_R   0.707691 0.632841 0.131603 -0.178790
C12   C     C_R   0.708955 0.628395 0.872887 -0.190460
C13   C     C_R   0.804910 0.695335 0.067402 -0.133715
C14   C     C_R   0.805727 0.692772 0.938347 -0.141278
C15   C     C_R   0.608360 0.566995 0.935787 0.100408
C16   C     C_R   0.608073 0.568135 0.066848 0.094311
C17   C     C_R   0.510090 0.499913 0.129046 -0.096068
C18   C     C_R   0.509944 0.499719 0.871414 -0.095860
C19   C     C_R   0.417264 0.428399 0.063288 -0.205758
C20   C     C_R   0.417000 0.428644 0.935211 -0.204489
C21   C     C_R   0.062348 0.383499 0.471696 -0.239130
C22   C     C_R   0.935315 0.385428 0.470496 -0.229901
C23   C     C_R   0.873132 0.506928 0.505428 -0.078876
C24   C     C_R   0.129410 0.498846 0.517514 -0.072315
Cu1   Cu    Cu3+1 0.500000 0.640660 0.500000 0.931549
Cu2   Cu    Cu3+1 0.500000 0.359340 0.500000 0.941690
H1    H     H_    0.343245 0.374678 0.111528 0.141033
H2    H     H_    0.342730 0.375272 0.885443 0.147536
H3    H     H_    0.712777 0.633732 0.231801 0.144907
H4    H     H_    0.714812 0.624078 0.773174 0.133538
H5    H     H_    0.880748 0.744169 0.118055 0.133865
H6    H     H_    0.882287 0.739312 0.888789 0.133753
H7    H     H_    0.108214 0.291660 0.436018 0.161546
H8    H     H_    0.885700 0.293170 0.436920 0.169338
H9    H     H_    0.374947 0.128326 0.348279 0.117448
H10   H     H_    0.624018 0.132650 0.652578 0.126474
H11   H     H_    0.375246 0.867301 0.348033 0.125785
H12   H     H_    0.621947 0.871918 0.654083 0.120778
N1    N     N_R   0.500000 0.852070 0.500000 -0.159137
N2    N     N_R   0.500000 0.147940 0.500000 -0.159740
O1    O     O_R   0.319640 0.618740 0.499990 -0.573843
O2    O     O_R   0.680360 0.618740 0.500010 -0.589252
O3    O     O_R   0.319620 0.381170 0.499990 -0.589001
O4    O     O_R   0.680380 0.381170 0.500010 -0.583229
O5    O     O_R   0.500000 0.618810 0.319650 -0.585560
O6    O     O_R   0.500000 0.618810 0.680350 -0.587541
O7    O     O_R   0.499970 0.381240 0.319640 -0.578405
O8    O     O_R   0.500030 0.381240 0.680360 -0.579187
C25   C     C_3   0.881506 0.770527 0.563006 -0.858731
H13   H     H_    0.832612 0.800826 0.476407 0.246779
H14   H     H_    0.817799 0.768133 0.642208 0.222275
H15   H     H_    0.948491 0.857455 0.579645 0.226353
C26   C     C_3   0.136527 0.721742 0.649373 -0.836901
H16   H     H_    0.216051 0.673195 0.697686 0.233163
H17   H     H_    0.168837 0.812744 0.593504 0.241993
H18   H     H_    0.076253 0.758981 0.724943 0.218776

loop_
_geom_bond_atom_site_label_1
_geom_bond_atom_site_label_2
_ccdc_geom_bond_type
Cu1   O2    S    
C10   O6    A    
C15   C18   A    
C6    H10   S    
C9    O5    A    
C8    N1    A    
C4    C26   S    
C19   H1    S    
C11   C16   A    
C3    C23   A    
C19   C20   A    
C12   C15   A    
Cu2   O8    S    
C25   H15   S    
C21   C22   A    
C7    H11   S    
Cu2   O4    S    
C13   C14   A    
Cu1   N1    S    
C11   C13   A    
Cu2   N2    S    
C1    O3    A    
C8    H12   S    
Cu2   O7    S    
C2    O2    A    
C4    C24   A    
C5    H9    S    
C9    C17   S    
C17   C19   A    
C10   C18   S    
Cu2   O3    S    
C9    O7    A    
C18   C20   A    
C26   H17   S    
C10   O8    A    
C22   H8    S    
C6    N2    A    
C26   H18   S    
C21   H7    S    
Cu1   O1    S    
C3    C4    A    
C3    C25   S    
Cu1   O5    S    
C12   C14   A    
C14   H6    S    
C11   H3    S    
C1    C24   S    
C25   H13   S    
C21   C24   A    
C1    O1    A    
C2    C23   S    
C5    C7    A    
C7    N1    A    
C22   C23   A    
C6    C8    A    
C20   H2    S    
C12   H4    S    
Cu1   Cu2   S    
C5    N2    A    
Cu1   O6    S    
C13   H5    S    
C15   C16   A    
C26   H16   S    
C2    O4    A    
C16   C17   A    
C25   H14   S    
