data_mof_unit_49807.cif
_audit_creation_date              2012-12-10T17:51:23-0500
_audit_creation_method            fapswitch 2.2
_symmetry_space_group_name_H-M    P1
_symmetry_Int_Tables_number       1
_space_group_crystal_system       triclinic
_cell_length_a                    9.87907
_cell_length_b                    10.669627
_cell_length_c                    16.797933
_cell_angle_alpha                 91.156828
_cell_angle_beta                  85.462369
_cell_angle_gamma                 89.753737
_cell_volume                      1764.6623673

loop_
_atom_site_label
_atom_site_type_symbol
_atom_type_description
_atom_site_fract_x
_atom_site_fract_y
_atom_site_fract_z
_atom_type_partial_charge
C1    C     C_R   0.500907 0.738392 0.488070 0.869651
C2    C     C_R   0.528304 0.452244 0.263719 -0.023674
C3    C     C_R   0.248890 0.885384 0.463370 -0.140550
C4    C     C_R   0.481610 0.502342 0.653202 0.863832
C5    C     C_R   0.127190 0.940640 0.493419 -0.170988
C6    C     C_R   0.129089 0.045541 0.543669 -0.191196
C7    C     C_R   0.252537 0.103243 0.556895 0.035374
C8    C     C_R   0.375485 0.057092 0.516294 0.038833
C9    C     C_R   0.374525 0.937007 0.481925 0.061517
C10   C     C_R   0.499535 0.871208 0.470517 -0.164322
C11   C     C_R   0.622565 0.937945 0.458871 0.098537
C12   C     C_R   0.345937 0.487209 0.783519 -0.180358
C13   C     C_R   0.619182 0.065039 0.476012 -0.242530
C14   C     C_R   0.498649 0.124579 0.505953 -0.159803
C15   C     C_R   0.845301 0.664527 0.604144 -0.192898
C16   C     C_R   0.499177 0.259538 0.505499 0.906205
C17   C     C_R   0.908666 0.745554 0.655153 -0.212388
C18   C     C_R   0.048634 0.744983 0.655339 -0.184466
C19   C     C_R   0.125986 0.663652 0.604331 -0.152074
C20   C     C_R   0.065272 0.580870 0.551352 0.160023
C21   C     C_R   0.920491 0.581031 0.551294 0.164009
C22   C     C_R   0.935337 0.422437 0.451010 -0.138059
C23   C     C_R   0.424219 0.349157 0.155040 -0.183994
C24   C     C_R   0.078677 0.422467 0.451030 -0.120570
C25   C     C_R   0.518443 0.492461 0.347145 0.837571
C26   C     C_R   0.472263 0.498578 0.739927 -0.040596
C27   C     C_R   0.591965 0.498987 0.779540 -0.214802
C28   C     C_R   0.586210 0.478906 0.860703 -0.128755
C29   C     C_R   0.461176 0.455465 0.902680 0.199649
C30   C     C_R   0.340594 0.465307 0.864959 -0.167831
C31   C     C_3   0.757010 0.880339 0.425331 -0.396415
C32   C     C_3   0.746025 0.817055 0.343238 -0.308982
C33   C     C_3   0.878566 0.750677 0.314280 -0.882356
C34   C     C_R   0.415346 0.395236 0.232767 -0.193290
C35   C     C_1   0.251645 0.193342 0.622067 0.175037
C36   C     C_1   0.637338 0.270873 0.974846 0.169414
C37   C     C_R   0.652349 0.456945 0.217205 -0.212205
C38   C     C_R   0.660610 0.412123 0.138642 -0.161298
C39   C     C_R   0.545275 0.361623 0.106942 0.152499
C40   C     C_2   0.454999 0.429904 0.987565 -0.299599
C41   C     C_2   0.541343 0.352279 0.020759 -0.039388
H1    H     H_    0.690472 0.512008 0.747742 0.166855
H2    H     H_    0.319704 0.386432 0.268412 0.152226
H3    H     H_    0.097815 0.808171 0.695089 0.154886
H4    H     H_    0.232682 0.669034 0.608099 0.207400
H5    H     H_    0.138436 0.359108 0.411135 0.145424
H6    H     H_    0.741409 0.497684 0.240884 0.153721
H7    H     H_    0.243111 0.452762 0.898066 0.133728
H8    H     H_    0.334457 0.310854 0.130671 0.136430
H9    H     H_    0.252029 0.491182 0.754472 0.169915
H10   H     H_    0.380658 0.484099 0.025351 0.156784
H11   H     H_    0.679522 0.480528 0.890474 0.136981
H12   H     H_    0.754004 0.423890 0.101255 0.129851
H13   H     H_    0.963993 0.818236 0.310791 0.255118
H14   H     H_    0.900961 0.674676 0.355635 0.269512
H15   H     H_    0.869345 0.708757 0.253942 0.242603
H16   H     H_    0.663098 0.747160 0.345673 0.222707
H17   H     H_    0.722504 0.889149 0.299406 0.214644
H18   H     H_    0.835875 0.954042 0.417429 0.175562
H19   H     H_    0.796845 0.814648 0.468085 0.227845
H20   H     H_    0.243934 0.802213 0.425773 0.160664
H21   H     H_    0.032022 0.897111 0.481916 0.145541
H22   H     H_    0.034500 0.080562 0.573186 0.145033
H23   H     H_    0.711648 0.118320 0.464706 0.165817
H24   H     H_    0.886937 0.359165 0.411046 0.146015
H25   H     H_    0.737615 0.670770 0.607997 0.210893
H26   H     H_    0.848571 0.809054 0.694875 0.157590
N1    N     N_R   0.857140 0.501200 0.500750 -0.118821
N2    N     N_R   0.142740 0.501280 0.500770 -0.121546
N3    N     N_1   0.249657 0.264273 0.675070 -0.206892
N4    N     N_1   0.714018 0.205755 0.938241 -0.214539
O1    O     O_R   0.385310 0.683220 0.500000 -0.645186
O2    O     O_R   0.614640 0.683250 0.500010 -0.635706
O3    O     O_R   0.371780 0.500010 0.615800 -0.626776
O4    O     O_R   0.601110 0.500030 0.615800 -0.634518
O5    O     O_R   0.385360 0.316750 0.499990 -0.610331
O6    O     O_R   0.614690 0.316780 0.500000 -0.616486
O7    O     O_R   0.398890 0.499970 0.384200 -0.625531
O8    O     O_R   0.628220 0.499990 0.384200 -0.616969
Zn1   Zn    Zn3+2 0.346870 0.499980 0.499990 0.932910
Zn2   Zn    Zn3+2 0.653130 0.500020 0.500010 0.927881

loop_
_geom_bond_atom_site_label_1
_geom_bond_atom_site_label_2
_ccdc_geom_bond_type
C33   H14   S    
C11   C13   A    
C19   C20   A    
C2    C37   A    
C32   H17   S    
C7    C8    A    
C39   C41   S    
C13   H23   S    
C26   C27   A    
C29   C30   A    
N1    Zn2   S    
C30   H7    S    
C28   C29   A    
C18   C19   A    
C5    C6    A    
O7    Zn1   S    
C23   H8    S    
C16   O6    A    
C31   H18   S    
C4    O4    A    
C35   N3    T    
C8    C9    A    
C37   H6    S    
C9    C10   A    
C4    O3    A    
C36   N4    T    
C2    C34   A    
C33   H15   S    
C11   C31   S    
O3    Zn1   S    
C13   C14   A    
C36   C41   S    
C32   H16   S    
O2    Zn2   S    
C24   N2    A    
C3    H20   S    
C17   H26   S    
C1    O1    A    
C1    C10   S    
C25   O7    A    
O8    Zn2   S    
O4    Zn2   S    
C15   H25   S    
C12   C26   A    
C6    H22   S    
C22   H24   S    
C37   C38   A    
C3    C9    A    
C18   H3    S    
C12   H9    S    
C31   C32   S    
O6    Zn2   S    
C23   C34   A    
C17   C18   A    
C22   N1    A    
C40   C41   D    
C21   N1    A    
C14   C16   S    
C20   N2    A    
C33   H13   S    
C15   C17   A    
C8    C14   A    
C12   C30   A    
C16   O5    A    
C7    C35   S    
C34   H2    S    
O5    Zn1   S    
C3    C5    A    
C25   O8    A    
C4    C26   S    
C19   H4    S    
C6    C7    A    
C40   H10   S    
C1    O2    A    
C32   C33   S    
C24   H5    S    
O1    Zn1   S    
C28   H11   S    
C27   H1    S    
C38   C39   A    
C38   H12   S    
C23   C39   A    
C29   C40   S    
C5    H21   S    
C2    C25   S    
C22   C24   A    
C10   C11   A    
C15   C21   A    
C20   C21   A    
C27   C28   A    
N2    Zn1   S    
C31   H19   S    
