data_mof_unit_27948.cif
_audit_creation_date              2012-12-10T19:16:48-0500
_audit_creation_method            fapswitch 2.2
_symmetry_space_group_name_H-M    P1
_symmetry_Int_Tables_number       1
_space_group_crystal_system       triclinic
_cell_length_a                    25.904714
_cell_length_b                    34.573044
_cell_length_c                    34.508788
_cell_angle_alpha                 90.058873
_cell_angle_beta                  89.942199
_cell_angle_gamma                 89.862961
_cell_volume                      30906.1162386

loop_
_atom_site_label
_atom_site_type_symbol
_atom_type_description
_atom_site_fract_x
_atom_site_fract_y
_atom_site_fract_z
_atom_type_partial_charge
C1    C     C_R   0.390115 0.250480 0.500562 0.837314
C2    C     C_R   0.390125 0.749568 0.500314 0.866597
C3    C     C_R   0.609865 0.250669 0.500658 0.841767
C4    C     C_R   0.609923 0.749529 0.500542 0.856770
C5    C     C_R   0.890116 0.250427 0.000528 0.837868
C6    C     C_R   0.890125 0.749560 0.000319 0.862937
C7    C     C_R   0.109873 0.250624 0.000649 0.843615
C8    C     C_R   0.109920 0.749502 0.000557 0.856449
C9    C     C_R   0.890115 0.750481 0.500562 0.835739
C10   C     C_R   0.890125 0.249569 0.500314 0.866618
C11   C     C_R   0.109865 0.750670 0.500658 0.841702
C12   C     C_R   0.109923 0.249529 0.500542 0.857993
C13   C     C_R   0.390122 0.750473 0.000557 0.837137
C14   C     C_R   0.390122 0.249511 0.000356 0.867390
C15   C     C_R   0.609875 0.750644 0.000656 0.841520
C16   C     C_R   0.609919 0.249499 0.000547 0.856172
C17   C     C_R   0.228718 0.281584 0.832293 -0.221179
C18   C     C_R   0.211667 0.730217 0.831763 -0.226320
C19   C     C_R   0.790674 0.267811 0.832130 -0.226501
C20   C     C_R   0.774264 0.720144 0.831781 -0.231263
C21   C     C_R   0.728391 0.281519 0.332366 -0.223739
C22   C     C_R   0.705570 0.741559 0.331968 -0.229091
C23   C     C_R   0.281895 0.275957 0.331878 -0.221886
C24   C     C_R   0.274549 0.720531 0.331619 -0.229775
C25   C     C_R   0.728722 0.781587 0.832294 -0.221441
C26   C     C_R   0.711663 0.230219 0.831764 -0.226440
C27   C     C_R   0.290675 0.767812 0.832131 -0.226456
C28   C     C_R   0.274269 0.220145 0.831781 -0.231409
C29   C     C_R   0.228827 0.781892 0.332436 -0.223844
C30   C     C_R   0.221701 0.222299 0.331443 -0.224270
C31   C     C_R   0.797175 0.756177 0.333140 -0.231262
C32   C     C_R   0.773596 0.219938 0.331718 -0.229966
C33   C     C_R   0.250928 0.250515 0.852443 -0.001672
C34   C     C_R   0.250689 0.749414 0.852389 -0.002067
C35   C     C_R   0.750688 0.249414 0.852389 -0.002031
C36   C     C_R   0.750928 0.750516 0.852443 -0.001630
C37   C     C_R   0.750614 0.250412 0.352448 -0.000609
C38   C     C_R   0.750779 0.749411 0.352806 0.011063
C39   C     C_R   0.251080 0.249433 0.352185 -0.003903
C40   C     C_R   0.251048 0.750726 0.352435 -0.000811
C41   C     C_R   0.252808 0.251828 0.771434 0.197805
C42   C     C_R   0.252623 0.747908 0.771335 0.210952
C43   C     C_R   0.752618 0.247909 0.771335 0.210992
C44   C     C_R   0.752808 0.751830 0.771434 0.197859
C45   C     C_R   0.751990 0.251709 0.271436 0.208830
C46   C     C_R   0.753242 0.747399 0.271970 0.204661
C47   C     C_R   0.253673 0.248464 0.270980 0.219580
C48   C     C_R   0.253225 0.752595 0.271425 0.207897
C49   C     C_R   0.026361 0.275764 0.522237 0.076296
C50   C     C_R   0.026596 0.724138 0.521882 0.079534
C51   C     C_R   0.973333 0.275676 0.522154 0.072894
C52   C     C_R   0.973602 0.724054 0.521847 0.070025
C53   C     C_R   0.526343 0.275169 0.022862 0.077525
C54   C     C_R   0.526609 0.723888 0.021601 0.082146
C55   C     C_R   0.473334 0.275085 0.022801 0.072808
C56   C     C_R   0.473617 0.723801 0.021533 0.070807
C57   C     C_R   0.526361 0.775755 0.522248 0.076624
C58   C     C_R   0.526597 0.224118 0.521854 0.079412
C59   C     C_R   0.473333 0.775667 0.522165 0.072927
C60   C     C_R   0.473602 0.224034 0.521819 0.069678
C61   C     C_R   0.026351 0.775333 0.022738 0.076260
C62   C     C_R   0.026597 0.223417 0.020978 0.077683
C63   C     C_R   0.973329 0.775296 0.022638 0.071710
C64   C     C_R   0.973597 0.223301 0.020887 0.070863
C65   C     C_R   0.054244 0.246456 0.503953 -0.253409
C66   C     C_R   0.054135 0.754230 0.504820 -0.282383
C67   C     C_R   0.945944 0.246638 0.503149 -0.256100
C68   C     C_R   0.945735 0.754110 0.504938 -0.280560
C69   C     C_R   0.554247 0.246264 0.003992 -0.253572
C70   C     C_R   0.554170 0.754167 0.004879 -0.283189
C71   C     C_R   0.445927 0.246438 0.003248 -0.257454
C72   C     C_R   0.445772 0.754007 0.004871 -0.280914
C73   C     C_R   0.554244 0.746454 0.503954 -0.253586
C74   C     C_R   0.554135 0.254225 0.504818 -0.282125
C75   C     C_R   0.445944 0.746635 0.503151 -0.256226
C76   C     C_R   0.445735 0.254104 0.504936 -0.280357
C77   C     C_R   0.054243 0.746324 0.004006 -0.253301
C78   C     C_R   0.054149 0.254023 0.004835 -0.281540
C79   C     C_R   0.945934 0.746565 0.003174 -0.255989
C80   C     C_R   0.945765 0.253831 0.004806 -0.280400
C81   C     C_R   0.027514 0.213150 0.491273 0.320244
C82   C     C_R   0.026899 0.788337 0.494456 0.376034
C83   C     C_R   0.973165 0.213913 0.489106 0.327498
C84   C     C_R   0.972459 0.788394 0.494887 0.372579
C85   C     C_R   0.527513 0.213185 0.990679 0.319590
C86   C     C_R   0.526964 0.788407 0.994940 0.375079
C87   C     C_R   0.473155 0.213956 0.988622 0.329573
C88   C     C_R   0.472522 0.788379 0.995174 0.373202
C89   C     C_R   0.527514 0.713153 0.491261 0.319887
C90   C     C_R   0.526899 0.288340 0.494481 0.376205
C91   C     C_R   0.473165 0.713916 0.489096 0.327387
C92   C     C_R   0.472459 0.288396 0.494911 0.372899
C93   C     C_R   0.027496 0.713219 0.990818 0.319931
C94   C     C_R   0.026931 0.288429 0.995520 0.375509
C95   C     C_R   0.973156 0.714029 0.988671 0.328711
C96   C     C_R   0.972491 0.288383 0.995768 0.374247
C97   C     C_3   0.470407 0.318123 0.019576 -0.419944
C98   C     C_3   0.470968 0.681186 0.015005 -0.464761
C99   C     C_3   0.529071 0.318155 0.019518 -0.477641
C100  C     C_3   0.529665 0.681230 0.015031 -0.407164
C101  C     C_3   0.970441 0.318625 0.517892 -0.428895
C102  C     C_3   0.970939 0.681389 0.515671 -0.464828
C103  C     C_3   0.029100 0.318678 0.517873 -0.466467
C104  C     C_3   0.029626 0.681431 0.515648 -0.405297
C105  C     C_3   0.970537 0.818329 0.019099 -0.420264
C106  C     C_3   0.970988 0.180819 0.013432 -0.463413
C107  C     C_3   0.029195 0.818287 0.019164 -0.476926
C108  C     C_3   0.029690 0.180903 0.013544 -0.408050
C109  C     C_3   0.470440 0.818618 0.517919 -0.428986
C110  C     C_3   0.470941 0.181375 0.515603 -0.464387
C111  C     C_3   0.529099 0.818671 0.517900 -0.466805
C112  C     C_3   0.529627 0.181418 0.515582 -0.405060
C113  C     C_R   0.277581 0.040499 0.527132 -0.273710
C114  C     C_R   0.296731 0.958280 0.504152 -0.292635
C115  C     C_R   0.708057 0.041138 0.512810 -0.283708
C116  C     C_R   0.731317 0.958909 0.532163 -0.291965
C117  C     C_R   0.772801 0.040678 0.028491 -0.274958
C118  C     C_R   0.793698 0.958894 0.009366 -0.292992
C119  C     C_R   0.206241 0.041428 0.009512 -0.278439
C120  C     C_R   0.226297 0.959212 0.029612 -0.274982
C121  C     C_R   0.777596 0.540496 0.527109 -0.273718
C122  C     C_R   0.796749 0.458277 0.504131 -0.292835
C123  C     C_R   0.208073 0.541137 0.512828 -0.283827
C124  C     C_R   0.231328 0.458906 0.532184 -0.291957
C125  C     C_R   0.274086 0.540750 0.028835 -0.275678
C126  C     C_R   0.293943 0.458634 0.009044 -0.281214
C127  C     C_R   0.706385 0.541223 0.008516 -0.279854
C128  C     C_R   0.726659 0.459298 0.029508 -0.276273
C129  C     C_R   0.280457 0.080767 0.527066 0.495704
C130  C     C_R   0.297617 0.917695 0.505599 0.483472
C131  C     C_R   0.706840 0.081587 0.513763 0.477266
C132  C     C_R   0.728588 0.918498 0.532080 0.479886
C133  C     C_R   0.776730 0.080824 0.028479 0.493156
C134  C     C_R   0.794123 0.918535 0.012273 0.485300
C135  C     C_R   0.205226 0.081807 0.010632 0.479324
C136  C     C_R   0.222494 0.919023 0.029041 0.492196
C137  C     C_R   0.780465 0.580764 0.527053 0.495771
C138  C     C_R   0.797628 0.417692 0.505589 0.483492
C139  C     C_R   0.206848 0.581587 0.513769 0.477197
C140  C     C_R   0.228594 0.418495 0.532092 0.479880
C141  C     C_R   0.278386 0.580873 0.028076 0.497506
C142  C     C_R   0.294967 0.418248 0.010482 0.481082
C143  C     C_R   0.704990 0.581652 0.009780 0.478866
C144  C     C_R   0.722632 0.419124 0.028911 0.492613
C145  C     C_R   0.251385 0.102084 0.499596 -0.126452
C146  C     C_R   0.251397 0.897374 0.498889 -0.086200
C147  C     C_R   0.749870 0.102423 0.499988 -0.105578
C148  C     C_R   0.750846 0.897680 0.501028 -0.105522
C149  C     C_R   0.750932 0.102308 0.999469 -0.126598
C150  C     C_R   0.751039 0.897568 0.998885 -0.095939
C151  C     C_R   0.249645 0.102557 0.999628 -0.099758
C152  C     C_R   0.249210 0.897803 0.000141 -0.125942
C153  C     C_R   0.751398 0.602084 0.499583 -0.126764
C154  C     C_R   0.751405 0.397375 0.498880 -0.086196
C155  C     C_R   0.249878 0.602423 0.499996 -0.105580
C156  C     C_R   0.250857 0.397681 0.501040 -0.104996
C157  C     C_R   0.250792 0.602198 0.999831 -0.129442
C158  C     C_R   0.250761 0.397419 0.999264 -0.102129
C159  C     C_R   0.749648 0.602531 0.999518 -0.103409
C160  C     C_R   0.749519 0.397819 0.000178 -0.126499
C161  C     C_R   0.250231 0.355202 0.500312 0.811671
C162  C     C_R   0.249822 0.644836 0.499876 0.827880
C163  C     C_R   0.750447 0.355081 0.499669 0.828366
C164  C     C_R   0.750301 0.644722 0.499956 0.802907
C165  C     C_R   0.749824 0.355251 0.000055 0.800370
C166  C     C_R   0.749743 0.644874 0.999781 0.831618
C167  C     C_R   0.250351 0.355100 0.999744 0.819280
C168  C     C_R   0.250264 0.644763 0.999950 0.801927
C169  C     C_R   0.750229 0.855202 0.500310 0.811693
C170  C     C_R   0.749821 0.144836 0.499875 0.827926
C171  C     C_R   0.250446 0.855081 0.499670 0.828399
C172  C     C_R   0.250299 0.144722 0.499958 0.803321
C173  C     C_R   0.249784 0.855245 0.000053 0.800884
C174  C     C_R   0.249787 0.144882 0.999819 0.833008
C175  C     C_R   0.750340 0.855155 0.999744 0.815163
C176  C     C_R   0.750233 0.144799 0.999940 0.806639
C177  C     C_R   0.223020 0.082099 0.471254 -0.276349
C178  C     C_R   0.205515 0.917513 0.491397 -0.279724
C179  C     C_R   0.793799 0.082485 0.486845 -0.267257
C180  C     C_R   0.773613 0.917784 0.470102 -0.283327
C181  C     C_R   0.725329 0.082660 0.969464 -0.276166
C182  C     C_R   0.707793 0.917428 0.984524 -0.276183
C183  C     C_R   0.294629 0.082594 0.988777 -0.269733
C184  C     C_R   0.275915 0.917793 0.970934 -0.276403
C185  C     C_R   0.723051 0.582102 0.471227 -0.276533
C186  C     C_R   0.705529 0.417517 0.491374 -0.279877
C187  C     C_R   0.293818 0.582487 0.486869 -0.267275
C188  C     C_R   0.273643 0.417788 0.470125 -0.284206
C189  C     C_R   0.223153 0.582263 0.971069 -0.275354
C190  C     C_R   0.206139 0.417299 0.987699 -0.273897
C191  C     C_R   0.795040 0.582710 0.989332 -0.270321
C192  C     C_R   0.776781 0.417737 0.971192 -0.276155
C193  C     C_R   0.222538 0.041851 0.470553 -0.174701
C194  C     C_R   0.204786 0.957689 0.491260 -0.174880
C195  C     C_R   0.795185 0.042270 0.487309 -0.181146
C196  C     C_R   0.774447 0.957991 0.469880 -0.173659
C197  C     C_R   0.724759 0.042460 0.968395 -0.175054
C198  C     C_R   0.706566 0.957626 0.984200 -0.180323
C199  C     C_R   0.295737 0.042369 0.989037 -0.179761
C200  C     C_R   0.276955 0.958013 0.970655 -0.173698
C201  C     C_R   0.722577 0.541854 0.470517 -0.175153
C202  C     C_R   0.704807 0.457693 0.491225 -0.174973
C203  C     C_R   0.295211 0.542272 0.487345 -0.181162
C204  C     C_R   0.274485 0.457995 0.469911 -0.173713
C205  C     C_R   0.222197 0.542033 0.970602 -0.173608
C206  C     C_R   0.204778 0.457482 0.987965 -0.178552
C207  C     C_R   0.796432 0.542492 0.989603 -0.180097
C208  C     C_R   0.778081 0.457957 0.970929 -0.173333
C209  C     C_R   0.249852 0.020831 0.498514 0.070406
C210  C     C_R   0.250332 0.978328 0.497887 0.084784
C211  C     C_R   0.752316 0.021342 0.500331 0.080771
C212  C     C_R   0.753135 0.978819 0.500848 0.080130
C213  C     C_R   0.748514 0.021178 0.997944 0.073669
C214  C     C_R   0.749486 0.978656 0.996869 0.084046
C215  C     C_R   0.251555 0.021518 0.999484 0.078807
C216  C     C_R   0.252144 0.978988 0.000025 0.072597
C217  C     C_R   0.749880 0.520832 0.498482 0.070412
C218  C     C_R   0.750356 0.478329 0.497855 0.084801
C219  C     C_R   0.252341 0.521343 0.500361 0.080712
C220  C     C_R   0.253162 0.478820 0.500877 0.080283
C221  C     C_R   0.247708 0.520996 0.999529 0.071285
C222  C     C_R   0.248652 0.478461 0.998776 0.081606
C223  C     C_R   0.752129 0.521502 0.999354 0.079552
C224  C     C_R   0.752929 0.478990 0.000076 0.071819
C225  C     C_R   0.250134 0.249917 0.394784 0.785944
C226  C     C_R   0.250120 0.750046 0.394850 0.793884
C227  C     C_R   0.750062 0.250004 0.394856 0.794044
C228  C     C_R   0.749941 0.750028 0.394999 0.781448
C229  C     C_R   0.750042 0.249948 0.894855 0.785355
C230  C     C_R   0.750116 0.750031 0.894854 0.793410
C231  C     C_R   0.250116 0.250030 0.894854 0.793417
C232  C     C_R   0.250043 0.749949 0.894855 0.785361
C233  C     C_R   0.250039 0.250170 0.605155 0.921702
C234  C     C_R   0.249990 0.750066 0.605106 0.916666
C235  C     C_R   0.749990 0.250066 0.605106 0.916645
C236  C     C_R   0.750039 0.750170 0.605155 0.921921
C237  C     C_R   0.749950 0.250106 0.105156 0.923078
C238  C     C_R   0.751198 0.749263 0.105269 0.886651
C239  C     C_R   0.249822 0.250198 0.104996 0.961874
C240  C     C_R   0.249981 0.750131 0.105155 0.923342
C241  C     C_R   0.299622 0.248894 0.708050 0.353782
C242  C     C_R   0.254413 0.783343 0.708945 0.313826
C243  C     C_R   0.751860 0.212709 0.707876 0.349162
C244  C     C_R   0.705690 0.756183 0.708909 0.338705
C245  C     C_R   0.799158 0.248923 0.208155 0.349110
C246  C     C_R   0.776352 0.777842 0.209305 0.309803
C247  C     C_R   0.268878 0.215505 0.207306 0.345363
C248  C     C_R   0.206127 0.756990 0.209043 0.314087
C249  C     C_R   0.799622 0.748893 0.708051 0.353795
C250  C     C_R   0.754412 0.283344 0.708945 0.313831
C251  C     C_R   0.251868 0.712708 0.707876 0.349183
C252  C     C_R   0.205690 0.256178 0.708909 0.338720
C253  C     C_R   0.299997 0.749878 0.207948 0.349757
C254  C     C_R   0.238575 0.282508 0.208641 0.318515
C255  C     C_R   0.736353 0.713998 0.208804 0.343204
C256  C     C_R   0.705332 0.256449 0.208902 0.313377
C257  C     C_R   0.298787 0.247967 0.667481 0.341786
C258  C     C_R   0.256734 0.783960 0.668351 0.295044
C259  C     C_R   0.749913 0.213414 0.667311 0.333885
C260  C     C_R   0.705441 0.758597 0.668407 0.306532
C261  C     C_R   0.798446 0.247926 0.167581 0.341689
C262  C     C_R   0.779862 0.776850 0.168901 0.307955
C263  C     C_R   0.265981 0.215677 0.166738 0.337422
C264  C     C_R   0.205449 0.758484 0.168458 0.298700
C265  C     C_R   0.798787 0.747966 0.667482 0.341808
C266  C     C_R   0.756736 0.283960 0.668351 0.295042
C267  C     C_R   0.249919 0.713414 0.667311 0.333878
C268  C     C_R   0.205440 0.258593 0.668407 0.306524
C269  C     C_R   0.298960 0.748603 0.167383 0.342114
C270  C     C_R   0.239990 0.283631 0.167984 0.284944
C271  C     C_R   0.736389 0.714417 0.168171 0.351550
C272  C     C_R   0.705024 0.258295 0.168327 0.298040
C273  C     C_R   0.251461 0.251991 0.647602 -0.377982
C274  C     C_R   0.251947 0.749106 0.647523 -0.366718
C275  C     C_R   0.751946 0.249106 0.647523 -0.366722
C276  C     C_R   0.751461 0.751992 0.647602 -0.378084
C277  C     C_R   0.751166 0.251814 0.147608 -0.371713
C278  C     C_R   0.755153 0.747065 0.147947 -0.399706
C279  C     C_R   0.251294 0.249690 0.147242 -0.347758
C280  C     C_R   0.251484 0.752078 0.147591 -0.371526
C281  C     C_R   0.252896 0.252424 0.728875 -0.293449
C282  C     C_R   0.253490 0.747807 0.728775 -0.282347
C283  C     C_R   0.753485 0.247807 0.728775 -0.282354
C284  C     C_R   0.752897 0.752426 0.728875 -0.293473
C285  C     C_R   0.752378 0.252573 0.228892 -0.280378
C286  C     C_R   0.754908 0.746398 0.229439 -0.286603
C287  C     C_R   0.254157 0.248798 0.228364 -0.282792
C288  C     C_R   0.253362 0.753464 0.228867 -0.281447
C289  C     C_R   0.229995 0.282353 0.792032 -0.150718
C290  C     C_R   0.212498 0.729657 0.791427 -0.154357
C291  C     C_R   0.791755 0.266871 0.791859 -0.141855
C292  C     C_R   0.774856 0.720676 0.791452 -0.153222
C293  C     C_R   0.729431 0.282285 0.292112 -0.141351
C294  C     C_R   0.706650 0.741088 0.291641 -0.156243
C295  C     C_R   0.283098 0.275491 0.291563 -0.147288
C296  C     C_R   0.275287 0.721338 0.291284 -0.152432
C297  C     C_R   0.729999 0.782357 0.792033 -0.150804
C298  C     C_R   0.712492 0.229660 0.791428 -0.154378
C299  C     C_R   0.291758 0.766872 0.791860 -0.141852
C300  C     C_R   0.274860 0.220676 0.791453 -0.153248
C301  C     C_R   0.230263 0.782942 0.292192 -0.140803
C302  C     C_R   0.223101 0.221782 0.291061 -0.144024
C303  C     C_R   0.798562 0.754578 0.292947 -0.139342
C304  C     C_R   0.773926 0.220458 0.291380 -0.151614
H1    H     H_    0.201440 0.097562 0.449301 0.182725
H2    H     H_    0.170052 0.902015 0.486172 0.177715
H3    H     H_    0.827469 0.098039 0.476724 0.184296
H4    H     H_    0.790192 0.902405 0.445706 0.182954
H5    H     H_    0.706316 0.098366 0.946370 0.182622
H6    H     H_    0.674434 0.901794 0.974189 0.183916
H7    H     H_    0.329278 0.098146 0.980717 0.184879
H8    H     H_    0.295607 0.902346 0.947927 0.183145
H9    H     H_    0.701479 0.597568 0.449272 0.183674
H10   H     H_    0.670064 0.402021 0.486148 0.177723
H11   H     H_    0.327488 0.598042 0.476753 0.184301
H12   H     H_    0.290231 0.402411 0.445730 0.181512
H13   H     H_    0.202829 0.597742 0.948461 0.182630
H14   H     H_    0.171987 0.401657 0.978995 0.182611
H15   H     H_    0.829807 0.598384 0.981819 0.183703
H16   H     H_    0.796708 0.402238 0.948335 0.183983
H17   H     H_    0.201210 0.027161 0.447951 0.146450
H18   H     H_    0.168549 0.972611 0.486443 0.145066
H19   H     H_    0.829933 0.027552 0.477842 0.144255
H20   H     H_    0.791004 0.972788 0.445191 0.145638
H21   H     H_    0.706247 0.028096 0.944244 0.144249
H22   H     H_    0.671846 0.972169 0.974514 0.143987
H23   H     H_    0.331274 0.027602 0.981507 0.144552
H24   H     H_    0.296615 0.972686 0.947209 0.145554
H25   H     H_    0.701261 0.527167 0.447907 0.146466
H26   H     H_    0.668575 0.472617 0.486400 0.145072
H27   H     H_    0.329966 0.527556 0.477888 0.144225
H28   H     H_    0.291055 0.472795 0.445229 0.145371
H29   H     H_    0.202069 0.527438 0.947338 0.144845
H30   H     H_    0.169268 0.472077 0.980129 0.144071
H31   H     H_    0.832255 0.527835 0.982637 0.144275
H32   H     H_    0.798127 0.472591 0.947642 0.145872
H33   H     H_    0.213264 0.306774 0.776883 0.156088
H34   H     H_    0.181761 0.715236 0.775864 0.165763
H35   H     H_    0.823176 0.280851 0.776635 0.153640
H36   H     H_    0.792187 0.696747 0.775837 0.168836
H37   H     H_    0.712847 0.306806 0.277035 0.155993
H38   H     H_    0.671323 0.735728 0.275777 0.167248
H39   H     H_    0.307084 0.296139 0.276345 0.150749
H40   H     H_    0.292746 0.697544 0.275543 0.167646
H41   H     H_    0.713271 0.806779 0.776884 0.155995
H42   H     H_    0.681753 0.215240 0.775866 0.165753
H43   H     H_    0.323178 0.780854 0.776637 0.153669
H44   H     H_    0.292194 0.196747 0.775838 0.168805
H45   H     H_    0.213530 0.807451 0.277186 0.156378
H46   H     H_    0.199922 0.200922 0.275436 0.159403
H47   H     H_    0.835038 0.758776 0.278182 0.160896
H48   H     H_    0.791113 0.196511 0.275704 0.167237
H49   H     H_    0.210889 0.305483 0.847635 0.168631
H50   H     H_    0.180312 0.715942 0.846763 0.168335
H51   H     H_    0.821379 0.282591 0.847379 0.170382
H52   H     H_    0.791502 0.695820 0.846755 0.164295
H53   H     H_    0.710803 0.305486 0.347757 0.168585
H54   H     H_    0.669405 0.736408 0.346860 0.158894
H55   H     H_    0.305000 0.297144 0.347103 0.169842
H56   H     H_    0.291812 0.696145 0.346476 0.163618
H57   H     H_    0.710896 0.805487 0.847636 0.168434
H58   H     H_    0.680307 0.215946 0.846765 0.168333
H59   H     H_    0.321378 0.782594 0.847380 0.170504
H60   H     H_    0.291511 0.195823 0.846756 0.164194
H61   H     H_    0.210877 0.805669 0.347888 0.168936
H62   H     H_    0.197707 0.201474 0.346381 0.167787
H63   H     H_    0.832521 0.761829 0.348894 0.161836
H64   H     H_    0.790803 0.195576 0.346649 0.163564
H65   H     H_    0.453251 0.327918 0.991723 0.199949
H66   H     H_    0.453913 0.673489 0.986469 0.191077
H67   H     H_    0.546138 0.327854 0.991599 0.192043
H68   H     H_    0.546844 0.673621 0.986469 0.200170
H69   H     H_    0.953310 0.327727 0.489794 0.197930
H70   H     H_    0.953839 0.673456 0.487214 0.190813
H71   H     H_    0.046138 0.327665 0.489704 0.191940
H72   H     H_    0.046764 0.673597 0.487133 0.198915
H73   H     H_    0.953524 0.827934 0.991131 0.198969
H74   H     H_    0.954048 0.173771 0.984688 0.191277
H75   H     H_    0.046392 0.827813 0.991230 0.191754
H76   H     H_    0.046962 0.173886 0.984863 0.199804
H77   H     H_    0.453308 0.827729 0.489825 0.197777
H78   H     H_    0.453841 0.173468 0.487139 0.191568
H79   H     H_    0.546136 0.827668 0.489735 0.191460
H80   H     H_    0.546767 0.173610 0.487059 0.199197
H81   H     H_    0.453492 0.331526 0.045997 0.206389
H82   H     H_    0.454132 0.665952 0.040329 0.204718
H83   H     H_    0.545808 0.331697 0.045826 0.202007
H84   H     H_    0.546551 0.665813 0.040287 0.208654
H85   H     H_    0.953543 0.332732 0.543948 0.203799
H86   H     H_    0.954160 0.666366 0.541134 0.204367
H87   H     H_    0.045821 0.332986 0.543830 0.199811
H88   H     H_    0.046552 0.666231 0.541014 0.208360
H89   H     H_    0.953605 0.832044 0.045344 0.206019
H90   H     H_    0.954063 0.164928 0.038336 0.204342
H91   H     H_    0.045889 0.831924 0.045443 0.202148
H92   H     H_    0.046539 0.165015 0.038513 0.207150
H93   H     H_    0.453542 0.832715 0.543980 0.203843
H94   H     H_    0.454161 0.166328 0.541052 0.204188
H95   H     H_    0.545819 0.832970 0.543861 0.199925
H96   H     H_    0.546553 0.166195 0.540933 0.208282
H97   H     H_    0.297315 0.024495 0.549689 0.146435
H98   H     H_    0.332325 0.974288 0.507222 0.134003
H99   H     H_    0.674032 0.025164 0.521378 0.139180
H100  H     H_    0.716343 0.974717 0.556866 0.142059
H101  H     H_    0.789539 0.024707 0.052384 0.145475
H102  H     H_    0.828029 0.974823 0.017289 0.136533
H103  H     H_    0.171283 0.025638 0.016042 0.136523
H104  H     H_    0.208417 0.975026 0.053207 0.146410
H105  H     H_    0.797323 0.524489 0.549668 0.146464
H106  H     H_    0.832344 0.474283 0.507202 0.133951
H107  H     H_    0.174048 0.525162 0.521393 0.139165
H108  H     H_    0.216346 0.474711 0.556885 0.142065
H109  H     H_    0.292682 0.524974 0.052085 0.147774
H110  H     H_    0.328861 0.474421 0.015753 0.136502
H111  H     H_    0.671455 0.525154 0.014303 0.135613
H112  H     H_    0.708503 0.475195 0.052932 0.145662
O1    O     O_3   0.250000 0.250000 0.500010 -0.497238
O2    O     O_3   0.250000 0.750000 0.500010 -0.496891
O3    O     O_3   0.750000 0.250000 0.500010 -0.496918
O4    O     O_3   0.750000 0.750000 0.500010 -0.498030
O5    O     O_3   0.750000 0.250000 0.000010 -0.495463
O6    O     O_3   0.750000 0.750000 0.000010 -0.498232
O7    O     O_3   0.250000 0.250000 0.000010 -0.495702
O8    O     O_3   0.250000 0.750000 0.000010 -0.495615
O9    O     O_R   0.365800 0.227270 0.522760 -0.657792
O10   O     O_R   0.365800 0.772730 0.522760 -0.647822
O11   O     O_R   0.634200 0.227270 0.522760 -0.639545
O12   O     O_R   0.634200 0.772730 0.522760 -0.660570
O13   O     O_R   0.865800 0.227270 0.022760 -0.658180
O14   O     O_R   0.865800 0.772730 0.022760 -0.651518
O15   O     O_R   0.134200 0.227270 0.022760 -0.642671
O16   O     O_R   0.134200 0.772730 0.022760 -0.664033
O17   O     O_R   0.865800 0.727270 0.522760 -0.657569
O18   O     O_R   0.865800 0.272730 0.522760 -0.647830
O19   O     O_R   0.134200 0.727270 0.522760 -0.639524
O20   O     O_R   0.134200 0.272730 0.522760 -0.660797
O21   O     O_R   0.365800 0.727270 0.022760 -0.657301
O22   O     O_R   0.365800 0.272730 0.022760 -0.645967
O23   O     O_R   0.634200 0.727270 0.022760 -0.637451
O24   O     O_R   0.634200 0.272730 0.022760 -0.663735
O25   O     O_R   0.280370 0.336740 0.477280 -0.658499
O26   O     O_R   0.280370 0.663260 0.477280 -0.656189
O27   O     O_R   0.719630 0.336740 0.477280 -0.651937
O28   O     O_R   0.719630 0.663260 0.477280 -0.652101
O29   O     O_R   0.780370 0.336740 0.977280 -0.651177
O30   O     O_R   0.780370 0.663260 0.977280 -0.654674
O31   O     O_R   0.219630 0.336740 0.977280 -0.650491
O32   O     O_R   0.219630 0.663260 0.977280 -0.652259
O33   O     O_R   0.780370 0.836740 0.477280 -0.657126
O34   O     O_R   0.780370 0.163260 0.477280 -0.656215
O35   O     O_R   0.219630 0.836740 0.477280 -0.651873
O36   O     O_R   0.219630 0.163260 0.477280 -0.653255
O37   O     O_R   0.280370 0.836740 0.977280 -0.651634
O38   O     O_R   0.280370 0.163260 0.977280 -0.656452
O39   O     O_R   0.719630 0.836740 0.977280 -0.655353
O40   O     O_R   0.719630 0.163260 0.977280 -0.653549
O41   O     O_R   0.280370 0.272750 0.413290 -0.644035
O42   O     O_R   0.280370 0.727250 0.413290 -0.655319
O43   O     O_R   0.719630 0.272750 0.413290 -0.638006
O44   O     O_R   0.719630 0.727250 0.413290 -0.643611
O45   O     O_R   0.780370 0.272750 0.913290 -0.643696
O46   O     O_R   0.780370 0.727250 0.913290 -0.655173
O47   O     O_R   0.219630 0.272750 0.913290 -0.638453
O48   O     O_R   0.219630 0.727250 0.913290 -0.646094
O49   O     O_R   0.780370 0.772750 0.413290 -0.640469
O50   O     O_R   0.780370 0.227250 0.413290 -0.655385
O51   O     O_R   0.219630 0.772750 0.413290 -0.638072
O52   O     O_R   0.219630 0.227250 0.413290 -0.645865
O53   O     O_R   0.280370 0.772750 0.913290 -0.643642
O54   O     O_R   0.280370 0.227250 0.913290 -0.655217
O55   O     O_R   0.719630 0.772750 0.913290 -0.638222
O56   O     O_R   0.719630 0.227250 0.913290 -0.646184
O57   O     O_R   0.280360 0.227270 0.586740 -0.599695
O58   O     O_R   0.280360 0.772730 0.586740 -0.642451
O59   O     O_R   0.719640 0.227270 0.586740 -0.611827
O60   O     O_R   0.719640 0.772730 0.586740 -0.627115
O61   O     O_R   0.780360 0.227270 0.086740 -0.599714
O62   O     O_R   0.780360 0.772730 0.086740 -0.611920
O63   O     O_R   0.219640 0.227270 0.086740 -0.622193
O64   O     O_R   0.219640 0.772730 0.086740 -0.631256
O65   O     O_R   0.780360 0.727270 0.586740 -0.599549
O66   O     O_R   0.780360 0.272730 0.586740 -0.642447
O67   O     O_R   0.219640 0.727270 0.586740 -0.611827
O68   O     O_R   0.219640 0.272730 0.586740 -0.627232
O69   O     O_R   0.280360 0.727270 0.086740 -0.598841
O70   O     O_R   0.280360 0.272730 0.086740 -0.664468
O71   O     O_R   0.719640 0.727270 0.086740 -0.607503
O72   O     O_R   0.719640 0.272730 0.086740 -0.630222
O73   O     O_R   0.219650 0.336740 0.522750 -0.612309
O74   O     O_R   0.219650 0.663260 0.522750 -0.611235
O75   O     O_R   0.780350 0.336740 0.522750 -0.618414
O76   O     O_R   0.780350 0.663260 0.522750 -0.612320
O77   O     O_R   0.719650 0.336740 0.022750 -0.624564
O78   O     O_R   0.719650 0.663260 0.022750 -0.619983
O79   O     O_R   0.280350 0.336740 0.022750 -0.619367
O80   O     O_R   0.280350 0.663260 0.022750 -0.614629
O81   O     O_R   0.719650 0.836740 0.522750 -0.612503
O82   O     O_R   0.719650 0.163260 0.522750 -0.611198
O83   O     O_R   0.280350 0.836740 0.522750 -0.618452
O84   O     O_R   0.280350 0.163260 0.522750 -0.612190
O85   O     O_R   0.219650 0.836740 0.022750 -0.625144
O86   O     O_R   0.219650 0.163260 0.022750 -0.615725
O87   O     O_R   0.780350 0.836740 0.022750 -0.603236
O88   O     O_R   0.780350 0.163260 0.022750 -0.616287
O89   O     O_R   0.365810 0.272740 0.477280 -0.595774
O90   O     O_R   0.365810 0.727260 0.477280 -0.613314
O91   O     O_R   0.634190 0.272740 0.477280 -0.607781
O92   O     O_R   0.634190 0.727260 0.477280 -0.593928
O93   O     O_R   0.865810 0.272740 0.977280 -0.596227
O94   O     O_R   0.865810 0.727260 0.977280 -0.613157
O95   O     O_R   0.134190 0.272740 0.977280 -0.608063
O96   O     O_R   0.134190 0.727260 0.977280 -0.593134
O97   O     O_R   0.865810 0.772740 0.477280 -0.596879
O98   O     O_R   0.865810 0.227260 0.477280 -0.613302
O99   O     O_R   0.134190 0.772740 0.477280 -0.607815
O100  O     O_R   0.134190 0.227260 0.477280 -0.593004
O101  O     O_R   0.365810 0.772740 0.977280 -0.596258
O102  O     O_R   0.365810 0.227260 0.977280 -0.613186
O103  O     O_R   0.634190 0.772740 0.977280 -0.607864
O104  O     O_R   0.634190 0.227260 0.977280 -0.593338
Zn1   Zn    Zn3+2 0.206630 0.282490 0.532500 0.962212
Zn2   Zn    Zn3+2 0.206630 0.717510 0.532500 0.985936
Zn3   Zn    Zn3+2 0.793370 0.282490 0.532500 0.963207
Zn4   Zn    Zn3+2 0.793370 0.717510 0.532500 0.982043
Zn5   Zn    Zn3+2 0.706630 0.282490 0.032500 0.954014
Zn6   Zn    Zn3+2 0.706630 0.717510 0.032500 0.980653
Zn7   Zn    Zn3+2 0.293370 0.282490 0.032500 0.956714
Zn8   Zn    Zn3+2 0.293370 0.717510 0.032500 0.983185
Zn9   Zn    Zn3+2 0.706630 0.782490 0.532500 0.961670
Zn10  Zn    Zn3+2 0.706630 0.217510 0.532500 0.985988
Zn11  Zn    Zn3+2 0.293370 0.782490 0.532500 0.963198
Zn12  Zn    Zn3+2 0.293370 0.217510 0.532500 0.982775
Zn13  Zn    Zn3+2 0.206630 0.782490 0.032500 0.953397
Zn14  Zn    Zn3+2 0.206630 0.217510 0.032500 0.980065
Zn15  Zn    Zn3+2 0.793370 0.782490 0.032500 0.968539
Zn16  Zn    Zn3+2 0.793370 0.217510 0.032500 0.981000
Zn17  Zn    Zn3+2 0.293390 0.282490 0.467530 0.968591
Zn18  Zn    Zn3+2 0.293390 0.717510 0.467530 0.958812
Zn19  Zn    Zn3+2 0.706610 0.282490 0.467530 0.981895
Zn20  Zn    Zn3+2 0.706610 0.717510 0.467530 0.974523
Zn21  Zn    Zn3+2 0.793390 0.282490 0.967530 0.970075
Zn22  Zn    Zn3+2 0.793390 0.717510 0.967530 0.957244
Zn23  Zn    Zn3+2 0.206610 0.282490 0.967530 0.980960
Zn24  Zn    Zn3+2 0.206610 0.717510 0.967530 0.973932
Zn25  Zn    Zn3+2 0.793390 0.782490 0.467530 0.968941
Zn26  Zn    Zn3+2 0.793390 0.217510 0.467530 0.958825
Zn27  Zn    Zn3+2 0.206610 0.782490 0.467530 0.981859
Zn28  Zn    Zn3+2 0.206610 0.217510 0.467530 0.974742
Zn29  Zn    Zn3+2 0.293390 0.782490 0.967530 0.969416
Zn30  Zn    Zn3+2 0.293390 0.217510 0.967530 0.956404
Zn31  Zn    Zn3+2 0.706610 0.782490 0.967530 0.976610
Zn32  Zn    Zn3+2 0.706610 0.217510 0.967530 0.973550
O105  O     O_3   0.346493 0.244104 0.726766 -0.601492
C305  C     C_3   0.363092 0.279827 0.742439 0.098271
H113  H     H_    0.348232 0.282918 0.772497 0.158503
H114  H     H_    0.349886 0.305340 0.725235 0.096009
C306  C     C_3   0.422044 0.280053 0.743753 -0.306951
H115  H     H_    0.435826 0.255413 0.761679 0.228570
H116  H     H_    0.437559 0.276450 0.713921 0.228388
C307  C     C_3   0.442521 0.317729 0.760855 -0.993224
H117  H     H_    0.430120 0.342714 0.742885 0.264553
H118  H     H_    0.485366 0.316870 0.761481 0.268163
H119  H     H_    0.428097 0.321651 0.790934 0.267354
O106  O     O_3   0.253404 0.817795 0.729370 -0.637438
C308  C     C_3   0.201522 0.829606 0.733808 0.133475
H120  H     H_    0.178100 0.806565 0.747988 0.131137
H121  H     H_    0.184331 0.836706 0.705087 0.165843
C309  C     C_3   0.199836 0.865680 0.759348 -0.326456
H122  H     H_    0.217331 0.858967 0.787980 0.231245
H123  H     H_    0.222717 0.889072 0.745508 0.228447
C310  C     C_3   0.144542 0.879767 0.765432 -0.980859
H124  H     H_    0.126547 0.887225 0.737196 0.266255
H125  H     H_    0.144678 0.905978 0.784051 0.270554
H126  H     H_    0.121211 0.857054 0.779917 0.265002
O107  O     O_3   0.749022 0.177316 0.726534 -0.603146
C311  C     C_3   0.797894 0.167416 0.741995 0.095082
H127  H     H_    0.801421 0.179244 0.771817 0.158391
H128  H     H_    0.830728 0.178564 0.724253 0.096465
C312  C     C_3   0.802210 0.123392 0.744070 -0.308908
H129  H     H_    0.770613 0.111870 0.762540 0.229661
H130  H     H_    0.798005 0.111015 0.714501 0.226823
C313  C     C_3   0.854045 0.110796 0.760886 -0.986494
H131  H     H_    0.886194 0.121312 0.742386 0.263885
H132  H     H_    0.855837 0.078730 0.762103 0.269127
H133  H     H_    0.858747 0.122393 0.790705 0.267462
O108  O     O_3   0.659377 0.758876 0.728872 -0.640599
C314  C     C_3   0.642579 0.721605 0.740245 0.128027
H134  H     H_    0.622855 0.724741 0.768683 0.164838
H135  H     H_    0.674630 0.700424 0.744748 0.121405
C315  C     C_3   0.603989 0.705529 0.710783 -0.319120
H136  H     H_    0.573077 0.727244 0.705491 0.237311
H137  H     H_    0.624088 0.699595 0.682959 0.245543
C316  C     C_3   0.579577 0.668070 0.725167 -0.996398
H138  H     H_    0.609807 0.645799 0.730217 0.270280
H139  H     H_    0.552197 0.657020 0.703057 0.269128
H140  H     H_    0.558051 0.673288 0.752542 0.267676
O109  O     O_3   0.845966 0.244112 0.226953 -0.602338
C317  C     C_3   0.862342 0.279770 0.242898 0.097600
H141  H     H_    0.846996 0.282801 0.272822 0.157633
H142  H     H_    0.849473 0.305330 0.225620 0.096804
C318  C     C_3   0.921251 0.279948 0.244788 -0.308675
H143  H     H_    0.934693 0.255193 0.262700 0.228526
H144  H     H_    0.937292 0.276527 0.215089 0.227817
C319  C     C_3   0.941421 0.317500 0.262340 -0.994291
H145  H     H_    0.929588 0.342595 0.244311 0.265314
H146  H     H_    0.984196 0.316498 0.263548 0.273403
H147  H     H_    0.926311 0.321324 0.292240 0.268348
O110  O     O_3   0.796640 0.809037 0.229209 -0.630461
C320  C     C_3   0.758013 0.837689 0.232651 0.132358
H148  H     H_    0.722924 0.825886 0.247166 0.129809
H149  H     H_    0.747320 0.849064 0.203525 0.158817
C321  C     C_3   0.778872 0.870934 0.257191 -0.320960
H150  H     H_    0.790001 0.859804 0.286232 0.231785
H151  H     H_    0.813804 0.883127 0.243052 0.230063
C322  C     C_3   0.738704 0.902919 0.262126 -0.979807
H152  H     H_    0.727615 0.914904 0.233453 0.265855
H153  H     H_    0.755078 0.926589 0.280039 0.270912
H154  H     H_    0.703794 0.891508 0.276887 0.265468
O111  O     O_3   0.284417 0.182048 0.225987 -0.603428
C323  C     C_3   0.336555 0.186033 0.237457 0.091911
H155  H     H_    0.339250 0.204881 0.263489 0.150910
H156  H     H_    0.360874 0.198672 0.213969 0.099925
C324  C     C_3   0.358189 0.146212 0.247714 -0.305100
H157  H     H_    0.335160 0.133569 0.271749 0.228979
H158  H     H_    0.355121 0.126815 0.222112 0.225698
C325  C     C_3   0.414645 0.148716 0.260089 -0.991388
H159  H     H_    0.438575 0.160542 0.236157 0.265356
H160  H     H_    0.429155 0.119389 0.267449 0.271786
H161  H     H_    0.418561 0.167574 0.286000 0.267519
O112  O     O_3   0.160254 0.759651 0.229449 -0.639006
C326  C     C_3   0.139687 0.722150 0.233931 0.133209
H162  H     H_    0.167794 0.702694 0.248779 0.134044
H163  H     H_    0.129468 0.709617 0.205186 0.166223
C327  C     C_3   0.090876 0.724725 0.258661 -0.324471
H164  H     H_    0.100619 0.737375 0.287366 0.234429
H165  H     H_    0.062394 0.743993 0.244205 0.226254
C328  C     C_3   0.066701 0.684972 0.264646 -0.984419
H166  H     H_    0.055881 0.672042 0.236321 0.264144
H167  H     H_    0.031373 0.687881 0.282673 0.268871
H168  H     H_    0.094214 0.665438 0.279729 0.268512
O113  O     O_3   0.846492 0.744102 0.726766 -0.601474
C329  C     C_3   0.863095 0.779824 0.742439 0.098191
H169  H     H_    0.848234 0.782917 0.772497 0.158363
H170  H     H_    0.849891 0.805338 0.725234 0.095962
C330  C     C_3   0.922047 0.780048 0.743754 -0.306693
H171  H     H_    0.935825 0.755407 0.761681 0.228531
H172  H     H_    0.937562 0.776443 0.713922 0.228384
C331  C     C_3   0.942527 0.817722 0.760856 -0.993839
H173  H     H_    0.930128 0.842707 0.742885 0.264557
H174  H     H_    0.985371 0.816861 0.761482 0.268207
H175  H     H_    0.928101 0.821645 0.790934 0.267153
O114  O     O_3   0.753405 0.317796 0.729370 -0.637418
C332  C     C_3   0.701523 0.329609 0.733806 0.133440
H176  H     H_    0.678100 0.306570 0.747988 0.131157
H177  H     H_    0.684334 0.336707 0.705084 0.165844
C333  C     C_3   0.699840 0.365686 0.759342 -0.326467
H178  H     H_    0.717333 0.358975 0.787975 0.231294
H179  H     H_    0.722723 0.389075 0.745501 0.228477
C334  C     C_3   0.644547 0.379776 0.765424 -0.980594
H180  H     H_    0.626553 0.387231 0.737187 0.266242
H181  H     H_    0.644684 0.405988 0.784040 0.270605
H182  H     H_    0.621214 0.357064 0.779911 0.265022
O115  O     O_3   0.249039 0.677315 0.726534 -0.603103
C335  C     C_3   0.297913 0.667420 0.741993 0.095045
H183  H     H_    0.301440 0.679250 0.771815 0.158449
H184  H     H_    0.330743 0.678571 0.724250 0.096459
C336  C     C_3   0.302237 0.623396 0.744069 -0.308888
H185  H     H_    0.270643 0.611872 0.762540 0.229816
H186  H     H_    0.298033 0.611019 0.714500 0.226816
C337  C     C_3   0.354075 0.610807 0.760883 -0.986047
H187  H     H_    0.386221 0.621325 0.742381 0.263825
H188  H     H_    0.355873 0.578741 0.762101 0.269222
H189  H     H_    0.358779 0.622406 0.790702 0.267504
O116  O     O_3   0.159376 0.258868 0.728872 -0.640598
C338  C     C_3   0.142583 0.221597 0.740244 0.127921
H190  H     H_    0.122855 0.224731 0.768681 0.164720
H191  H     H_    0.174636 0.200417 0.744749 0.121375
C339  C     C_3   0.103996 0.205517 0.710781 -0.318997
H192  H     H_    0.073082 0.227229 0.705487 0.237292
H193  H     H_    0.124098 0.199584 0.682958 0.245525
C340  C     C_3   0.079589 0.168056 0.725165 -0.996652
H194  H     H_    0.109821 0.145788 0.730217 0.270257
H195  H     H_    0.052212 0.157003 0.703053 0.269145
H196  H     H_    0.058060 0.173273 0.752539 0.267622
O117  O     O_3   0.346981 0.745343 0.226566 -0.601565
C341  C     C_3   0.363187 0.781122 0.242338 0.095531
H197  H     H_    0.348167 0.784107 0.272361 0.157583
H198  H     H_    0.349850 0.806580 0.225106 0.097212
C342  C     C_3   0.422121 0.781640 0.243808 -0.303687
H199  H     H_    0.436043 0.757002 0.261678 0.229368
H200  H     H_    0.437804 0.778233 0.214001 0.228383
C343  C     C_3   0.442152 0.819354 0.261114 -0.994144
H201  H     H_    0.429601 0.844345 0.243210 0.264419
H202  H     H_    0.484997 0.818716 0.261856 0.268415
H203  H     H_    0.427547 0.823081 0.291169 0.267382
O118  O     O_3   0.222863 0.314820 0.229211 -0.637859
C344  C     C_3   0.168813 0.313240 0.234131 0.133354
H204  H     H_    0.157148 0.285911 0.248856 0.131668
H205  H     H_    0.148978 0.315238 0.205557 0.166120
C345  C     C_3   0.151791 0.347340 0.259271 -0.321594
H206  H     H_    0.171926 0.345913 0.287677 0.229938
H207  H     H_    0.162612 0.374856 0.244771 0.227387
C346  C     C_3   0.093606 0.346950 0.266136 -0.995190
H208  H     H_    0.072659 0.348819 0.238122 0.267163
H209  H     H_    0.082462 0.372130 0.284332 0.272456
H210  H     H_    0.082168 0.320028 0.281414 0.265437
O119  O     O_3   0.715951 0.682051 0.227594 -0.603278
C347  C     C_3   0.755698 0.660508 0.245776 0.101082
H211  H     H_    0.759212 0.669762 0.276488 0.161757
H212  H     H_    0.794176 0.663977 0.231572 0.094426
C348  C     C_3   0.741202 0.617699 0.245100 -0.309096
H213  H     H_    0.703829 0.613621 0.260404 0.230970
H214  H     H_    0.736466 0.607989 0.214605 0.229177
C349  C     C_3   0.782422 0.592880 0.264620 -0.988966
H215  H     H_    0.819892 0.595851 0.249236 0.262986
H216  H     H_    0.770604 0.562042 0.263771 0.269885
H217  H     H_    0.787265 0.601712 0.295361 0.268287
O120  O     O_3   0.659341 0.259358 0.229138 -0.639415
C350  C     C_3   0.637695 0.222098 0.232715 0.133990
H218  H     H_    0.664624 0.202277 0.248274 0.134054
H219  H     H_    0.628711 0.209804 0.203629 0.166691
C351  C     C_3   0.587626 0.225145 0.255953 -0.326972
H220  H     H_    0.596139 0.237218 0.285124 0.233785
H221  H     H_    0.560557 0.245106 0.240924 0.226477
C352  C     C_3   0.561885 0.185756 0.260570 -0.982067
H222  H     H_    0.552021 0.173502 0.231750 0.264747
H223  H     H_    0.525797 0.189027 0.277664 0.273313
H224  H     H_    0.587985 0.165464 0.276053 0.269324
O121  O     O_3   0.344483 0.241298 0.647665 -0.536698
C353  C     C_3   0.364768 0.276968 0.634782 0.143957
H225  H     H_    0.370765 0.297331 0.659319 0.116284
H226  H     H_    0.338820 0.290825 0.613171 0.097869
C354  C     C_3   0.416746 0.269831 0.615495 -0.820904
H227  H     H_    0.412274 0.249091 0.591187 0.272632
H228  H     H_    0.432378 0.297431 0.604024 0.174687
H229  H     H_    0.444424 0.257677 0.636837 0.254648
O122  O     O_3   0.256481 0.818991 0.648928 -0.586322
C355  C     C_3   0.306565 0.835040 0.650097 0.181032
H230  H     H_    0.335378 0.815055 0.636780 0.133026
H231  H     H_    0.318574 0.841657 0.680323 0.164788
C356  C     C_3   0.306727 0.872676 0.627342 -0.851010
H232  H     H_    0.345903 0.885623 0.628018 0.188359
H233  H     H_    0.295654 0.867121 0.596772 0.273577
H234  H     H_    0.278875 0.893443 0.640340 0.256135
O123  O     O_3   0.742726 0.179032 0.647426 -0.546760
C357  C     C_3   0.790995 0.165027 0.634400 0.145961
H235  H     H_    0.818140 0.160650 0.658945 0.120160
H236  H     H_    0.808810 0.185204 0.613174 0.100151
C358  C     C_3   0.783158 0.126228 0.614456 -0.829533
H237  H     H_    0.756349 0.129562 0.589619 0.257534
H238  H     H_    0.820709 0.115055 0.603598 0.200629
H239  H     H_    0.766680 0.105052 0.635221 0.249158
O124  O     O_3   0.659091 0.762830 0.648902 -0.586048
C359  C     C_3   0.644026 0.802128 0.650117 0.174875
H240  H     H_    0.675387 0.821408 0.639378 0.136655
H241  H     H_    0.633269 0.810923 0.680072 0.165093
C360  C     C_3   0.597137 0.807794 0.624247 -0.838438
H242  H     H_    0.564998 0.789032 0.634168 0.249241
H243  H     H_    0.584355 0.838430 0.625382 0.195250
H244  H     H_    0.607069 0.800292 0.593867 0.283119
O125  O     O_3   0.844194 0.241219 0.147845 -0.537609
C361  C     C_3   0.864682 0.276889 0.135154 0.144804
H245  H     H_    0.870714 0.297118 0.159796 0.116841
H246  H     H_    0.838847 0.290908 0.113569 0.096521
C362  C     C_3   0.916689 0.269706 0.115921 -0.823073
H247  H     H_    0.912170 0.249266 0.091360 0.271673
H248  H     H_    0.932617 0.297357 0.104813 0.174574
H249  H     H_    0.944162 0.257191 0.137205 0.254897
O126  O     O_3   0.807820 0.805283 0.150143 -0.562423
C363  C     C_3   0.860370 0.793920 0.150261 0.184020
H250  H     H_    0.865509 0.764099 0.138426 0.106550
H251  H     H_    0.876370 0.795052 0.180178 0.153397
C364  C     C_3   0.891479 0.821245 0.124995 -0.837750
H252  H     H_    0.932779 0.812544 0.125182 0.198758
H253  H     H_    0.877071 0.820103 0.094726 0.278279
H254  H     H_    0.888139 0.851176 0.136358 0.241920
O127  O     O_3   0.275421 0.181944 0.146212 -0.559140
C365  C     C_3   0.327113 0.181444 0.132851 0.102006
H255  H     H_    0.351114 0.164625 0.153508 0.156787
H256  H     H_    0.344600 0.210764 0.129485 0.095768
C366  C     C_3   0.329293 0.161438 0.093564 -0.801754
H257  H     H_    0.312675 0.131924 0.095643 0.254602
H258  H     H_    0.307128 0.178408 0.071910 0.237904
H259  H     H_    0.369993 0.159170 0.083666 0.199444
O128  O     O_3   0.158799 0.761547 0.149104 -0.584355
C367  C     C_3   0.142395 0.800569 0.149791 0.182429
H260  H     H_    0.172837 0.820196 0.138241 0.141501
H261  H     H_    0.132085 0.809786 0.179707 0.165439
C368  C     C_3   0.094676 0.804880 0.124498 -0.842809
H262  H     H_    0.063082 0.786311 0.135692 0.250953
H263  H     H_    0.081506 0.835475 0.124577 0.192295
H264  H     H_    0.103827 0.796194 0.094300 0.280824
O129  O     O_3   0.844482 0.741295 0.647665 -0.536691
C369  C     C_3   0.864769 0.776964 0.634782 0.143896
H265  H     H_    0.870770 0.797326 0.659318 0.116257
H266  H     H_    0.838821 0.790822 0.613172 0.097895
C370  C     C_3   0.916745 0.769824 0.615492 -0.820736
H267  H     H_    0.912270 0.749080 0.591188 0.272716
H268  H     H_    0.932375 0.797422 0.604015 0.174690
H269  H     H_    0.944426 0.757674 0.636834 0.254602
O130  O     O_3   0.756487 0.318991 0.648928 -0.586318
C371  C     C_3   0.806573 0.335037 0.650098 0.181023
H270  H     H_    0.835384 0.315050 0.636782 0.133018
H271  H     H_    0.818580 0.341654 0.680324 0.164796
C372  C     C_3   0.806740 0.372672 0.627342 -0.850945
H272  H     H_    0.845916 0.385618 0.628019 0.188359
H273  H     H_    0.795667 0.367117 0.596772 0.273581
H274  H     H_    0.778887 0.393441 0.640338 0.256144
O131  O     O_3   0.242734 0.679031 0.647425 -0.546759
C373  C     C_3   0.291005 0.665029 0.634398 0.145941
H275  H     H_    0.318151 0.660653 0.658943 0.120171
H276  H     H_    0.308816 0.685208 0.613172 0.100154
C374  C     C_3   0.283170 0.626230 0.614454 -0.829459
H277  H     H_    0.256359 0.629563 0.589618 0.257521
H278  H     H_    0.320722 0.615060 0.603594 0.200638
H279  H     H_    0.266695 0.605053 0.635219 0.249179
O132  O     O_3   0.159090 0.262824 0.648902 -0.586084
C375  C     C_3   0.144020 0.302120 0.650116 0.174891
H280  H     H_    0.175378 0.321403 0.639377 0.136675
H281  H     H_    0.133263 0.310915 0.680072 0.165118
C376  C     C_3   0.097129 0.307784 0.624248 -0.838486
H282  H     H_    0.064994 0.289019 0.634169 0.249234
H283  H     H_    0.084342 0.338418 0.625385 0.195283
H284  H     H_    0.107061 0.300285 0.593868 0.283087
O133  O     O_3   0.344617 0.742048 0.147485 -0.536678
C377  C     C_3   0.364648 0.777772 0.134541 0.144023
H285  H     H_    0.370483 0.798214 0.159038 0.116618
H286  H     H_    0.338595 0.791459 0.112890 0.096768
C378  C     C_3   0.416695 0.770812 0.115293 -0.820243
H287  H     H_    0.412381 0.750090 0.090954 0.271917
H288  H     H_    0.432200 0.798474 0.103877 0.173611
H289  H     H_    0.444402 0.758721 0.136650 0.256078
O134  O     O_3   0.223787 0.316375 0.148350 -0.598509
C379  C     C_3   0.263580 0.344208 0.149153 0.160369
H290  H     H_    0.299439 0.332769 0.135398 0.134189
H291  H     H_    0.272432 0.353416 0.179320 0.171880
C380  C     C_3   0.246173 0.379748 0.126738 -0.856238
H292  H     H_    0.275729 0.402780 0.129289 0.193087
H293  H     H_    0.240754 0.372366 0.095672 0.253731
H294  H     H_    0.209184 0.390807 0.138764 0.263010
O135  O     O_3   0.719399 0.681949 0.148517 -0.538366
C381  C     C_3   0.762853 0.658868 0.139133 0.156491
H295  H     H_    0.784366 0.650116 0.165565 0.114631
H296  H     H_    0.789691 0.674468 0.119383 0.100876
C382  C     C_3   0.745127 0.622340 0.118715 -0.847155
H297  H     H_    0.717009 0.606499 0.137074 0.249978
H298  H     H_    0.726745 0.630127 0.090857 0.264578
H299  H     H_    0.778766 0.603276 0.112729 0.200087
O136  O     O_3   0.658588 0.261935 0.148794 -0.584125
C383  C     C_3   0.642833 0.301099 0.149741 0.181434
H300  H     H_    0.673774 0.320566 0.138668 0.140924
H301  H     H_    0.632192 0.310093 0.179660 0.164690
C384  C     C_3   0.595616 0.306110 0.124067 -0.840534
H302  H     H_    0.563573 0.287669 0.134739 0.251587
H303  H     H_    0.582902 0.336810 0.124388 0.191755
H304  H     H_    0.605162 0.297698 0.093862 0.281147
O137  O     O_3   0.053985 0.180754 0.478625 -0.583977
C385  C     C_3   0.060554 0.155583 0.510421 0.147303
H305  H     H_    0.022617 0.147025 0.523008 0.151673
H306  H     H_    0.084606 0.169404 0.533314 0.117484
C386  C     C_3   0.087991 0.119123 0.496770 -0.807208
H307  H     H_    0.125840 0.126765 0.483897 0.271732
H308  H     H_    0.094413 0.099354 0.521653 0.201646
H309  H     H_    0.064253 0.104080 0.474638 0.250683
O138  O     O_3   0.052237 0.820934 0.481242 -0.547519
C387  C     C_3   0.071443 0.842378 0.513084 0.143454
H310  H     H_    0.113320 0.836311 0.516482 0.150617
H311  H     H_    0.052066 0.835902 0.541286 0.077192
C388  C     C_3   0.064562 0.885323 0.504920 -0.829550
H312  H     H_    0.022982 0.892948 0.504958 0.254030
H313  H     H_    0.084351 0.902593 0.527603 0.197383
H314  H     H_    0.080975 0.892654 0.476131 0.263031
O139  O     O_3   0.946803 0.181949 0.475304 -0.587613
C389  C     C_3   0.949077 0.181662 0.434375 0.179530
H315  H     H_    0.988518 0.173938 0.424203 0.172971
H316  H     H_    0.937910 0.210240 0.421905 0.123005
C390  C     C_3   0.911660 0.151468 0.419029 -0.816844
H317  H     H_    0.871641 0.158770 0.428061 0.281779
H318  H     H_    0.913418 0.150660 0.386886 0.196077
H319  H     H_    0.921977 0.122466 0.430518 0.245561
O140  O     O_3   0.946471 0.821063 0.482343 -0.542607
C391  C     C_3   0.927429 0.841315 0.514995 0.130105
H320  H     H_    0.959023 0.848661 0.535551 0.108840
H321  H     H_    0.897809 0.824082 0.530671 0.113611
C392  C     C_3   0.902285 0.878775 0.501595 -0.781387
H322  H     H_    0.871478 0.872379 0.480266 0.276844
H323  H     H_    0.885080 0.894199 0.526745 0.194757
H324  H     H_    0.931383 0.897754 0.487674 0.244066
O141  O     O_3   0.553933 0.181141 0.977087 -0.584298
C393  C     C_3   0.561497 0.155401 0.008294 0.149540
H325  H     H_    0.523974 0.146683 0.021467 0.149225
H326  H     H_    0.586368 0.168787 0.030945 0.118624
C394  C     C_3   0.588333 0.119132 0.993467 -0.803390
H327  H     H_    0.625641 0.126898 0.979773 0.273271
H328  H     H_    0.595781 0.099004 0.017898 0.201212
H329  H     H_    0.563633 0.104413 0.971714 0.249680
O142  O     O_3   0.552290 0.821284 0.982390 -0.547684
C395  C     C_3   0.572502 0.841619 0.014614 0.139825
H330  H     H_    0.614011 0.834298 0.018072 0.149046
H331  H     H_    0.552523 0.835273 0.042602 0.076426
C396  C     C_3   0.567970 0.884854 0.007141 -0.822354
H332  H     H_    0.526798 0.893730 0.007467 0.251027
H333  H     H_    0.588903 0.901141 0.029973 0.198515
H334  H     H_    0.584608 0.892105 0.978420 0.261028
O143  O     O_3   0.446810 0.182213 0.974297 -0.586579
C397  C     C_3   0.448766 0.182734 0.933360 0.178226
H335  H     H_    0.488132 0.175227 0.922870 0.172950
H336  H     H_    0.437491 0.211545 0.921497 0.122291
C398  C     C_3   0.411247 0.152829 0.917590 -0.812868
H337  H     H_    0.371302 0.159903 0.926980 0.282571
H338  H     H_    0.412706 0.152683 0.885429 0.195523
H339  H     H_    0.421714 0.123606 0.928425 0.245608
O144  O     O_3   0.446529 0.821170 0.983008 -0.543053
C399  C     C_3   0.428209 0.841316 0.015944 0.131304
H340  H     H_    0.460110 0.848140 0.036419 0.109705
H341  H     H_    0.398350 0.824235 0.031540 0.113271
C400  C     C_3   0.403781 0.879182 0.003024 -0.784799
H342  H     H_    0.372620 0.873302 0.981842 0.274372
H343  H     H_    0.387175 0.894599 0.028402 0.194738
H344  H     H_    0.433205 0.897894 0.989108 0.245842
O145  O     O_3   0.553984 0.680763 0.478593 -0.583716
C401  C     C_3   0.560566 0.655578 0.510375 0.147586
H345  H     H_    0.522634 0.647016 0.522970 0.151531
H346  H     H_    0.584631 0.669387 0.533268 0.117529
C402  C     C_3   0.587991 0.619122 0.496700 -0.806301
H347  H     H_    0.625833 0.626767 0.483816 0.271975
H348  H     H_    0.594428 0.599343 0.521572 0.201400
H349  H     H_    0.564237 0.604089 0.474571 0.250761
O146  O     O_3   0.552236 0.320949 0.481294 -0.547655
C403  C     C_3   0.571462 0.342357 0.513153 0.143350
H350  H     H_    0.613340 0.336283 0.516534 0.150635
H351  H     H_    0.552097 0.335853 0.541354 0.077232
C404  C     C_3   0.564584 0.385311 0.505038 -0.829795
H352  H     H_    0.523005 0.392943 0.505110 0.253984
H353  H     H_    0.584404 0.402556 0.527725 0.197507
H354  H     H_    0.580965 0.392669 0.476245 0.262913
O147  O     O_3   0.446804 0.681955 0.475285 -0.587596
C405  C     C_3   0.449071 0.681683 0.434355 0.179435
H355  H     H_    0.488510 0.673962 0.424177 0.173274
H356  H     H_    0.437902 0.710265 0.421897 0.122808
C406  C     C_3   0.411651 0.651495 0.419002 -0.816160
H357  H     H_    0.371634 0.658793 0.428041 0.281633
H358  H     H_    0.413403 0.650698 0.386858 0.196435
H359  H     H_    0.421970 0.622488 0.430479 0.245524
O148  O     O_3   0.446469 0.321076 0.482400 -0.542918
C407  C     C_3   0.427433 0.341298 0.515072 0.129779
H360  H     H_    0.459030 0.348620 0.535634 0.109025
H361  H     H_    0.397811 0.324053 0.530731 0.113531
C408  C     C_3   0.402296 0.378774 0.501711 -0.782200
H362  H     H_    0.371479 0.372402 0.480382 0.276487
H363  H     H_    0.385104 0.394178 0.526877 0.195041
H364  H     H_    0.431395 0.397761 0.487802 0.244023
O149  O     O_3   0.053912 0.681047 0.977547 -0.583940
C409  C     C_3   0.060887 0.655420 0.008924 0.148532
H365  H     H_    0.023128 0.646783 0.021761 0.149992
H366  H     H_    0.085394 0.668866 0.031766 0.118261
C410  C     C_3   0.087909 0.619082 0.994498 -0.805873
H367  H     H_    0.125453 0.626820 0.981180 0.272685
H368  H     H_    0.094892 0.599028 0.019065 0.201407
H369  H     H_    0.063598 0.604317 0.972529 0.250117
O150  O     O_3   0.052251 0.321570 0.983676 -0.549527
C411  C     C_3   0.072708 0.341139 0.016292 0.141841
H370  H     H_    0.114461 0.334268 0.018943 0.152306
H371  H     H_    0.053594 0.333625 0.044334 0.080477
C412  C     C_3   0.066984 0.384536 0.010308 -0.826565
H372  H     H_    0.025687 0.392918 0.011847 0.250575
H373  H     H_    0.088495 0.400349 0.033172 0.200914
H374  H     H_    0.082262 0.392905 0.981467 0.261646
O151  O     O_3   0.946816 0.682265 0.974388 -0.587287
C413  C     C_3   0.948920 0.682673 0.933455 0.177702
H375  H     H_    0.988341 0.675186 0.923064 0.172856
H376  H     H_    0.937625 0.711440 0.921496 0.122369
C414  C     C_3   0.911521 0.652682 0.917689 -0.812932
H377  H     H_    0.871527 0.659735 0.926980 0.282306
H378  H     H_    0.913096 0.652453 0.885531 0.195719
H379  H     H_    0.922010 0.623500 0.928622 0.245664
O152  O     O_3   0.946447 0.321440 0.984408 -0.543058
C415  C     C_3   0.928082 0.340739 0.017836 0.130164
H380  H     H_    0.959961 0.347019 0.038512 0.110201
H381  H     H_    0.898200 0.323272 0.032965 0.112882
C416  C     C_3   0.903646 0.378918 0.005879 -0.786538
H382  H     H_    0.872351 0.373548 0.984676 0.274068
H383  H     H_    0.887209 0.393755 0.031661 0.194230
H384  H     H_    0.933009 0.397927 0.992301 0.246854
O153  O     O_3   0.308665 0.098781 0.555917 -0.627439
C417  C     C_3   0.360294 0.104129 0.543364 0.147414
H385  H     H_    0.375763 0.129407 0.559451 0.186889
H386  H     H_    0.363264 0.111504 0.511939 0.103061
C418  C     C_3   0.393884 0.068685 0.552689 -0.403000
H387  H     H_    0.387175 0.059583 0.583158 0.242235
H388  H     H_    0.383443 0.044364 0.533206 0.208041
C419  C     C_3   0.451149 0.077310 0.547133 -0.970263
H389  H     H_    0.458629 0.087701 0.517202 0.268279
H390  H     H_    0.473947 0.050514 0.551995 0.272626
H391  H     H_    0.464010 0.099560 0.568230 0.269910
O154  O     O_3   0.343826 0.897340 0.508112 -0.643126
C420  C     C_3   0.373597 0.908772 0.540568 0.079686
H392  H     H_    0.381691 0.882414 0.557925 0.167701
H393  H     H_    0.353847 0.929531 0.560514 0.119557
C421  C     C_3   0.425070 0.925520 0.526785 -0.345827
H394  H     H_    0.445261 0.903921 0.508292 0.233763
H395  H     H_    0.418101 0.951822 0.509096 0.216170
C422  C     C_3   0.459762 0.936015 0.560881 -0.982131
H396  H     H_    0.440875 0.958283 0.579335 0.269313
H397  H     H_    0.496756 0.947855 0.549841 0.267478
H398  H     H_    0.468162 0.909941 0.578596 0.262632
O155  O     O_3   0.661917 0.100834 0.524275 -0.637684
C423  C     C_3   0.649113 0.093474 0.563540 0.102680
H399  H     H_    0.648501 0.121654 0.579067 0.191668
H400  H     H_    0.677275 0.074663 0.579294 0.114877
C424  C     C_3   0.595245 0.075556 0.565747 -0.367766
H401  H     H_    0.566860 0.095396 0.552030 0.236130
H402  H     H_    0.594749 0.047743 0.549622 0.216560
C425  C     C_3   0.579172 0.068126 0.607630 -0.951936
H403  H     H_    0.606581 0.047751 0.621676 0.266727
H404  H     H_    0.540041 0.055122 0.608263 0.269067
H405  H     H_    0.578253 0.095694 0.624182 0.274042
O156  O     O_3   0.708296 0.899258 0.563838 -0.637109
C426  C     C_3   0.654715 0.906909 0.567682 0.095207
H406  H     H_    0.633640 0.879259 0.563436 0.165927
H407  H     H_    0.638792 0.927792 0.546027 0.113216
C427  C     C_3   0.643722 0.921878 0.608579 -0.350192
H408  H     H_    0.654376 0.899266 0.630029 0.218958
H409  H     H_    0.667565 0.947941 0.614295 0.220676
C428  C     C_3   0.586893 0.932437 0.613703 -0.980222
H410  H     H_    0.576324 0.956558 0.593981 0.269500
H411  H     H_    0.579894 0.941866 0.644024 0.271620
H412  H     H_    0.562047 0.907069 0.607427 0.261582
O157  O     O_3   0.803091 0.098585 0.058467 -0.629895
C429  C     C_3   0.855553 0.103703 0.047838 0.149244
H413  H     H_    0.870187 0.129102 0.064204 0.187547
H414  H     H_    0.860719 0.110727 0.016485 0.106257
C430  C     C_3   0.888256 0.068273 0.058728 -0.401700
H415  H     H_    0.880821 0.060311 0.089424 0.241870
H416  H     H_    0.877738 0.043384 0.040016 0.209427
C431  C     C_3   0.945747 0.076186 0.053409 -0.969597
H417  H     H_    0.953936 0.085141 0.023116 0.266484
H418  H     H_    0.968001 0.049435 0.059680 0.272142
H419  H     H_    0.958576 0.099300 0.073572 0.270790
O158  O     O_3   0.837975 0.899365 0.025136 -0.636252
C432  C     C_3   0.850904 0.910943 0.063371 0.095324
H420  H     H_    0.849099 0.885031 0.082135 0.179448
H421  H     H_    0.823874 0.932444 0.076658 0.117694
C433  C     C_3   0.905927 0.926934 0.064028 -0.359364
H422  H     H_    0.933459 0.903813 0.055302 0.233196
H423  H     H_    0.909333 0.951095 0.042990 0.222709
C434  C     C_3   0.920305 0.941765 0.104267 -0.967218
H424  H     H_    0.893780 0.965467 0.113164 0.265638
H425  H     H_    0.960262 0.953234 0.103892 0.269389
H426  H     H_    0.918252 0.918000 0.125807 0.265105
O159  O     O_3   0.159502 0.100973 0.018955 -0.643000
C435  C     C_3   0.146711 0.096809 0.058693 0.117219
H427  H     H_    0.143853 0.126266 0.071457 0.187969
H428  H     H_    0.175993 0.080714 0.076239 0.118311
C436  C     C_3   0.094233 0.076946 0.062565 -0.377763
H429  H     H_    0.064749 0.093439 0.045999 0.238004
H430  H     H_    0.096444 0.047265 0.050334 0.216603
C437  C     C_3   0.077505 0.074426 0.104906 -0.953221
H431  H     H_    0.106516 0.058054 0.122031 0.267617
H432  H     H_    0.039966 0.059174 0.106981 0.269556
H433  H     H_    0.072964 0.103881 0.117362 0.269387
O160  O     O_3   0.195608 0.900959 0.058590 -0.642475
C438  C     C_3   0.143575 0.895246 0.047227 0.136476
H434  H     H_    0.128889 0.869908 0.063612 0.174972
H435  H     H_    0.139474 0.887838 0.015872 0.114622
C439  C     C_3   0.110018 0.930494 0.057262 -0.404811
H436  H     H_    0.116681 0.939065 0.087899 0.237746
H437  H     H_    0.120521 0.955146 0.038257 0.210256
C440  C     C_3   0.052794 0.921881 0.051519 -0.971178
H438  H     H_    0.045510 0.911483 0.021552 0.269270
H439  H     H_    0.030063 0.948721 0.056269 0.271490
H440  H     H_    0.039726 0.899649 0.072545 0.264955
O161  O     O_3   0.808661 0.598776 0.555913 -0.627351
C441  C     C_3   0.860292 0.604133 0.543369 0.147482
H441  H     H_    0.875751 0.629408 0.559464 0.186939
H442  H     H_    0.863268 0.611517 0.511946 0.102583
C442  C     C_3   0.893887 0.568690 0.552688 -0.402999
H443  H     H_    0.887176 0.559581 0.583155 0.242268
H444  H     H_    0.883454 0.544373 0.533200 0.207953
C443  C     C_3   0.951151 0.577323 0.547139 -0.970512
H445  H     H_    0.958634 0.587723 0.517212 0.268087
H446  H     H_    0.973954 0.550529 0.551996 0.272643
H447  H     H_    0.964005 0.599570 0.568242 0.269992
O162  O     O_3   0.843832 0.397333 0.508114 -0.643132
C444  C     C_3   0.873605 0.408777 0.540564 0.079731
H448  H     H_    0.881703 0.382426 0.557929 0.167679
H449  H     H_    0.853856 0.429542 0.560504 0.119581
C445  C     C_3   0.925078 0.425522 0.526772 -0.345885
H450  H     H_    0.945269 0.403916 0.508288 0.233805
H451  H     H_    0.918107 0.451816 0.509073 0.216107
C446  C     C_3   0.959770 0.436032 0.560864 -0.982128
H452  H     H_    0.940882 0.458308 0.579308 0.269325
H453  H     H_    0.996764 0.447868 0.549818 0.267461
H454  H     H_    0.968170 0.409966 0.578589 0.262647
O163  O     O_3   0.161918 0.600831 0.524266 -0.637791
C447  C     C_3   0.149110 0.593490 0.563534 0.102763
H455  H     H_    0.148497 0.621677 0.579047 0.191677
H456  H     H_    0.177270 0.574686 0.579298 0.114918
C448  C     C_3   0.095243 0.575573 0.565746 -0.367947
H457  H     H_    0.066859 0.595402 0.552013 0.236138
H458  H     H_    0.094751 0.547748 0.549640 0.216532
C449  C     C_3   0.079160 0.568171 0.607632 -0.951771
H459  H     H_    0.106569 0.547807 0.621696 0.266744
H460  H     H_    0.040031 0.555163 0.608269 0.269064
H461  H     H_    0.078234 0.595749 0.624164 0.274034
O164  O     O_3   0.208290 0.399250 0.563843 -0.637124
C450  C     C_3   0.154709 0.406904 0.567680 0.095149
H462  H     H_    0.133631 0.379258 0.563423 0.165941
H463  H     H_    0.138795 0.427796 0.546029 0.113200
C451  C     C_3   0.143706 0.421864 0.608580 -0.350126
H464  H     H_    0.154356 0.399246 0.630026 0.218982
H465  H     H_    0.167547 0.447926 0.614305 0.220700
C452  C     C_3   0.086876 0.432420 0.613700 -0.980163
H466  H     H_    0.076310 0.456545 0.593982 0.269486
H467  H     H_    0.079870 0.441841 0.644022 0.271659
H468  H     H_    0.062032 0.407052 0.607415 0.261564
O165  O     O_3   0.307650 0.598675 0.056458 -0.628239
C453  C     C_3   0.358579 0.604482 0.042532 0.152956
H469  H     H_    0.375851 0.628047 0.060125 0.183841
H470  H     H_    0.359511 0.614541 0.011808 0.109985
C454  C     C_3   0.391936 0.568015 0.047197 -0.413912
H471  H     H_    0.389056 0.557200 0.077440 0.241026
H472  H     H_    0.378217 0.545057 0.027230 0.211577
C455  C     C_3   0.448313 0.576203 0.037649 -0.973121
H473  H     H_    0.451909 0.588640 0.008101 0.268009
H474  H     H_    0.470645 0.548780 0.038644 0.272309
H475  H     H_    0.464760 0.596709 0.059095 0.273465
O166  O     O_3   0.340520 0.399152 0.019370 -0.637682
C456  C     C_3   0.353396 0.404733 0.058901 0.092920
H476  H     H_    0.352672 0.376032 0.073379 0.176780
H477  H     H_    0.326214 0.423909 0.075214 0.112778
C457  C     C_3   0.407796 0.421492 0.061995 -0.353258
H478  H     H_    0.435507 0.402439 0.046431 0.238154
H479  H     H_    0.408732 0.450521 0.048225 0.217864
C458  C     C_3   0.424386 0.425221 0.104269 -0.984588
H480  H     H_    0.397016 0.444089 0.120394 0.266994
H481  H     H_    0.463381 0.438314 0.105867 0.273787
H482  H     H_    0.425702 0.396276 0.118188 0.261736
O167  O     O_3   0.658915 0.600838 0.017233 -0.638729
C459  C     C_3   0.641246 0.592985 0.055339 0.088631
H483  H     H_    0.636630 0.621120 0.070570 0.188353
H484  H     H_    0.668348 0.575210 0.073191 0.119241
C460  C     C_3   0.588576 0.573160 0.053917 -0.366297
H485  H     H_    0.560686 0.592115 0.038507 0.237642
H486  H     H_    0.591540 0.545465 0.037763 0.218353
C461  C     C_3   0.568573 0.564883 0.094711 -0.959738
H487  H     H_    0.596390 0.546360 0.110728 0.264564
H488  H     H_    0.531193 0.549386 0.093094 0.271089
H489  H     H_    0.562718 0.592375 0.110834 0.273594
O168  O     O_3   0.695150 0.401148 0.058196 -0.642741
C462  C     C_3   0.643268 0.395689 0.046343 0.135581
H490  H     H_    0.628150 0.370350 0.062496 0.174469
H491  H     H_    0.639602 0.388408 0.014926 0.114299
C463  C     C_3   0.609811 0.431036 0.056227 -0.402891
H492  H     H_    0.615910 0.439357 0.087001 0.236704
H493  H     H_    0.620873 0.455778 0.037525 0.210922
C464  C     C_3   0.552663 0.422712 0.049761 -0.974067
H494  H     H_    0.545853 0.412957 0.019516 0.269209
H495  H     H_    0.529932 0.449498 0.054900 0.272443
H496  H     H_    0.539195 0.400046 0.070163 0.266660

loop_
_geom_bond_atom_site_label_1
_geom_bond_atom_site_label_2
_ccdc_geom_bond_type
C379  H291  S    
O100  Zn28  S    
C388  H312  S    
O29   Zn21  S    
C130  C146  A    
C367  C368  S    
C230  O46   A    
C14   C71   S    
C384  H304  S    
O2    Zn18  S    
C188  C204  A    
O155  C423  S    
C231  O54   A    
C27   H59   S    
C201  H25   S    
C53   C69   A    
C106  H74   S    
C177  H1    S    
C124  C220  A    
C407  H360  S    
C449  H461  S    
C400  H342  S    
C190  H14   S    
C387  C388  S    
C179  C195  A    
C306  H115  S    
C53   C99   S    
O47   Zn23  S    
C46   C294  A    
C175  O39   A    
C369  H265  S    
O168  C462  S    
C177  C193  A    
C2    O10   A    
C58   C112  S    
C293  H37   S    
C454  H471  S    
C334  H181  S    
C318  H144  S    
O142  C395  S    
C13   O21   A    
C333  C334  S    
C325  H161  S    
O157  C429  S    
C320  H149  S    
C82   O138  S    
O1    Zn17  S    
C57   C59   A    
C379  C380  S    
C62   C108  S    
C42   C299  A    
C361  H246  S    
C22   C38   A    
C126  C222  A    
C121  C217  A    
C309  H122  S    
O4    Zn20  S    
C209  C210  S    
C110  H94   S    
C437  H431  S    
O105  C305  S    
C45   C304  A    
C173  O85   A    
C378  H288  S    
C3    C74   S    
O51   Zn27  S    
C444  H448  S    
C62   C64   A    
C4    O12   A    
C337  H189  S    
C24   C296  A    
C5    O13   A    
C190  C206  A    
O95   Zn23  S    
C419  H390  S    
C223  C224  S    
C169  O81   A    
C56   C72   A    
C381  C382  S    
C240  C280  S    
C350  C351  S    
C375  H281  S    
C86   O142  S    
C313  H131  S    
C127  H111  S    
O31   Zn23  S    
C144  C160  A    
C90   O146  S    
C399  H341  S    
O52   Zn28  S    
O13   Zn16  S    
O53   Zn29  S    
C138  C154  A    
C361  C362  S    
C308  H121  S    
C117  C133  A    
C101  C103  S    
C358  H237  S    
C239  O63   A    
C366  H257  S    
C108  H76   S    
C336  C337  S    
C337  H188  S    
C246  C262  A    
O40   Zn32  S    
C128  C224  A    
C229  O56   A    
C305  H114  S    
C100  H68   S    
C142  C158  A    
C331  H175  S    
C195  H19   S    
C157  C168  S    
O166  C456  S    
C136  C152  A    
C343  H202  S    
O8    Zn13  S    
O138  C387  S    
C54   C56   A    
C382  H298  S    
C155  C162  S    
C107  H91   S    
C143  O167  S    
C244  C284  A    
C375  C376  S    
C92   O148  S    
C85   C87   A    
C245  C285  A    
C346  H208  S    
C46   C286  S    
C384  H302  S    
C27   C299  A    
C338  C339  S    
C163  O75   A    
O82   Zn10  S    
C438  H435  S    
O2    Zn27  S    
C42   C282  S    
C332  C333  S    
O27   Zn19  S    
C317  H141  S    
C333  H178  S    
C426  C427  S    
C12   O100  A    
C453  C454  S    
C227  O43   A    
C377  H285  S    
C440  H438  S    
C60   C76   A    
C321  C322  S    
C269  C280  A    
O22   Zn7   S    
C236  C276  S    
C305  C306  S    
C445  H451  S    
C270  C279  A    
C237  C277  S    
C215  C216  S    
C73   C89   A    
C247  C263  A    
C370  H267  S    
C105  C107  S    
C66   C82   A    
O4    Zn9   S    
C265  C276  A    
C90   C92   A    
C54   C70   A    
C335  C336  S    
C107  H75   S    
C266  C275  A    
C326  H162  S    
C355  H230  S    
C313  H133  S    
C319  H146  S    
C359  H240  S    
C377  H286  S    
C137  C153  A    
C458  H481  S    
C123  H107  S    
C94   C96   A    
C414  H379  S    
C128  C144  A    
C251  O115  S    
C121  H105  S    
C140  C156  A    
C43   C283  S    
C434  H424  S    
C247  O111  S    
C307  H117  S    
C13   C72   S    
C405  H356  S    
C294  H38   S    
C28   C33   A    
C136  O160  S    
C388  H314  S    
C415  H381  S    
C2    O90   A    
C99   H67   S    
C328  H166  S    
C422  H398  S    
C390  H319  S    
C395  C396  S    
C196  H20   S    
C373  H275  S    
C265  O129  S    
C134  O158  S    
C198  C214  A    
C115  H99   S    
O6    Zn15  S    
C453  H470  S    
C352  H222  S    
C442  C443  S    
C163  O27   A    
C456  H476  S    
C352  H224  S    
C113  H97   S    
C167  O79   A    
C168  O80   A    
C103  H87   S    
C425  H403  S    
C161  O25   A    
C408  H364  S    
C12   O20   A    
C449  H459  S    
C371  C372  S    
O46   Zn22  S    
C441  C442  S    
O143  C397  S    
C347  H211  S    
C397  C398  S    
C15   O23   A    
C385  H305  S    
C443  H447  S    
C64   C106  S    
C429  H413  S    
C63   C79   A    
C225  O52   A    
C111  H95   S    
C372  H274  S    
C415  C416  S    
O85   Zn13  S    
C98   C100  S    
C451  H465  S    
C102  H70   S    
C457  C458  S    
O18   Zn3   S    
C311  H127  S    
C74   C90   A    
C393  C394  S    
C332  H177  S    
C463  H492  S    
C217  C218  S    
C346  H210  S    
C356  H233  S    
C155  C187  A    
C252  C281  A    
C194  H18   S    
C32   C304  A    
O80   Zn8   S    
C417  H385  S    
C57   C111  S    
C389  H316  S    
C78   C94   A    
C207  H31   S    
C175  O87   A    
C421  H394  S    
C59   C109  S    
C459  H484  S    
C329  H169  S    
C324  C325  S    
C86   C88   A    
C126  H110  S    
C40   C226  S    
C410  H367  S    
C61   C107  S    
C341  H198  S    
C120  H104  S    
C426  H407  S    
C236  O65   A    
C25   C36   A    
C130  O154  S    
C370  H269  S    
C10   O18   A    
C147  C179  A    
C26   C35   A    
C131  O155  S    
C450  C451  S    
C433  H422  S    
C370  H268  S    
O132  C375  S    
C233  O68   A    
C336  H185  S    
O76   Zn4   S    
C303  H47   S    
C19   C35   A    
O104  Zn32  S    
C35   C229  S    
C318  H143  S    
C113  C129  A    
C58   C60   A    
C242  C282  A    
C55   C71   A    
C2    C75   S    
C249  O113  S    
C24   H56   S    
C389  C390  S    
C462  C463  S    
C420  H393  S    
O57   Zn12  S    
C206  H30   S    
C67   C83   A    
C249  C284  A    
C41   C289  A    
C186  H10   S    
C48   C288  S    
C250  C283  A    
C89   O145  S    
C338  H190  S    
C20   H52   S    
C295  H39   S    
C447  H455  S    
C245  C261  A    
C98   H82   S    
C429  C430  S    
C291  H35   S    
O12   Zn9   S    
O133  C377  S    
C9    O17   A    
C426  H406  S    
C339  C340  S    
C308  H120  S    
C457  H478  S    
C412  H374  S    
C456  H477  S    
C255  C286  A    
C186  C202  A    
C420  H392  S    
C199  C215  A    
C109  H77   S    
C178  H2    S    
C176  O40   A    
C320  H148  S    
C371  H270  S    
C418  C419  S    
O92   Zn20  S    
C111  H79   S    
C364  H252  S    
C41   C300  A    
C449  H460  S    
C344  H205  S    
C164  O76   A    
O70   Zn7   S    
C414  H378  S    
O5    Zn21  S    
O167  C459  S    
C399  C400  S    
C159  C166  S    
C123  C139  A    
C198  H22   S    
C137  O161  S    
C146  C178  A    
C61   C63   A    
O126  C363  S    
C226  O51   A    
C57   C73   A    
C380  H293  S    
O112  C326  S    
C272  O136  S    
C427  H409  S    
C96   O152  S    
O26   Zn18  S    
C7    O95   A    
C376  H282  S    
C353  H226  S    
C307  H119  S    
C103  H71   S    
C240  O69   A    
C450  H462  S    
C61   C77   A    
C326  C327  S    
C43   C291  A    
C349  H216  S    
C328  H168  S    
C422  H396  S    
O102  Zn30  S    
C131  C147  A    
O99   Zn27  S    
C452  H467  S    
C104  H88   S    
O127  C365  S    
C254  O118  S    
C263  C279  A    
C48   C296  A    
C75   C91   A    
O66   Zn3   S    
O21   Zn8   S    
C171  O83   A    
C411  H370  S    
C145  C172  S    
C34   C232  S    
C404  H353  S    
C151  C174  S    
C77   C93   A    
C368  H262  S    
C259  O123  S    
C339  H193  S    
C340  H195  S    
C3    O11   A    
C380  H292  S    
O9    Zn12  S    
C229  O45   A    
C347  C348  S    
C193  C209  A    
C1    O9    A    
C250  O114  S    
C316  H139  S    
O8    Zn24  S    
C148  C169  S    
O5    Zn32  S    
C233  O57   A    
C460  H486  S    
O75   Zn3   S    
C371  H271  S    
O37   Zn29  S    
C54   C100  S    
C112  H80   S    
O88   Zn16  S    
C413  H375  S    
C442  H444  S    
C25   H57   S    
C162  O74   A    
C311  C312  S    
O6    Zn6   S    
C21   C293  A    
O109  C317  S    
O6    Zn22  S    
C26   C298  A    
C322  H153  S    
C48   C301  A    
C97   C99   S    
O17   Zn4   S    
C253  C269  A    
C438  H434  S    
C368  H263  S    
O135  C381  S    
C51   C67   A    
C18   H50   S    
C427  C428  S    
C424  H402  S    
O129  C369  S    
C173  O37   A    
C349  H217  S    
C421  C422  S    
C299  H43   S    
C258  O122  S    
O45   Zn21  S    
C345  H206  S    
C428  H411  S    
C196  C212  A    
C410  H369  S    
C363  H251  S    
C462  H491  S    
C354  H227  S    
C392  H324  S    
O1    Zn12  S    
O35   Zn27  S    
C194  C210  A    
C94   O150  S    
C314  H135  S    
C357  C358  S    
C50   C52   A    
C436  H429  S    
C116  C132  A    
C433  C434  S    
C139  C155  A    
C342  C343  S    
O110  C320  S    
C321  H151  S    
O130  C371  S    
C401  H345  S    
C436  C437  S    
C132  O156  S    
C441  H442  S    
C31   C303  A    
C191  C207  A    
C32   C37   A    
C318  C319  S    
C259  C275  A    
C448  H458  S    
C4    C73   S    
C384  H303  S    
C365  H256  S    
C454  H472  S    
C152  C173  S    
C409  H366  S    
C404  H354  S    
C208  H32   S    
C335  H184  S    
C156  C161  S    
O164  C450  S    
C351  H221  S    
C254  C287  A    
C8    C77   S    
O56   Zn32  S    
C366  H259  S    
C363  C364  S    
C63   C105  S    
C461  H488  S    
C317  C318  S    
C230  O55   A    
C372  H273  S    
C454  C455  S    
C69   C85   A    
C6    O94   A    
C241  C281  A    
C348  H214  S    
O140  C391  S    
C330  C331  S    
C308  C309  S    
C382  H299  S    
C263  O127  S    
C239  O70   A    
C123  C219  A    
C234  O67   A    
C310  H126  S    
C183  H7    S    
C114  H98   S    
C14   O102  A    
C168  O32   A    
C1    C76   S    
C129  C145  A    
C62   C78   A    
C162  O26   A    
C238  C278  S    
C365  C366  S    
C180  C196  A    
C81   C83   A    
C362  H249  S    
C407  H361  S    
C88   O144  S    
C309  H123  S    
O67   Zn2   S    
C151  C183  A    
C125  C221  A    
C325  H160  S    
C208  C224  A    
C383  C384  S    
O50   Zn26  S    
C8    O16   A    
C406  H358  S    
C369  H266  S    
C266  O130  S    
C115  C211  A    
C298  H42   S    
C241  C257  A    
C312  C313  S    
C81   O137  S    
C316  H138  S    
C202  C218  A    
C327  C328  S    
C232  O48   A    
C393  H325  S    
C403  C404  S    
C101  H69   S    
O163  C447  S    
C398  H337  S    
C197  H21   S    
C122  H106  S    
C112  H96   S    
O149  C409  S    
C386  H308  S    
C106  C108  S    
C430  C431  S    
C206  C222  A    
C394  H329  S    
C29   C40   A    
C307  H118  S    
C423  H399  S    
C200  C216  A    
C248  C264  A    
C457  H479  S    
C30   C39   A    
C20   C292  A    
C437  H432  S    
C353  C354  S    
C30   H62   S    
O151  C413  S    
C414  H377  S    
C412  H372  S    
C314  C315  S    
C139  O163  S    
C407  C408  S    
C106  H90   S    
O68   Zn1   S    
C362  H248  S    
O107  C311  S    
C260  C276  A    
O43   Zn19  S    
C310  H124  S    
C261  C277  A    
C42   C290  A    
O8    Zn8   S    
C369  C370  S    
C148  C180  A    
C387  H310  S    
C358  H239  S    
C25   C297  A    
O84   Zn12  S    
C323  C324  S    
C325  H159  S    
C104  H72   S    
C313  H132  S    
C202  H26   S    
C166  O30   A    
C409  H365  S    
C33   C231  S    
C326  H163  S    
C289  H33   S    
C8    O96   A    
C22   C294  A    
C165  O77   A    
C443  H446  S    
C113  C209  A    
O3    Zn10  S    
C236  O60   A    
C243  C259  A    
C297  H41   S    
C180  H4    S    
C50   C104  S    
C402  H347  S    
C181  H5    S    
C336  H186  S    
C437  H433  S    
C114  C130  A    
O147  C405  S    
C332  H176  S    
C419  H389  S    
O32   Zn24  S    
C102  H86   S    
C268  O132  S    
C127  C143  A    
C253  C288  A    
C105  H73   S    
C150  C182  A    
C408  H362  S    
C245  O109  S    
C182  H6    S    
C178  C194  A    
C158  C190  A    
C52   C102  S    
O58   Zn11  S    
C439  H437  S    
C204  C220  A    
C345  C346  S    
O24   Zn5   S    
C38   C228  S    
C435  H427  S    
C338  H191  S    
C416  H383  S    
C403  H350  S    
C354  H229  S    
C242  O106  S    
C124  H108  S    
C442  H443  S    
O4    Zn25  S    
C317  H142  S    
C172  O36   A    
C11   O19   A    
C405  H355  S    
C97   H65   S    
C44   C284  S    
C187  C203  A    
C260  O124  S    
C425  H405  S    
C432  C433  S    
C45   C285  S    
C174  O86   A    
C21   C37   A    
C367  H260  S    
O131  C373  S    
C434  H426  S    
C185  C201  A    
C420  C421  S    
C15   C70   S    
C396  H334  S    
O7    Zn23  S    
C49   C65   A    
C376  H283  S    
C252  C268  A    
C406  H359  S    
C458  H480  S    
C189  C205  A    
O158  C432  S    
C164  O28   A    
C392  H323  S    
C239  C279  S    
C158  C167  S    
C359  H241  S    
O115  C335  S    
C100  H84   S    
C58   C74   A    
C187  H11   S    
C323  H155  S    
C101  H85   S    
C95   O151  S    
C157  C189  A    
C304  H48   S    
C300  H44   S    
C147  C170  S    
C99   H83   S    
O3    Zn3   S    
O98   Zn26  S    
O7    Zn30  S    
C374  H278  S    
O14   Zn15  S    
C192  H16   S    
C181  C197  A    
C348  H213  S    
C388  H313  S    
C19   C291  A    
C235  C275  S    
C149  C181  A    
O122  C355  S    
C422  H397  S    
C241  O105  S    
O101  Zn29  S    
C373  H276  S    
C28   H60   S    
C23   C295  A    
O20   Zn1   S    
C391  H320  S    
C438  C439  S    
C352  H223  S    
C425  H404  S    
C359  C360  S    
C349  H215  S    
O97   Zn25  S    
C312  H129  S    
C68   C84   A    
C159  C191  A    
C169  O33   A    
C412  H373  S    
C237  O61   A    
O114  C332  S    
C122  C138  A    
C347  H212  S    
C381  H295  S    
C398  H339  S    
O33   Zn25  S    
C219  C220  S    
O63   Zn14  S    
C133  C149  A    
C203  H27   S    
C207  C223  A    
C429  H414  S    
C125  C141  A    
C361  H245  S    
C406  H357  S    
C105  H89   S    
C126  C142  A    
C423  C424  S    
C119  C135  A    
C350  H218  S    
C7    O15   A    
O162  C444  S    
C120  C136  A    
C373  C374  S    
C311  H128  S    
C399  H340  S    
C378  H289  S    
C463  H493  S    
C314  H134  S    
C346  H209  S    
O34   Zn26  S    
C79   C95   A    
C356  H232  S    
C87   O143  S    
C334  H182  S    
C364  H254  S    
C154  C186  A    
O44   Zn20  S    
C211  C212  S    
C302  H46   S    
C431  H419  S    
C213  C214  S    
C240  O64   A    
C424  C425  S    
C233  C273  S    
C258  C274  A    
O1    Zn28  S    
O25   Zn17  S    
C441  H441  S    
O8    Zn29  S    
C118  C214  A    
C272  C277  A    
O161  C441  S    
C160  C165  S    
C460  C461  S    
C394  H328  S    
C341  C342  S    
C250  C266  A    
O136  C383  S    
C413  H376  S    
C262  O126  S    
C71   C87   A    
O30   Zn22  S    
C29   H61   S    
C244  O108  S    
C450  H463  S    
C43   C298  A    
C433  H423  S    
C386  H307  S    
C444  H449  S    
C255  O119  S    
O4    Zn4   S    
C357  H236  S    
C366  H258  S    
O146  C403  S    
C396  H332  S    
C1    O89   A    
C306  C307  S    
C463  C464  S    
C120  C216  A    
C357  H235  S    
C439  C440  S    
O5    Zn16  S    
C462  H490  S    
C351  C352  S    
C419  H391  S    
C14   O22   A    
C355  H231  S    
C197  C213  A    
C343  H201  S    
O42   Zn18  S    
C417  C418  S    
O116  C338  S    
C402  H348  S    
C416  H384  S    
C261  O125  S    
C108  H92   S    
C204  H28   S    
C24   C40   A    
C31   H63   S    
O94   Zn22  S    
O60   Zn9   S    
O120  C350  S    
C144  O168  S    
C243  O107  S    
C124  C140  A    
C435  C436  S    
C23   H55   S    
C44   C292  A    
C252  O116  S    
O7    Zn7   S    
O28   Zn20  S    
C451  C452  S    
O78   Zn6   S    
C49   C103  S    
C391  H321  S    
C460  H485  S    
C459  C460  S    
C199  H23   S    
C397  H336  S    
C327  H164  S    
C51   C101  S    
O91   Zn19  S    
O86   Zn14  S    
C12   C65   S    
O61   Zn16  S    
C464  H494  S    
C141  O165  S    
C31   C38   A    
O79   Zn7   S    
C149  C176  S    
C445  H450  S    
C446  H454  S    
C400  H343  S    
C395  H330  S    
C451  H464  S    
C383  H300  S    
C21   H53   S    
C116  C212  A    
C47   C287  S    
C390  H317  S    
C189  H13   S    
C440  H440  S    
C315  C316  S    
C234  O58   A    
C6    C79   S    
O160  C438  S    
C464  H495  S    
C13   O101  A    
C227  O50   A    
C135  C151  A    
C17   C33   A    
C319  H145  S    
O69   Zn8   S    
O2    Zn2   S    
C232  O53   A    
C251  C267  A    
C458  H482  S    
C315  H137  S    
C446  H452  S    
C455  H475  S    
C231  O47   A    
O87   Zn15  S    
C453  H469  S    
C418  H388  S    
C237  O72   A    
C129  O153  S    
C244  C260  A    
C39   C225  S    
O3    Zn26  S    
C60   C110  S    
C397  H335  S    
C91   O147  S    
C447  H456  S    
O73   Zn1   S    
O119  C347  S    
C20   C36   A    
C235  O66   A    
C374  H277  S    
C228  O49   A    
C37   C227  S    
C269  O133  S    
C4    O92   A    
C171  O35   A    
C415  H380  S    
C360  H244  S    
C225  O41   A    
C322  H152  S    
C328  H167  S    
O103  Zn31  S    
C44   C297  A    
O77   Zn5   S    
C6    O14   A    
C116  H100  S    
C452  H466  S    
C392  H322  S    
C251  C282  A    
C408  H363  S    
O134  C379  S    
C257  C273  A    
C29   C301  A    
C11   C66   S    
C134  C150  A    
C152  C184  A    
O3    Zn19  S    
C411  H371  S    
C331  H174  S    
C267  C274  A    
C119  C215  A    
O165  C453  S    
C205  H29   S    
C444  C445  S    
C340  H194  S    
C329  H170  S    
C324  H157  S    
C10   C67   S    
O15   Zn14  S    
C56   C98   S    
C448  H457  S    
C327  H165  S    
C301  H45   S    
C184  H8    S    
C19   H51   S    
C353  H225  S    
C312  H130  S    
C404  H352  S    
C255  C271  A    
O117  C341  S    
C459  H483  S    
C320  C321  S    
C256  C272  A    
C64   C80   A    
C128  H112  S    
O125  C361  S    
C418  H387  S    
C153  C185  A    
C110  H78   S    
C117  H101  S    
C292  H36   S    
O124  C359  S    
C356  H234  S    
C41   C281  S    
C85   O141  S    
C115  C131  A    
O93   Zn21  S    
O48   Zn24  S    
C411  C412  S    
C389  H315  S    
O59   Zn10  S    
O81   Zn9   S    
C424  H401  S    
C262  C278  A    
O71   Zn6   S    
C174  O38   A    
O49   Zn25  S    
O118  C344  S    
O96   Zn24  S    
C345  H207  S    
C428  H410  S    
C156  C188  A    
C138  O162  S    
C410  H368  S    
C341  H197  S    
C455  H473  S    
C109  C111  S    
C264  C280  A    
C46   C303  A    
O36   Zn28  S    
C65   C81   A    
C342  H199  S    
C271  C278  A    
O137  C385  S    
O89   Zn17  S    
O1    Zn1   S    
C342  H200  S    
C413  C414  S    
C30   C302  A    
C268  C273  A    
C464  H496  S    
C455  H474  S    
C436  H430  S    
C330  H172  S    
C362  H247  S    
C80   C96   A    
C32   H64   S    
O123  C357  S    
C242  C258  A    
O65   Zn4   S    
C142  O166  S    
C52   C68   A    
C343  H203  S    
C127  C223  A    
C249  C265  A    
C253  O117  S    
C191  H15   S    
C394  H327  S    
C22   H54   S    
C140  O164  S    
C309  C310  S    
C461  H489  S    
C133  O157  S    
O152  C415  S    
C443  H445  S    
C192  C208  A    
C238  O62   A    
C55   C97   S    
C378  H287  S    
C59   C75   A    
C248  O112  S    
C348  C349  S    
C235  O59   A    
O10   Zn11  S    
C334  H180  S    
C421  H395  S    
O154  C420  S    
C72   C88   A    
C375  H280  S    
C306  H116  S    
C110  C112  S    
C53   C55   A    
C27   C34   A    
C257  O121  S    
O6    Zn31  S    
C456  C457  S    
O55   Zn31  S    
C310  H125  S    
C15   O103  A    
O108  C314  S    
C153  C164  S    
C403  H351  S    
C47   C302  A    
O145  C401  S    
C445  C446  S    
O144  C399  S    
C154  C163  S    
C401  H346  S    
C161  O73   A    
C47   C295  A    
C172  O84   A    
C401  C402  S    
C247  C287  A    
C400  H344  S    
O41   Zn17  S    
C248  C288  A    
C119  H103  S    
C315  H136  S    
C344  C345  S    
C109  H93   S    
C377  C378  S    
C184  C200  A    
O121  C353  S    
O5    Zn5   S    
C17   H49   S    
C254  C270  A    
C319  H147  S    
C183  C199  A    
C49   C51   A    
C243  C283  A    
C446  H453  S    
C93   O149  S    
C380  H294  S    
C117  C213  A    
C383  H301  S    
C195  C211  A    
C427  H408  S    
C188  H12   S    
C9    O97   A    
C395  H331  S    
C200  H24   S    
C221  C222  S    
C228  O44   A    
O2    Zn11  S    
C398  H338  S    
C385  H306  S    
C267  O131  S    
O54   Zn30  S    
O111  C323  S    
C324  H158  S    
C26   H58   S    
C423  H400  S    
O128  C367  S    
C440  H439  S    
C135  O159  S    
C435  H428  S    
C176  O88   A    
O38   Zn30  S    
C344  H204  S    
C431  H417  S    
C5    C80   S    
C102  C104  S    
C18   C34   A    
O7    Zn14  S    
C447  C448  S    
O141  C393  S    
C256  O120  S    
C10   O98   A    
C76   C92   A    
C7    C78   S    
C141  C157  A    
C36   C230  S    
O153  C417  S    
C431  H418  S    
C16   O24   A    
O150  C411  S    
C386  H309  S    
C387  H311  S    
C358  H238  S    
C339  H192  S    
C340  H196  S    
C125  H109  S    
C368  H264  S    
C89   C91   A    
C238  O71   A    
O156  C426  S    
C364  H253  S    
C70   C86   A    
O83   Zn11  S    
C391  C392  S    
C316  H140  S    
C167  O31   A    
O106  C308  S    
C179  H3    S    
C385  C386  S    
C350  H219  S    
O113  C329  S    
C430  H415  S    
C376  H284  S    
C5    O93   A    
C118  H102  S    
C84   O140  S    
C416  H382  S    
C390  H318  S    
C379  H290  S    
C122  C218  A    
C271  O135  S    
C132  C148  A    
C45   C293  A    
C185  H9    S    
C16   C69   S    
C3    O91   A    
C331  H173  S    
O39   Zn31  S    
C193  H17   S    
C118  C134  A    
C381  H296  S    
C165  O29   A    
O74   Zn2   S    
C97   H81   S    
C296  H40   S    
C360  H242  S    
C170  O82   A    
C402  H349  S    
C355  C356  S    
C50   C66   A    
O139  C389  S    
C16   O104  A    
C82   C84   A    
C264  O128  S    
C234  C274  S    
C396  H333  S    
C203  C219  A    
C323  H156  S    
C428  H412  S    
C114  C210  A    
C409  C410  S    
C360  H243  S    
C363  H250  S    
O62   Zn15  S    
C9    C68   S    
C201  C217  A    
C354  H228  S    
O11   Zn10  S    
O16   Zn13  S    
C121  C137  A    
C166  O78   A    
C382  H297  S    
C330  H171  S    
C374  H279  S    
C17   C289  A    
C372  H272  S    
C23   C39   A    
O64   Zn13  S    
C430  H416  S    
C205  C221  A    
C321  H150  S    
C432  H421  S    
C270  O134  S    
C28   C300  A    
C256  C285  A    
C150  C175  S    
C322  H154  S    
C367  H261  S    
C143  C159  A    
C434  H425  S    
C432  H420  S    
O90   Zn18  S    
C448  C449  S    
C337  H187  S    
C333  H179  S    
C98   H66   S    
C365  H255  S    
C160  C192  A    
C246  O110  S    
C329  C330  S    
O19   Zn2   S    
C226  O42   A    
C417  H386  S    
C335  H183  S    
C18   C290  A    
O148  C407  S    
C93   C95   A    
C351  H220  S    
C439  H436  S    
C145  C177  A    
O159  C435  S    
O23   Zn6   S    
C246  C286  A    
O72   Zn5   S    
C452  H468  S    
C182  C198  A    
C290  H34   S    
C461  H487  S    
C146  C171  S    
C393  H326  S    
C405  C406  S    
C83   O139  S    
C11   O99   A    
C170  O34   A    
C305  H113  S    
