data_mof_unit_57746.cif
_audit_creation_date              2012-12-11T17:22:44-0500
_audit_creation_method            fapswitch 2.2
_symmetry_space_group_name_H-M    P1
_symmetry_Int_Tables_number       1
_space_group_crystal_system       triclinic
_cell_length_a                    8.253884
_cell_length_b                    16.413724
_cell_length_c                    26.943918
_cell_angle_alpha                 95.519457
_cell_angle_beta                  92.628605
_cell_angle_gamma                 86.823993
_cell_volume                      3624.75724774

loop_
_atom_site_label
_atom_site_type_symbol
_atom_type_description
_atom_site_fract_x
_atom_site_fract_y
_atom_site_fract_z
_atom_type_partial_charge
Ba1   Ba    Ba6+2 0.851940 0.461560 0.523510 1.640843
Ba2   Ba    Ba6+2 0.337880 0.538370 0.476480 1.647762
C1    C     C_3   0.629457 0.172848 0.658756 -0.370673
C2    C     C_3   0.640706 0.255198 0.638076 0.339947
C3    C     C_3   0.511146 0.705116 0.632087 0.377747
C4    C     C_3   0.621537 0.676987 0.675130 -0.357062
C5    C     C_3   0.014277 0.761401 0.339998 0.300528
C6    C     C_3   0.053260 0.783569 0.288571 -0.309319
C7    C     C_3   0.529838 0.756268 0.356518 0.421121
C8    C     C_3   0.497903 0.835483 0.331917 -0.358484
C9    C     C_R   0.009610 0.443862 0.178844 0.593585
C10   C     C_R   0.946279 0.588251 0.180318 0.586010
C11   C     C_2   0.772781 0.560637 0.272300 -0.091163
C12   C     C_3   0.148181 0.278411 0.658997 0.288891
C13   C     C_3   0.751430 0.584538 0.327268 -0.064754
C14   C     C_1   0.982893 0.489165 0.343456 0.043674
C15   C     C_2   0.024087 0.484374 0.295877 -0.082627
C16   C     C_2   0.912131 0.520210 0.256893 0.209389
C17   C     C_R   0.036862 0.512849 0.103093 -0.080214
C18   C     C_R   0.052430 0.441137 0.128184 -0.034684
C19   C     C_R   0.108828 0.367979 0.101906 -0.060062
C20   C     C_R   0.982644 0.586682 0.129481 -0.026851
C21   C     C_2   0.854406 0.532704 0.360718 -0.279322
C22   C     C_2   0.352257 0.483413 0.641497 -0.256667
C23   C     C_3   0.120306 0.258285 0.711688 -0.346888
C24   C     C_R   0.184210 0.436281 0.975323 0.019884
C25   C     C_R   0.082989 0.580282 0.974476 0.020205
C26   C     C_R   0.152805 0.507475 0.949458 0.050027
C27   C     C_R   0.262186 0.366940 0.949407 -0.100207
C28   C     C_R   0.303665 0.366885 0.899787 -0.061692
C29   C     C_R   0.268355 0.435637 0.873354 -0.031670
C30   C     C_R   0.191896 0.505963 0.898047 -0.078290
C31   C     C_R   0.155164 0.574948 0.871406 -0.031804
C32   C     C_R   0.193778 0.572546 0.820580 0.587514
C33   C     C_R   0.308561 0.435484 0.822759 0.581478
C34   C     C_3   0.177333 0.288772 0.417142 0.315836
C35   C     C_2   0.462892 0.487444 0.729417 -0.075622
C36   C     C_3   0.503072 0.491246 0.675127 -0.046364
C37   C     C_1   0.214230 0.517778 0.657493 0.025706
C38   C     C_2   0.177119 0.518816 0.705048 -0.124598
C39   C     C_2   0.307786 0.501943 0.744120 0.209957
C40   C     C_R   0.138191 0.436909 0.026011 0.019724
C41   C     C_R   0.075877 0.510923 0.051649 0.049983
C42   C     C_R   0.052333 0.583186 0.026427 0.020096
C43   C     C_R   0.151306 0.365836 0.052198 -0.099886
C44   C     C_R   0.966992 0.658120 0.104716 -0.062374
C45   C     C_3   0.178737 0.196368 0.404600 -0.380898
C46   C     C_R   0.045012 0.647819 0.946294 -0.101511
C47   C     C_R   0.080145 0.645045 0.896067 -0.063648
C48   C     C_R   0.000349 0.656509 0.054468 -0.102016
C49   C     C_R   0.385702 0.266432 0.520531 -0.289282
C50   C     C_R   0.524444 0.240652 0.494900 0.036484
C51   C     C_R   0.575056 0.157562 0.489848 -0.122548
C52   C     C_R   0.485208 0.099157 0.510608 0.248055
C53   C     C_R   0.342373 0.126353 0.535425 -0.177363
C54   C     C_R   0.291101 0.209740 0.539222 -0.008027
C55   C     C_R   0.610313 0.849992 0.497998 -0.136844
C56   C     C_3   0.005673 0.708285 0.577948 0.305177
C57   C     C_R   0.660837 0.767276 0.494806 0.027003
C58   C     C_R   0.703311 0.907775 0.478060 0.250176
C59   C     C_R   0.799782 0.739906 0.470000 -0.297945
C60   C     C_R   0.900562 0.795314 0.452485 -0.037392
C61   C     C_R   0.852148 0.880316 0.455567 -0.042445
C62   C     C_3   0.956587 0.798386 0.592030 -0.380499
C63   C     C_3   0.665819 0.363505 0.375385 0.300084
C64   C     C_3   0.666421 0.343964 0.319062 -0.357885
H1    H     H_    0.755822 0.254096 0.618188 0.105003
H2    H     H_    0.251956 0.178296 0.371371 0.128419
H3    H     H_    0.232524 0.164571 0.436299 0.053457
H4    H     H_    0.052703 0.176807 0.396701 0.124706
H5    H     H_    0.898387 0.676039 0.562247 0.034201
H6    H     H_    0.098717 0.704261 0.549359 0.065879
H7    H     H_    0.873891 0.804375 0.623633 0.157386
H8    H     H_    0.895475 0.826195 0.560015 0.061732
H9    H     H_    0.063451 0.834432 0.603342 0.091927
H10   H     H_    0.788842 0.379588 0.389332 0.007243
H11   H     H_    0.578692 0.416372 0.383872 0.081090
H12   H     H_    0.630987 0.123211 0.627677 0.082727
H13   H     H_    0.758265 0.293614 0.309332 0.133023
H14   H     H_    0.696352 0.398795 0.300995 0.069423
H15   H     H_    0.544626 0.325049 0.304622 0.133396
H16   H     H_    0.535984 0.263786 0.611560 -0.028965
H17   H     H_    0.514830 0.171728 0.678664 0.122875
H18   H     H_    0.441834 0.652228 0.615334 0.012748
H19   H     H_    0.692681 0.728427 0.692717 0.123437
H20   H     H_    0.550863 0.653100 0.704070 0.060061
H21   H     H_    0.707089 0.627177 0.660846 0.133181
H22   H     H_    0.734267 0.161879 0.685041 0.132928
H23   H     H_    0.177776 0.303927 0.738914 0.135404
H24   H     H_    0.977014 0.697161 0.336742 0.024884
H25   H     H_    0.912834 0.803963 0.353365 -0.034474
H26   H     H_    0.147617 0.739557 0.272071 0.162287
H27   H     H_    0.941642 0.781973 0.264029 0.126698
H28   H     H_    0.097465 0.846559 0.291205 0.089062
H29   H     H_    0.663622 0.743941 0.358489 -0.131178
H30   H     H_    0.485354 0.765339 0.395054 0.072820
H31   H     H_    0.566674 0.884935 0.352909 0.063749
H32   H     H_    0.366894 0.854234 0.331911 0.141353
H33   H     H_    0.099628 0.342168 0.655564 0.077050
H34   H     H_    0.538028 0.827097 0.292890 0.114265
H35   H     H_    0.140672 0.455934 0.285109 0.123445
H36   H     H_    0.120911 0.311499 0.119825 0.121088
H37   H     H_    0.561008 0.478289 0.756878 0.099627
H38   H     H_    0.363676 0.312035 0.882038 0.120460
H39   H     H_    0.296417 0.311781 0.966772 0.068737
H40   H     H_    0.191007 0.306612 0.034981 0.068751
H41   H     H_    0.686920 0.586431 0.245584 0.108952
H42   H     H_    0.927754 0.716218 0.124174 0.118165
H43   H     H_    0.984346 0.703723 0.961665 0.068409
H44   H     H_    0.280793 0.274214 0.653068 -0.012808
H45   H     H_    0.048155 0.698722 0.876516 0.119466
H46   H     H_    0.052864 0.532212 0.715936 0.122424
H47   H     H_    0.987612 0.714722 0.038999 0.068203
H48   H     H_    0.838176 0.544533 0.400542 0.079048
H49   H     H_    0.356429 0.448498 0.605168 0.068404
H50   H     H_    0.502720 0.869329 0.518416 0.109002
H51   H     H_    0.269669 0.082584 0.550650 0.084324
H52   H     H_    0.682194 0.138958 0.469040 0.105856
H53   H     H_    0.345941 0.330578 0.523309 0.073169
H54   H     H_    0.988038 0.260305 0.718039 0.137495
H55   H     H_    0.838116 0.675686 0.469055 0.065287
H56   H     H_    0.174055 0.196223 0.717510 0.118477
H57   H     H_    0.303216 0.307091 0.425035 0.004889
H58   H     H_    0.103639 0.305116 0.450455 0.063133
N1    N     N_R   0.956466 0.517048 0.204564 -0.421355
N2    N     N_R   0.269318 0.503172 0.796620 -0.423825
N3    N     N_2   0.530784 0.013384 0.506163 -0.240787
N4    N     N_2   0.655862 0.993583 0.482262 -0.241169
O1    O     O_2   0.915540 0.542930 0.617950 -0.467530
O2    O     O_3   0.620696 0.294350 0.396944 -0.634450
O3    O     O_3   0.067368 0.222582 0.625056 -0.601942
O4    O     O_2   0.274150 0.457040 0.382020 -0.458381
O5    O     O_3   0.042160 0.457070 0.442220 -0.496671
O6    O     O_3   0.525310 0.603770 0.411640 -0.475992
O7    O     O_3   0.111583 0.326496 0.375943 -0.627928
O8    O     O_3   0.637620 0.597020 0.524620 -0.463089
O9    O     O_3   0.118810 0.645070 0.435950 -0.463993
O10   O     O_2   0.237927 0.789491 0.466197 -0.492661
O11   O     O_3   0.152595 0.769796 0.371942 -0.578320
O12   O     O_3   0.147530 0.542870 0.557780 -0.481373
O13   O     O_3   0.552080 0.402920 0.475380 -0.487807
O14   O     O_2   0.387280 0.697260 0.523450 -0.467895
O15   O     O_3   0.611910 0.735671 0.598305 -0.660393
O16   O     O_2   0.427184 0.532323 0.322424 -0.486548
O17   O     O_3   0.448477 0.692266 0.328907 -0.566872
O18   O     O_2   0.017853 0.380815 0.199724 -0.598329
O19   O     O_2   0.377806 0.374783 0.801942 -0.599959
O20   O     O_2   0.906643 0.653652 0.203156 -0.627843
O21   O     O_2   0.162191 0.632820 0.797871 -0.608327
O22   O     O_3   0.664390 0.396160 0.588360 -0.485914
O23   O     O_2   0.833679 0.434285 0.672818 -0.497239
O24   O     O_3   0.068045 0.673971 0.620853 -0.639926
O25   O     O_3   0.636265 0.317867 0.677387 -0.592466
O26   O     O_2   0.802410 0.302720 0.476520 -0.458278
O27   O     O_3   0.070880 0.354870 0.564040 -0.486914
O28   O     O_2   0.953299 0.209360 0.533083 -0.487355
P1    P     P_3+3 0.086060 0.566890 0.610430 0.990397
P2    P     P_3+3 0.625290 0.314770 0.461990 0.987474
P3    P     P_3+3 0.095480 0.248074 0.564649 0.936205
P4    P     P_3+3 0.103630 0.433040 0.389570 0.995249
P5    P     P_3+3 0.101282 0.751359 0.431922 0.956138
P6    P     P_3+3 0.660885 0.411923 0.653489 0.971623
P7    P     P_3+3 0.573943 0.700011 0.535497 0.952995
P8    P     P_3+3 0.536895 0.599751 0.346815 0.972597
C65   C     C_3   0.393939 0.776299 0.650967 -0.202221
C66   C     C_3   0.297757 0.759902 0.696009 -0.393041
H59   H     H_    0.260631 0.695719 0.693226 0.157492
H60   H     H_    0.187703 0.801932 0.698501 0.144770
H61   H     H_    0.373025 0.771340 0.730960 0.134754
H62   H     H_    0.462283 0.832463 0.661110 0.112903
H63   H     H_    0.309660 0.789323 0.619407 0.104523
C67   C     C_3   0.957843 0.942245 0.436541 -0.198616
C68   C     C_3   0.052426 0.988521 0.479275 -0.378008
H64   H     H_    0.968802 0.024391 0.505226 0.158060
H65   H     H_    0.130025 0.945120 0.500323 0.143414
H66   H     H_    0.131492 0.031544 0.463800 0.121996
H67   H     H_    0.045625 0.912817 0.409671 0.121813
H68   H     H_    0.881285 0.986499 0.415766 0.111909

loop_
_geom_bond_atom_site_label_1
_geom_bond_atom_site_label_2
_ccdc_geom_bond_type
C25   C46   A    
C65   H63   S    
O9    P5    S    
C53   C54   A    
C23   H54   S    
C65   C66   S    
C14   P4    S    
Ba1   O27   S    
C17   C18   A    
C11   H41   S    
C8    H31   S    
C56   H6    S    
O1    P1    D    
C63   O2    S    
C5    C6    S    
C38   H46   S    
C51   C52   A    
C50   C51   A    
C64   H13   S    
O4    P4    D    
C63   H10   S    
C11   C16   D    
C58   C61   A    
Ba1   P2    S    
C34   H58   S    
O26   P2    D    
C54   P3    S    
Ba1   O1    S    
Ba2   O4    S    
C16   N1    S    
C53   H51   S    
C28   C29   A    
C56   H5    S    
C3    O15   S    
C60   P5    S    
C42   C48   A    
C10   C20   A    
C22   C37   D    
C34   C45   S    
C59   H55   S    
C49   C54   A    
Ba2   O13   S    
C8    H32   S    
C15   H35   S    
C45   H3    S    
O11   P5    S    
O24   P1    S    
C25   C42   A    
C17   C41   A    
C14   C15   D    
C44   H42   S    
C49   H53   S    
C62   H7    S    
C6    H26   S    
C3    C65   S    
Ba1   O8    S    
C23   H56   S    
C7    H29   S    
C47   H45   S    
C13   C21   S    
C46   H43   S    
O16   P8    D    
C66   H60   S    
C27   H39   S    
Ba1   O26   S    
Ba1   O5    S    
O15   P7    S    
C43   H40   S    
C32   O21   D    
C56   O24   S    
C31   C32   A    
C55   H50   S    
C19   C43   A    
C12   O3    S    
C68   H65   S    
C56   C62   S    
O22   P6    S    
C9    C18   A    
C57   C59   A    
Ba2   O5    S    
C63   H11   S    
O27   P3    S    
C49   C50   A    
C13   P8    S    
C26   C30   A    
C17   C20   A    
C6    H28   S    
C50   P2    S    
O14   P7    D    
C35   H37   S    
C3    H18   S    
C51   H52   S    
C55   C58   A    
C10   N1    Am   
C68   H64   S    
C5    H24   S    
Ba2   O8    S    
C4    H21   S    
C40   C43   A    
C33   N2    Am   
C8    H34   S    
C41   C42   A    
C45   H4    S    
C35   C36   S    
O12   P1    S    
C22   C36   S    
C29   C30   A    
C58   N4    S    
C32   N2    Am   
O23   P6    D    
C5    H25   S    
C34   H57   S    
C60   C61   A    
C15   C16   S    
Ba1   O22   S    
C33   O19   D    
O3    P3    S    
C4    H19   S    
C7    H30   S    
Ba1   O12   S    
C66   H61   S    
C19   H36   S    
C38   C39   S    
C20   C44   A    
C14   C21   D    
C11   C13   S    
C1    H17   S    
C66   H59   S    
Ba2   O14   S    
C29   C33   A    
C55   C57   A    
C40   C41   A    
N3    N4    D    
C34   O7    S    
C45   H2    S    
C37   C38   D    
C67   C68   S    
C24   C40   A    
C7    C8    S    
C68   H66   S    
C67   H68   S    
C65   H62   S    
C12   H44   S    
C52   C53   A    
C46   C47   A    
O7    P4    S    
C9    N1    Am   
C1    H22   S    
Ba2   O9    S    
C24   C26   A    
C39   N2    S    
O28   P3    D    
C6    H27   S    
C2    H1    S    
Ba2   O6    S    
C9    O18   D    
C22   H49   S    
O17   P8    S    
C64   H14   S    
C52   N3    S    
C44   C48   A    
C23   H23   S    
C4    H20   S    
O25   P6    S    
O2    P2    S    
C48   H47   S    
Ba2   O12   S    
C30   C31   A    
O5    P4    S    
Ba1   P1    S    
C10   O20   D    
C21   H48   S    
C5    O11   S    
C12   H33   S    
C61   C67   S    
C3    C4    S    
Ba1   Ba2   S    
C7    O17   S    
C62   H9    S    
O6    P8    S    
C2    O25   S    
O10   P5    D    
C12   C23   S    
C35   C39   D    
C59   C60   A    
Ba1   O13   S    
C27   C28   A    
C67   H67   S    
O13   P2    S    
C36   P6    S    
C2    H16   S    
C18   C19   A    
C24   C27   A    
Ba2   P4    S    
C63   C64   S    
C28   H38   S    
C25   C26   A    
C57   P7    S    
C62   H8    S    
C1    H12   S    
C31   C47   A    
C37   P1    S    
C1    C2    S    
C64   H15   S    
O8    P7    S    
