data_mof_unit_8954.cif
_audit_creation_date              2012-12-11T16:25:29-0500
_audit_creation_method            fapswitch 2.2
_symmetry_space_group_name_H-M    P1
_symmetry_Int_Tables_number       1
_space_group_crystal_system       triclinic
_cell_length_a                    20.396037
_cell_length_b                    7.264243
_cell_length_c                    13.339275
_cell_angle_alpha                 89.259061
_cell_angle_beta                  103.603759
_cell_angle_gamma                 90.886761
_cell_volume                      1920.6067908

loop_
_atom_site_label
_atom_site_type_symbol
_atom_type_description
_atom_site_fract_x
_atom_site_fract_y
_atom_site_fract_z
_atom_type_partial_charge
O1    O     O_R   0.449520 0.506760 0.599710 -0.537748
O2    O     O_R   0.550480 0.006760 0.400290 -0.535330
O3    O     O_R   0.587930 0.180200 0.595790 -0.538546
O4    O     O_R   0.412070 0.680200 0.404210 -0.540818
C1    C     C_R   0.614099 0.344859 0.618245 0.691939
C2    C     C_R   0.385730 0.843827 0.382100 0.691684
O5    O     O_R   0.452350 0.177380 0.611700 -0.539818
O6    O     O_R   0.547650 0.677380 0.388300 -0.541386
O7    O     O_R   0.413930 0.001760 0.416320 -0.536404
O8    O     O_R   0.586070 0.501760 0.583680 -0.535983
C3    C     C_R   0.435614 0.343510 0.637194 0.667519
C4    C     C_R   0.563693 0.847115 0.362351 0.669577
O9    O     O_3   0.487550 0.337460 0.435880 -0.377401
O10   O     O_3   0.512450 0.837460 0.564120 -0.376786
V1    V     V_3+5 0.502310 0.064670 0.511900 1.418957
V2    V     V_3+5 0.497690 0.564670 0.488100 1.415169
C5    C     C_R   0.615253 0.943998 0.116256 -0.171892
C6    C     C_R   0.384202 0.240233 0.883353 -0.173986
H1    H     H_    0.521925 0.925570 0.162527 0.116415
H2    H     H_    0.475448 0.226556 0.831504 0.121855
H3    H     H_    0.699130 0.023162 0.997915 0.139898
H4    H     H_    0.301768 0.204799 0.008872 0.139269
H5    H     H_    0.590587 0.988380 0.038835 0.123742
H6    H     H_    0.408129 0.186895 0.959209 0.124497
C7    C     C_R   0.606397 0.860663 0.288347 -0.096148
C8    C     C_R   0.394530 0.341034 0.714072 -0.104735
C9    C     C_R   0.928358 0.756244 0.308444 -0.168857
C10   C     C_R   0.071924 0.420884 0.682554 -0.131593
C11   C     C_R   0.891280 0.695800 0.377468 -0.163707
C12   C     C_R   0.105924 0.418040 0.604155 -0.164174
C13   C     C_R   0.822200 0.725071 0.356777 -0.105881
C14   C     C_R   0.174397 0.381321 0.626485 -0.106325
C15   C     C_R   0.788509 0.825769 0.268358 0.078081
C16   C     C_R   0.211634 0.356567 0.729500 0.084132
C17   C     C_R   0.826517 0.879566 0.195187 0.038696
C18   C     C_R   0.174800 0.337204 0.807877 0.033123
C19   C     C_R   0.717505 0.861575 0.246116 0.023666
C20   C     C_R   0.283610 0.341699 0.756460 0.029854
C21   C     C_R   0.685372 0.924630 0.145252 0.075400
C22   C     C_R   0.315122 0.277307 0.857170 0.076922
C23   C     C_R   0.723375 0.971046 0.073935 -0.171068
C24   C     C_R   0.277593 0.250501 0.931477 -0.168378
C25   C     C_R   0.792936 0.954127 0.099407 -0.203595
C26   C     C_R   0.208956 0.285688 0.908308 -0.201072
C27   C     C_R   0.677544 0.842616 0.320491 0.262203
C28   C     C_R   0.325450 0.390181 0.687865 0.267653
C29   C     C_R   0.576082 0.908486 0.186567 -0.223442
C30   C     C_R   0.422807 0.265133 0.811176 -0.214260
C31   C     C_R   0.896845 0.846140 0.216753 -0.086867
C32   C     C_R   0.104443 0.370890 0.783609 -0.070357
H7    H     H_    0.981305 0.722059 0.323704 0.136350
H8    H     H_    0.019671 0.459226 0.662726 0.126304
H9    H     H_    0.796182 0.655480 0.408008 0.177841
H10   H     H_    0.196082 0.366595 0.560897 0.174893
H11   H     H_    0.915746 0.617925 0.445421 0.124702
H12   H     H_    0.078959 0.444471 0.525242 0.124892
H13   H     H_    0.819886 0.994425 0.041591 0.129246
H14   H     H_    0.182661 0.268009 0.969491 0.127958
H15   H     H_    0.114856 0.013726 0.487812 0.121383
H16   H     H_    0.888178 0.171620 0.523854 0.137893
C33   C     C_R   0.228687 0.782193 0.038164 -0.149897
C34   C     C_R   0.769295 0.448049 0.960081 -0.148222
C35   C     C_R   0.283041 0.742139 0.995838 -0.095379
C36   C     C_R   0.714346 0.491213 0.000336 -0.099898
C37   C     C_R   0.347943 0.737168 0.058172 -0.134082
C38   C     C_R   0.649628 0.490294 0.937151 -0.131778
C39   C     C_R   0.358962 0.772356 0.163283 -0.150488
C40   C     C_R   0.639353 0.445459 0.833301 -0.152461
C41   C     C_R   0.304690 0.812406 0.208656 0.077182
C42   C     C_R   0.694199 0.401082 0.790179 0.071711
C43   C     C_R   0.238091 0.817324 0.145030 0.038029
C44   C     C_R   0.760610 0.402681 0.854634 0.055902
C45   C     C_R   0.316186 0.849819 0.315279 -0.159870
C46   C     C_R   0.683502 0.352543 0.685115 -0.154766
C47   C     C_R   0.261194 0.892139 0.358816 0.004036
C48   C     C_R   0.738987 0.305157 0.644013 0.023500
C49   C     C_R   0.194017 0.900462 0.295689 0.042097
C50   C     C_R   0.806065 0.308522 0.707443 -0.007942
C51   C     C_R   0.182634 0.860360 0.187920 -0.180042
C52   C     C_R   0.816687 0.357143 0.813871 -0.172960
C53   C     C_R   0.272409 0.924210 0.465982 -0.113097
C54   C     C_R   0.728466 0.255976 0.538920 -0.126472
C55   C     C_R   0.219838 0.966683 0.510746 -0.137753
C56   C     C_R   0.781811 0.206845 0.497119 -0.154193
C57   C     C_R   0.154818 0.979405 0.450560 -0.210016
C58   C     C_R   0.846883 0.207483 0.557920 -0.128977
C59   C     C_R   0.140699 0.947475 0.343706 0.339897
C60   C     C_R   0.859952 0.261889 0.660735 0.333883
H17   H     H_    0.179445 0.786490 0.985678 0.109063
H18   H     H_    0.818467 0.449629 0.012948 0.108758
H19   H     H_    0.274737 0.715514 0.914093 0.132234
H20   H     H_    0.722060 0.525140 0.081109 0.127619
H21   H     H_    0.390050 0.706657 0.024853 0.119828
H22   H     H_    0.607097 0.523806 0.968848 0.120649
H23   H     H_    0.410520 0.768670 0.208291 0.094972
H24   H     H_    0.587957 0.445176 0.787474 0.097234
H25   H     H_    0.322036 0.915646 0.517134 0.129488
H26   H     H_    0.678818 0.254720 0.487410 0.128872
H27   H     H_    0.229675 0.990460 0.592953 0.139448
H28   H     H_    0.772696 0.169785 0.416621 0.157651
O11   O     O_R   0.913760 0.203480 0.916370 -0.519073
O12   O     O_R   0.086240 0.703480 0.083630 -0.541496
O13   O     O_R   0.047590 0.535230 0.888250 -0.551919
O14   O     O_R   0.952410 0.035230 0.111750 -0.534624
C61   C     C_R   0.065039 0.370614 0.863186 0.708050
C62   C     C_R   0.935634 0.866293 0.137235 0.728881
O15   O     O_R   0.912020 0.532880 0.904260 -0.548577
O16   O     O_R   0.087980 0.032880 0.095740 -0.524502
O17   O     O_R   0.949590 0.708460 0.099750 -0.540088
O18   O     O_R   0.050410 0.208460 0.900250 -0.524755
C63   C     C_R   0.885522 0.364419 0.883605 0.718875
C64   C     C_R   0.113794 0.865464 0.118315 0.784133
O19   O     O_3   0.012370 0.375360 0.064120 -0.379940
O20   O     O_3   0.987630 0.875360 0.935880 -0.376394
V3    V     V_3+5 0.997700 0.648160 0.988110 1.432793
V4    V     V_3+5 0.002300 0.148160 0.011890 1.482398
O21   O     O_3   0.075149 0.962060 0.286636 -0.663100
H29   H     H_    0.046322 0.010563 0.330395 0.269865
O22   O     O_3   0.926329 0.274016 0.711591 -0.651639
H30   H     H_    0.933750 0.405069 0.731035 0.252871
O23   O     O_3   0.709273 0.827069 0.424059 -0.667396
H31   H     H_    0.676484 0.809258 0.467390 0.288034
O24   O     O_3   0.299259 0.496115 0.601165 -0.663023
H32   H     H_    0.328355 0.492778 0.551709 0.291714

loop_
_geom_bond_atom_site_label_1
_geom_bond_atom_site_label_2
_ccdc_geom_bond_type
C38   C40   A    
C61   O18   A    
C35   C37   A    
C7    C27   A    
C9    C11   A    
C54   H26   S    
O12   C64   A    
O1    C3    A    
O2    C4    A    
C33   H17   S    
C2    O7    A    
O14   C62   A    
O20   V3    S    
O3    V1    S    
O24   H32   S    
C21   C23   A    
O5    C3    A    
C40   H24   S    
C46   C48   A    
C51   C64   S    
C6    H6    S    
C20   C22   A    
C48   C50   A    
C59   O21   S    
O17   V3    S    
C58   C60   A    
C44   C52   A    
C41   C43   A    
C5    C21   A    
C1    C46   S    
C33   C35   A    
C6    C22   A    
C34   C36   A    
O12   V3    S    
O14   V4    S    
C10   C32   A    
C26   H14   S    
C37   C39   A    
C17   C31   A    
C32   C61   S    
C13   C15   A    
C41   C45   A    
C17   C25   A    
C7    C29   A    
C16   C18   A    
C8    C30   A    
C38   H22   S    
O19   V4    S    
C33   C43   A    
O5    V1    S    
O6    V2    S    
C55   H27   S    
C39   H23   S    
C23   C25   A    
C24   C26   A    
C11   C13   A    
C14   H10   S    
C53   C55   A    
C9    H7    S    
C49   C51   A    
C57   C59   A    
C56   H28   S    
O4    C2    A    
C48   C54   A    
C8    C28   A    
C47   C53   A    
C11   H11   S    
C3    C8    S    
C27   O23   S    
C12   H12   S    
C15   C19   A    
C43   C51   A    
O16   C64   A    
C39   C41   A    
C36   C38   A    
O4    V2    S    
O13   V3    S    
H15   C57   S    
C42   C46   A    
O6    C4    A    
C34   C44   A    
O13   C61   A    
O1    V2    S    
C5    H5    S    
C13   H9    S    
C60   O22   S    
O2    V1    S    
C47   C49   A    
O15   V3    S    
O23   H31   S    
H2    C30   S    
H3    C23   S    
C55   C57   A    
C54   C56   A    
C28   O24   S    
C18   C26   A    
C45   C47   A    
C19   C27   A    
O18   V4    S    
C18   C32   A    
C2    C45   S    
C50   C60   A    
H16   C58   S    
C16   C20   A    
O15   C63   A    
C5    C29   A    
C56   C58   A    
O3    C1    A    
C6    C30   A    
O22   H30   S    
C31   C62   S    
O11   C63   A    
C4    C7    S    
O16   V4    S    
C10   C12   A    
O7    V1    S    
C1    O8    A    
C19   C21   A    
O8    V2    S    
O21   H29   S    
C12   C14   A    
C10   H8    S    
H4    C24   S    
C53   H25   S    
C34   H18   S    
C52   C63   S    
C22   C24   A    
C37   H21   S    
C15   C17   A    
H1    C29   S    
C50   C52   A    
C20   C28   A    
C25   H13   S    
C49   C59   A    
C40   C42   A    
O9    V2    S    
C35   H19   S    
O11   V4    S    
C36   H20   S    
O10   V1    S    
C42   C44   A    
C9    C31   A    
C14   C16   A    
C62   O17   A    
