data_mof_unit_48728.cif
_audit_creation_date              2012-12-10T17:40:25-0500
_audit_creation_method            fapswitch 2.2
_symmetry_space_group_name_H-M    P1
_symmetry_Int_Tables_number       1
_space_group_crystal_system       triclinic
_cell_length_a                    13.790348
_cell_length_b                    15.059496
_cell_length_c                    15.640929
_cell_angle_alpha                 88.365468
_cell_angle_beta                  71.575149
_cell_angle_gamma                 89.58735
_cell_volume                      3080.47314062

loop_
_atom_site_label
_atom_site_type_symbol
_atom_type_description
_atom_site_fract_x
_atom_site_fract_y
_atom_site_fract_z
_atom_type_partial_charge
C1    C     C_R   0.500825 0.670887 0.497233 0.853279
C2    C     C_R   0.500101 0.767444 0.497907 -0.091349
C3    C     C_R   0.529546 0.189531 0.416305 0.070041
C4    C     C_R   0.470966 0.810408 0.581158 0.058837
C5    C     C_R   0.518158 0.096252 0.416903 0.054640
C6    C     C_R   0.478400 0.903830 0.580564 0.049802
C7    C     C_R   0.498001 0.046931 0.499027 -0.019315
C8    C     C_R   0.495657 0.953107 0.498787 -0.009130
C9    C     C_R   0.480476 0.091220 0.581261 0.015974
C10   C     C_R   0.510148 0.908877 0.416881 0.039155
C11   C     C_R   0.521068 0.051492 0.338566 -0.210648
C12   C     C_R   0.499733 0.329089 0.500999 0.859203
C13   C     C_R   0.473005 0.948828 0.659264 -0.237205
C14   C     C_R   0.506427 0.959724 0.340168 0.143304
C15   C     C_R   0.478772 0.041096 0.659819 0.153428
C16   C     C_R   0.438653 0.503665 0.672025 0.805855
C17   C     C_R   0.561563 0.502989 0.327590 0.808202
C18   C     C_R   0.207807 0.577692 0.486504 0.289917
C19   C     C_R   0.788090 0.423597 0.522612 0.303355
C20   C     C_R   0.203924 0.421446 0.509604 -0.043752
C21   C     C_R   0.798907 0.577096 0.485762 -0.047246
C22   C     C_R   0.103363 0.417102 0.502274 -0.054171
C23   C     C_R   0.378943 0.585878 0.089828 0.153374
C24   C     C_R   0.898077 0.579750 0.495415 -0.039101
C25   C     C_R   0.050576 0.497536 0.502062 -0.021510
C26   C     C_R   0.948657 0.498378 0.499706 -0.014420
C27   C     C_R   0.099581 0.577883 0.505818 -0.054886
C28   C     C_R   0.896736 0.418299 0.501809 -0.050600
C29   C     C_R   0.055711 0.335642 0.493045 0.137315
C30   C     C_R   0.945957 0.660298 0.505385 0.137042
C31   C     C_R   0.952733 0.336632 0.489554 0.115761
C32   C     C_R   0.039930 0.656133 0.524690 0.119166
C33   C     C_R   0.403473 0.521413 0.768773 -0.126025
C34   C     C_R   0.623890 0.584305 0.903938 0.147795
C35   C     C_R   0.597456 0.520595 0.229592 -0.131392
C36   C     C_R   0.269288 0.574665 0.899858 0.170074
C37   C     C_R   0.733448 0.570688 0.094685 0.169979
C38   C     C_R   0.302360 0.546825 0.810434 -0.196663
C39   C     C_R   0.699514 0.543525 0.186032 -0.183162
C40   C     C_R   0.473520 0.523967 0.816215 -0.207781
C41   C     C_R   0.527604 0.524866 0.181949 -0.220118
C42   C     C_R   0.445388 0.556041 0.904018 0.063689
C43   C     C_R   0.556728 0.555835 0.091866 0.078652
C44   C     C_R   0.340530 0.573617 0.948789 0.054316
C45   C     C_R   0.309782 0.590476 0.041126 -0.294306
C46   C     C_R   0.662057 0.571366 0.045891 0.051855
C47   C     C_R   0.518587 0.567386 0.949711 0.024230
C48   C     C_R   0.483908 0.567815 0.045263 0.027244
C49   C     C_3   0.266745 0.644374 0.413566 -0.342480
C50   C     C_3   0.271482 0.740006 0.442488 -0.868610
C51   C     C_3   0.723398 0.359967 0.595437 -0.353456
C52   C     C_3   0.755664 0.358012 0.680673 -0.908509
C53   C     C_3   0.116924 0.249487 0.482436 -0.385737
C54   C     C_3   0.112149 0.208102 0.574100 -0.845592
C55   C     C_3   0.899311 0.750232 0.495060 -0.407694
C56   C     C_R   0.693138 0.588045 0.952457 -0.293318
C57   C     C_3   0.810287 0.774656 0.578076 -0.844487
C58   C     C_3   0.909271 0.256532 0.455671 -0.380196
C59   C     C_3   0.879425 0.177847 0.523445 -0.839311
C60   C     C_3   0.053848 0.715665 0.596986 -0.377435
C61   C     C_3   0.986125 0.684119 0.690570 -0.848852
C62   C     C_3   0.160357 0.607899 0.942308 -0.410647
C63   C     C_3   0.099683 0.627491 0.876931 -0.880415
C64   C     C_3   0.843311 0.602042 0.049895 -0.404350
C65   C     C_3   0.906041 0.616929 0.113539 -0.882723
C66   C     C_3   0.376552 0.222812 0.658566 -0.362968
C67   C     C_R   0.463103 0.183652 0.581910 0.033256
C68   C     C_3   0.410031 0.287622 0.717440 -0.836567
C69   C     C_3   0.596645 0.772666 0.329530 -0.394850
C70   C     C_3   0.700707 0.743826 0.336782 -0.821013
C71   C     C_3   0.568390 0.243678 0.328080 -0.406034
C72   C     C_3   0.480989 0.274910 0.294025 -0.839642
C73   C     C_3   0.434855 0.756604 0.669695 -0.418846
C74   C     C_3   0.523918 0.731588 0.703963 -0.800738
C75   C     C_3   0.472412 0.921804 0.264980 -0.431773
C76   C     C_3   0.371757 0.962968 0.261948 -0.834864
C77   C     C_3   0.505496 0.080531 0.737656 -0.383954
C78   C     C_R   0.529845 0.816464 0.415320 0.024131
C79   C     C_3   0.419394 0.070627 0.827505 -0.854227
C80   C     C_R   0.500095 0.232529 0.499739 -0.128134
Cu1   Cu    Cu3+1 0.402580 0.500010 0.499990 0.913502
Cu2   Cu    Cu3+1 0.597420 0.499990 0.500010 0.903711
H1    H     H_    0.230941 0.605243 0.077825 0.140208
H2    H     H_    0.471256 0.912606 0.720274 0.170593
H3    H     H_    0.287813 0.743316 0.507212 0.261616
H4    H     H_    0.333308 0.775795 0.390318 0.247034
H5    H     H_    0.199539 0.775711 0.447027 0.234188
H6    H     H_    0.345054 0.620690 0.379693 0.249517
H7    H     H_    0.230449 0.646523 0.359452 0.164896
H8    H     H_    0.750372 0.425677 0.708060 0.254955
H9    H     H_    0.703767 0.313290 0.732602 0.240968
H10   H     H_    0.834946 0.333705 0.667398 0.265760
H11   H     H_    0.644161 0.381965 0.619318 0.251723
H12   H     H_    0.772225 0.602113 0.914917 0.143491
H13   H     H_    0.721705 0.292282 0.570596 0.202302
H14   H     H_    0.142120 0.254432 0.613612 0.237315
H15   H     H_    0.032185 0.190977 0.613804 0.258730
H16   H     H_    0.158785 0.146557 0.564133 0.240418
H17   H     H_    0.091544 0.199844 0.443510 0.205948
H18   H     H_    0.197699 0.261115 0.440968 0.181861
H19   H     H_    0.839464 0.800105 0.631127 0.251929
H20   H     H_    0.764171 0.828017 0.559383 0.244309
H21   H     H_    0.759745 0.716863 0.606093 0.256902
H22   H     H_    0.957897 0.803585 0.480485 0.192402
H23   H     H_    0.242485 0.361677 0.518963 0.163421
H24   H     H_    0.873720 0.750660 0.434552 0.181744
H25   H     H_    0.943705 0.130752 0.514506 0.247322
H26   H     H_    0.854296 0.199870 0.593999 0.259573
H27   H     H_    0.815642 0.140434 0.512104 0.234875
H28   H     H_    0.841668 0.276100 0.435511 0.186308
H29   H     H_    0.964542 0.234270 0.391517 0.180769
H30   H     H_    0.010819 0.617176 0.707124 0.252244
H31   H     H_    0.993106 0.730905 0.741925 0.235876
H32   H     H_    0.904671 0.680200 0.694137 0.260770
H33   H     H_    0.132844 0.712816 0.599714 0.210849
H34   H     H_    0.762304 0.637488 0.474643 0.167538
H35   H     H_    0.037275 0.786160 0.584759 0.196503
H36   H     H_    0.144026 0.671712 0.820157 0.255418
H37   H     H_    0.079424 0.564799 0.850858 0.249443
H38   H     H_    0.027737 0.662358 0.912282 0.247486
H39   H     H_    0.117745 0.558317 0.994298 0.207709
H40   H     H_    0.163665 0.671446 0.975735 0.199637
H41   H     H_    0.864072 0.660007 0.169509 0.251494
H42   H     H_    0.924968 0.552470 0.140685 0.248482
H43   H     H_    0.978298 0.651601 0.076725 0.247151
H44   H     H_    0.883980 0.553413 0.998752 0.207139
H45   H     H_    0.450983 0.500909 0.215374 0.185913
H46   H     H_    0.841272 0.666974 0.014878 0.199861
H47   H     H_    0.283070 0.568319 0.216724 0.203801
H48   H     H_    0.314877 0.675424 0.185338 0.221183
H49   H     H_    0.720793 0.568260 0.777727 0.212921
H50   H     H_    0.687405 0.674519 0.803786 0.222662
H51   H     H_    0.484747 0.318383 0.681068 0.237155
H52   H     H_    0.351510 0.340375 0.738992 0.239466
H53   H     H_    0.414737 0.254402 0.780049 0.249588
H54   H     H_    0.323286 0.258021 0.628752 0.199262
H55   H     H_    0.328678 0.169625 0.701621 0.205214
H56   H     H_    0.549707 0.499091 0.784310 0.191671
H57   H     H_    0.717808 0.776584 0.393140 0.253180
H58   H     H_    0.703123 0.670749 0.346041 0.258361
H59   H     H_    0.762531 0.762169 0.273716 0.224056
H60   H     H_    0.555914 0.715079 0.313711 0.191046
H61   H     H_    0.615482 0.818937 0.270471 0.206757
H62   H     H_    0.512858 0.311864 0.228743 0.238302
H63   H     H_    0.435825 0.217852 0.283823 0.240980
H64   H     H_    0.428827 0.319782 0.342556 0.270258
H65   H     H_    0.612452 0.302434 0.336286 0.202358
H66   H     H_    0.624273 0.204866 0.275493 0.192933
H67   H     H_    0.751957 0.540898 0.224703 0.172998
H68   H     H_    0.575137 0.789067 0.700113 0.239526
H69   H     H_    0.493583 0.708438 0.775384 0.261384
H70   H     H_    0.569597 0.677477 0.663690 0.278639
H71   H     H_    0.376424 0.794016 0.721669 0.197081
H72   H     H_    0.394120 0.695422 0.662560 0.202147
H73   H     H_    0.311863 0.954134 0.328555 0.254760
H74   H     H_    0.381178 0.034823 0.243439 0.244878
H75   H     H_    0.345961 0.929506 0.210541 0.239515
H76   H     H_    0.532610 0.933959 0.199103 0.199338
H77   H     H_    0.457931 0.849464 0.274231 0.205368
H78   H     H_    0.250054 0.545806 0.771666 0.176765
H79   H     H_    0.346441 0.097930 0.822841 0.252465
H80   H     H_    0.407529 0.999663 0.849350 0.244697
H81   H     H_    0.440409 0.106794 0.879990 0.240256
H82   H     H_    0.573820 0.045382 0.744843 0.190959
H83   H     H_    0.530236 0.150469 0.723186 0.219481
H84   H     H_    0.526585 0.087747 0.276658 0.161573
N1    N     N_R   0.256170 0.500070 0.500040 -0.205795
N2    N     N_R   0.743830 0.499930 0.499960 -0.206943
N3    N     N_3   0.343436 0.610664 0.182339 -0.626183
N4    N     N_3   0.659601 0.609428 0.810004 -0.620267
O1    O     O_R   0.417730 0.629750 0.499970 -0.593219
O2    O     O_R   0.582270 0.370250 0.500030 -0.617308
O3    O     O_R   0.582270 0.629730 0.499980 -0.587178
O4    O     O_R   0.417730 0.370270 0.500020 -0.591703
O5    O     O_R   0.371590 0.500020 0.629830 -0.577371
O6    O     O_R   0.628410 0.499980 0.370170 -0.588981
O7    O     O_R   0.536130 0.499990 0.629840 -0.595784
O8    O     O_R   0.463870 0.500010 0.370160 -0.596721

loop_
_geom_bond_atom_site_label_1
_geom_bond_atom_site_label_2
_ccdc_geom_bond_type
C17   O8    A    
C66   C68   S    
H49   N4    S    
C70   H58   S    
C23   C45   A    
C22   C29   A    
C73   C74   S    
C41   H45   S    
C52   H8    S    
Cu1   Cu2   S    
C10   C78   A    
C7    C8    A    
C12   O2    A    
Cu2   N2    S    
C53   C54   S    
C53   H17   S    
C34   C56   A    
C57   H20   S    
C13   H2    S    
C1    O3    A    
C21   N2    A    
H50   N4    S    
Cu1   O5    S    
C31   C58   S    
H47   N3    S    
C68   H51   S    
C24   C26   A    
Cu1   O8    S    
C5    C11   A    
C69   C70   S    
C35   C39   A    
C11   C14   A    
C14   C75   S    
H48   N3    S    
C77   H83   S    
C72   H63   S    
C7    C9    A    
C1    C2    S    
C65   H42   S    
C50   H3    S    
C64   H46   S    
C22   C25   A    
C40   H56   S    
C73   H72   S    
C52   H9    S    
C11   H84   S    
C54   H15   S    
C43   C48   A    
C54   H14   S    
C34   N4    S    
C17   O6    A    
C77   H82   S    
C40   C42   A    
C71   H66   S    
C70   H57   S    
Cu1   O1    S    
C41   C43   A    
C49   H6    S    
C74   H70   S    
C69   C78   S    
C45   H1    S    
C42   C44   A    
C79   H79   S    
C21   H34   S    
C36   C62   S    
C3    C80   A    
C24   C30   A    
C77   C79   S    
C53   H18   S    
C57   H21   S    
Cu2   O2    S    
C76   H75   S    
C33   C40   A    
C28   C31   A    
C18   C27   A    
C55   H24   S    
C51   C52   S    
C4    C6    A    
C10   C14   A    
C49   H7    S    
C5    C7    A    
C63   H36   S    
C6    C8    A    
C69   H60   S    
C55   H22   S    
C76   H74   S    
C59   H25   S    
C58   H29   S    
C60   C61   S    
C65   H43   S    
C56   H12   S    
C75   C76   S    
C9    C67   A    
C62   C63   S    
C2    C78   A    
C19   C51   S    
C16   C33   S    
C63   H37   S    
C47   C48   A    
C23   N3    S    
Cu2   O3    S    
Cu1   N1    S    
C60   H35   S    
C55   C57   S    
C19   C28   A    
C4    C73   S    
C50   H5    S    
C51   H11   S    
C66   H54   S    
C16   O5    A    
C8    C10   A    
C20   C22   A    
C64   H44   S    
C13   C15   A    
C61   H31   S    
C74   H69   S    
C36   C44   A    
C69   H61   S    
C19   N2    A    
C32   C60   S    
C79   H80   S    
C46   C56   A    
C62   H40   S    
C37   C64   S    
C44   C45   A    
C75   H76   S    
C12   O4    A    
C20   H23   S    
Cu2   O6    S    
C75   H77   S    
C72   H62   S    
C20   N1    A    
C70   H59   S    
C23   C48   A    
C27   C32   A    
C58   H28   S    
C68   H53   S    
C74   H68   S    
C67   C80   A    
C59   H26   S    
C79   H81   S    
C3    C5    A    
C18   N1    A    
C3    C71   S    
C25   C27   A    
C57   H19   S    
C30   C55   S    
C39   H67   S    
C76   H73   S    
C26   C28   A    
C33   C38   A    
Cu1   O4    S    
C36   C38   A    
C25   C26   A    
C38   H78   S    
C71   C72   S    
C29   C31   A    
C64   C65   S    
C6    C13   A    
C30   C32   A    
C63   H38   S    
C15   C77   S    
C66   H55   S    
C29   C53   S    
C72   H64   S    
C2    C4    A    
C12   C80   S    
Cu2   O7    S    
C68   H52   S    
C59   H27   S    
C1    O1    A    
C66   C67   S    
C42   C47   A    
C65   H41   S    
C9    C15   A    
C16   O7    A    
C35   C41   A    
C43   C46   A    
C58   C59   S    
C52   H10   S    
C50   H4    S    
C71   H65   S    
C37   C39   A    
C49   C50   S    
C21   C24   A    
C73   H71   S    
C61   H32   S    
C54   H16   S    
C60   H33   S    
C34   C47   A    
C17   C35   S    
C37   C46   A    
C61   H30   S    
C62   H39   S    
C18   C49   S    
C51   H13   S    
