data_mof_unit_29138.cif
_audit_creation_date              2012-12-11T14:44:34-0500
_audit_creation_method            fapswitch 2.2
_symmetry_space_group_name_H-M    P1
_symmetry_Int_Tables_number       1
_space_group_crystal_system       monoclinic
_cell_length_a                    19.81912
_cell_length_b                    7.2337
_cell_length_c                    19.739206
_cell_angle_alpha                 90.0
_cell_angle_beta                  98.35811
_cell_angle_gamma                 90.0
_cell_volume                      2799.86551943

loop_
_atom_site_label
_atom_site_type_symbol
_atom_type_description
_atom_site_fract_x
_atom_site_fract_y
_atom_site_fract_z
_atom_type_partial_charge
O1    O     O_R   0.673210 0.377390 0.686390 -0.535858
O2    O     O_R   0.326790 0.622610 0.313610 -0.535550
O3    O     O_R   0.826790 0.877390 0.813610 -0.535858
O4    O     O_R   0.173210 0.122610 0.186390 -0.535550
O5    O     O_R   0.810750 0.706450 0.681250 -0.538941
O6    O     O_R   0.189250 0.293550 0.318750 -0.538832
O7    O     O_R   0.689250 0.206450 0.818750 -0.538941
O8    O     O_R   0.310750 0.793550 0.181250 -0.538831
C1    C     C_R   0.831069 0.538527 0.665490 0.695413
C2    C     C_R   0.168900 0.461535 0.334528 0.695890
C3    C     C_R   0.668931 0.038527 0.834510 0.695412
C4    C     C_R   0.331100 0.961535 0.165472 0.695890
O9    O     O_R   0.672750 0.707060 0.678240 -0.536493
O10   O     O_R   0.327250 0.292940 0.321760 -0.537211
O11   O     O_R   0.827250 0.207060 0.821760 -0.536492
O12   O     O_R   0.172750 0.792940 0.178240 -0.537211
O13   O     O_R   0.687800 0.877990 0.810580 -0.537857
O14   O     O_R   0.312200 0.122010 0.189420 -0.538247
O15   O     O_R   0.812200 0.377990 0.689420 -0.537857
O16   O     O_R   0.187800 0.622010 0.310580 -0.538248
C5    C     C_R   0.648336 0.539458 0.661395 0.697932
C6    C     C_R   0.351658 0.460526 0.338633 0.697558
C7    C     C_R   0.851664 0.039458 0.838605 0.697932
C8    C     C_R   0.148342 0.960526 0.161367 0.697558
O17   O     O_3   0.755100 0.544060 0.793420 -0.374975
O18   O     O_3   0.244900 0.455940 0.206580 -0.375051
O19   O     O_3   0.744900 0.044060 0.706580 -0.374975
O20   O     O_3   0.255100 0.955940 0.293420 -0.375051
V1    V     V_3+5 0.749050 0.818670 0.741950 1.395751
V2    V     V_3+5 0.250950 0.181330 0.258050 1.394141
V3    V     V_3+5 0.750950 0.318670 0.758050 1.395751
V4    V     V_3+5 0.249050 0.681330 0.241950 1.394141
C9    C     C_R   0.086734 0.961220 0.108402 -0.088832
C10   C     C_R   0.913302 0.038552 0.891498 -0.089657
C11   C     C_R   0.413266 0.461220 0.391598 -0.088832
C12   C     C_R   0.586698 0.538552 0.608502 -0.089657
C13   C     C_R   0.020761 0.186337 0.940018 0.147215
C14   C     C_R   0.979906 0.811002 0.059265 0.146311
C15   C     C_R   0.479239 0.686337 0.559982 0.147215
C16   C     C_R   0.520094 0.311002 0.440735 0.146311
C17   C     C_R   0.964157 0.171387 0.888448 -0.195720
C18   C     C_R   0.036352 0.826727 0.110991 -0.196585
C19   C     C_R   0.535843 0.671387 0.611552 -0.195720
C20   C     C_R   0.463648 0.326727 0.389009 -0.196585
C21   C     C_R   0.919331 0.917054 0.947202 -0.252321
C22   C     C_R   0.080622 0.082965 0.052756 -0.248191
C23   C     C_R   0.580669 0.417054 0.552798 -0.252321
C24   C     C_R   0.419378 0.582965 0.447244 -0.248191
C25   C     C_R   0.974348 0.931350 0.001656 0.093598
C26   C     C_R   0.025574 0.068706 0.998334 0.094281
C27   C     C_R   0.525652 0.431350 0.498344 0.093597
C28   C     C_R   0.474426 0.568705 0.501666 0.094281
H1    H     H_    0.120502 0.184341 0.051825 0.137265
H2    H     H_    0.879322 0.816136 0.948215 0.138519
H3    H     H_    0.379498 0.684342 0.448175 0.137265
H4    H     H_    0.620678 0.316136 0.551784 0.138519
C29   C     C_R   0.567508 0.159738 0.882276 -0.205514
C30   C     C_R   0.431681 0.838105 0.116501 -0.209692
C31   C     C_R   0.932492 0.659738 0.617723 -0.205514
C32   C     C_R   0.068319 0.338105 0.383499 -0.209692
C33   C     C_R   0.619976 0.029121 0.884402 -0.075319
C34   C     C_R   0.380379 0.971720 0.115821 -0.079816
C35   C     C_R   0.880023 0.529121 0.615598 -0.075319
C36   C     C_R   0.119621 0.471720 0.384179 -0.079816
C37   C     C_R   0.625555 0.889045 0.934130 -0.222139
C38   C     C_R   0.377670 0.119405 0.069308 -0.219687
C39   C     C_R   0.874445 0.389045 0.565870 -0.222138
C40   C     C_R   0.122330 0.619405 0.430691 -0.219687
C41   C     C_R   0.579322 0.877862 0.982183 0.072984
C42   C     C_R   0.424583 0.133350 0.022013 0.076074
C43   C     C_R   0.920678 0.377862 0.517816 0.072984
C44   C     C_R   0.075417 0.633350 0.477987 0.076074
C45   C     C_R   0.525033 0.007429 0.977830 0.006148
C46   C     C_R   0.476533 0.997444 0.023721 0.010845
C47   C     C_R   0.974967 0.507429 0.522170 0.006148
C48   C     C_R   0.023467 0.497444 0.476279 0.010846
C49   C     C_R   0.520081 0.149808 0.928480 0.071401
C50   C     C_R   0.480644 0.852519 0.072059 0.072260
C51   C     C_R   0.979918 0.649808 0.571520 0.071401
C52   C     C_R   0.019356 0.352519 0.427941 0.072260
C53   C     C_R   0.586076 0.742772 0.035001 0.141620
C54   C     C_R   0.421883 0.280236 0.973769 0.134135
C55   C     C_R   0.913924 0.242772 0.464998 0.141620
C56   C     C_R   0.078117 0.780236 0.526231 0.134135
C57   C     C_R   0.535154 0.727676 0.077330 -0.222714
C58   C     C_R   0.469109 0.284311 0.927127 -0.219013
C59   C     C_R   0.964846 0.227676 0.422669 -0.222714
C60   C     C_R   0.030891 0.784311 0.572873 -0.219014
H5    H     H_    0.041176 0.732682 0.154197 0.119389
H6    H     H_    0.959630 0.264761 0.845046 0.120737
H7    H     H_    0.458823 0.232682 0.345803 0.119389
H8    H     H_    0.540370 0.764761 0.654954 0.120737
C61   C     C_3   0.074925 0.327997 0.930063 -0.381593
C62   C     C_3   0.065583 0.505690 0.969228 -0.736386
H9    H     H_    0.015947 0.570052 0.948763 0.228494
H10   H     H_    0.066976 0.477950 0.024707 0.228286
H11   H     H_    0.106983 0.604583 0.962640 0.217790
H12   H     H_    0.126881 0.270705 0.945229 0.172340
H13   H     H_    0.072114 0.363749 0.874922 0.178039
C63   C     C_3   0.928040 0.660849 0.066949 -0.363144
C64   C     C_3   0.864307 0.740575 0.091211 -0.763846
H14   H     H_    0.878025 0.807305 0.142035 0.229079
H15   H     H_    0.839207 0.844303 0.054496 0.221577
H16   H     H_    0.827440 0.627480 0.096116 0.216167
H17   H     H_    0.914436 0.583459 0.018324 0.178325
H18   H     H_    0.950048 0.556042 0.105111 0.179543
C65   C     C_3   0.425075 0.827997 0.569937 -0.381594
C66   C     C_3   0.434416 0.005690 0.530772 -0.736384
H19   H     H_    0.484053 0.070052 0.551237 0.228493
H20   H     H_    0.433024 0.977950 0.475293 0.228286
H21   H     H_    0.393017 0.104583 0.537360 0.217790
H22   H     H_    0.373119 0.770705 0.554771 0.172341
H23   H     H_    0.427885 0.863748 0.625078 0.178039
C67   C     C_3   0.571959 0.160848 0.433051 -0.363143
C68   C     C_3   0.635693 0.240574 0.408789 -0.763846
H24   H     H_    0.621975 0.307301 0.357965 0.229079
H25   H     H_    0.660793 0.344304 0.445503 0.221577
H26   H     H_    0.672560 0.127478 0.403885 0.216167
H27   H     H_    0.585563 0.083459 0.481677 0.178325
H28   H     H_    0.549952 0.056041 0.394889 0.179544
H29   H     H_    0.563421 0.268955 0.844257 0.118546
H30   H     H_    0.434901 0.726257 0.153420 0.119646
H31   H     H_    0.936579 0.768955 0.655743 0.118546
H32   H     H_    0.065099 0.226257 0.346580 0.119646
H33   H     H_    0.666451 0.789928 0.934705 0.135879
H34   H     H_    0.337837 0.220990 0.070092 0.137661
H35   H     H_    0.833549 0.289928 0.565295 0.135879
H36   H     H_    0.162162 0.720990 0.429908 0.137662
C69   C     C_3   0.648816 0.621836 0.051276 -0.382417
C70   C     C_3   0.641735 0.443829 0.009804 -0.722861
H37   H     H_    0.599883 0.359279 0.025358 0.235390
H38   H     H_    0.630826 0.474298 0.954184 0.230552
H39   H     H_    0.689823 0.363237 0.019936 0.213522
H40   H     H_    0.695520 0.697554 0.042609 0.173183
H41   H     H_    0.657005 0.585007 0.106570 0.178192
C71   C     C_3   0.370388 0.436263 0.970732 -0.342602
C72   C     C_3   0.301069 0.377565 0.932612 -0.766295
H42   H     H_    0.305853 0.340249 0.878927 0.229663
H43   H     H_    0.280360 0.257189 0.957697 0.220565
H44   H     H_    0.264452 0.493974 0.931961 0.218225
H45   H     H_    0.365464 0.486218 0.022975 0.177549
H46   H     H_    0.388180 0.557894 0.943719 0.182918
C73   C     C_3   0.851184 0.121837 0.448724 -0.382417
C74   C     C_3   0.858265 0.943828 0.490196 -0.722860
H47   H     H_    0.900117 0.859279 0.474642 0.235390
H48   H     H_    0.869174 0.974298 0.545816 0.230551
H49   H     H_    0.810177 0.863236 0.480064 0.213522
H50   H     H_    0.804480 0.197554 0.457391 0.173183
H51   H     H_    0.842995 0.085007 0.393429 0.178192
C75   C     C_3   0.129612 0.936263 0.529268 -0.342602
C76   C     C_3   0.198931 0.877565 0.567388 -0.766294
H52   H     H_    0.194147 0.840251 0.621073 0.229663
H53   H     H_    0.219640 0.757188 0.542303 0.220565
H54   H     H_    0.235548 0.993974 0.568038 0.218224
H55   H     H_    0.134536 0.986218 0.477024 0.177549
H56   H     H_    0.111820 0.057894 0.556281 0.182918
H57   H     H_    0.539369 0.621011 0.116342 0.126334
H58   H     H_    0.466615 0.395081 0.889815 0.126426
H59   H     H_    0.960631 0.121012 0.383657 0.126334
H60   H     H_    0.033384 0.895081 0.610185 0.126427

loop_
_geom_bond_atom_site_label_1
_geom_bond_atom_site_label_2
_ccdc_geom_bond_type
O17   V3    S    
C24   H3    S    
C55   C59   A    
C30   C34   A    
C61   C62   S    
O19   V1    S    
O13   V1    S    
C45   C46   A    
O3    C7    A    
C44   C48   A    
O15   V3    S    
C67   C68   S    
C5    C12   S    
O1    C5    A    
C6    C11   S    
C72   H43   S    
C63   H17   S    
C64   H14   S    
C9    C18   A    
C36   C40   A    
O9    V1    S    
C14   C18   A    
C52   C59   A    
O4    C8    A    
C73   C74   S    
O1    V3    S    
C66   H19   S    
C12   C23   A    
O2    V4    S    
C65   H22   S    
C76   H54   S    
C32   H32   S    
C65   H23   S    
C71   H46   S    
C69   H41   S    
C1    O15   A    
C16   C67   S    
C2    O16   A    
C68   H25   S    
C42   C46   A    
C73   H51   S    
C65   C66   S    
C41   C45   A    
C70   H38   S    
O14   V2    S    
C61   H13   S    
C43   C55   A    
C67   H27   S    
C40   C44   A    
C7    C10   S    
O11   C7    A    
C17   H6    S    
C76   H52   S    
C64   H15   S    
C75   H56   S    
C76   H53   S    
C54   C71   S    
C9    C22   A    
C10   C17   A    
C57   H57   S    
O10   V2    S    
C74   H49   S    
C11   C24   A    
C51   C60   A    
O5    V1    S    
C31   H31   S    
C73   H50   S    
C72   H44   S    
C35   C39   A    
C30   H30   S    
O7    V3    S    
C34   C38   A    
C13   C61   S    
C27   C28   A    
O8    V4    S    
C29   C49   A    
C74   H48   S    
C31   C51   A    
C14   C25   A    
O18   V4    S    
C74   H47   S    
C23   C27   A    
C62   H11   S    
C54   C58   A    
O11   V3    S    
O4    V2    S    
C38   H34   S    
C37   H33   S    
O7    C3    A    
C47   C48   A    
O2    C6    A    
C71   H45   S    
C8    C9    S    
C39   H35   S    
C4    C34   S    
C53   C69   S    
C21   C25   A    
O8    C4    A    
C68   H26   S    
O9    C5    A    
C10   C21   A    
C62   H10   S    
C11   C20   A    
C58   H58   S    
C44   C56   A    
C20   H7    S    
C50   C57   A    
C14   C63   S    
O6    V2    S    
C43   C47   A    
C49   C58   A    
C64   H16   S    
C75   H55   S    
C70   H39   S    
C69   C70   S    
O16   V4    S    
C40   H36   S    
C3    O13   A    
C32   C52   A    
C1    C35   S    
C31   C35   A    
C2    C36   S    
C48   C52   A    
O5    C1    A    
C71   C72   S    
C3    C33   S    
C21   H2    S    
C15   C65   S    
C15   C19   A    
C29   C33   A    
O12   V4    S    
C16   C27   A    
C72   H42   S    
C22   C26   A    
C63   H18   S    
C19   H8    S    
C66   H21   S    
C32   C36   A    
C18   H5    S    
O10   C6    A    
O20   V2    S    
C70   H37   S    
C55   C73   S    
C13   C26   A    
O3    V1    S    
C38   C42   A    
C56   C60   A    
C59   H59   S    
C37   C41   A    
C22   H1    S    
C63   C64   S    
C66   H20   S    
C15   C28   A    
C39   C43   A    
C60   H60   S    
C13   C17   A    
C62   H9    S    
C42   C54   A    
C67   H28   S    
C41   C53   A    
O6    C2    A    
C30   C50   A    
C29   H29   S    
C69   H40   S    
C33   C37   A    
C16   C20   A    
O12   C8    A    
C25   C26   A    
C46   C50   A    
C4    O14   A    
C45   C49   A    
C75   C76   S    
C12   C19   A    
C24   C28   A    
C47   C51   A    
C61   H12   S    
C53   C57   A    
C68   H24   S    
C23   H4    S    
C56   C75   S    
