data_mof_unit_48671.cif
_audit_creation_date              2012-10-26T19:58:19-0400
_audit_creation_method            fapswitch 2.2
_symmetry_space_group_name_H-M    P1
_symmetry_Int_Tables_number       1
_space_group_crystal_system       triclinic
_cell_length_a                    7.478243
_cell_length_b                    8.693224
_cell_length_c                    13.571297
_cell_angle_alpha                 94.755478
_cell_angle_beta                  79.377745
_cell_angle_gamma                 102.54533
_cell_volume                      845.602886129

loop_
_atom_site_label
_atom_site_type_symbol
_atom_type_description
_atom_site_fract_x
_atom_site_fract_y
_atom_site_fract_z
_atom_type_partial_charge
C1    C     C_R   0.545226 0.799909 0.502522 0.537993
C2    C     C_R   0.352174 0.429313 0.798581 -0.005559
C3    C     C_2   0.570867 0.967654 0.504054 -0.169008
C4    C     C_R   0.402308 0.474568 0.692101 0.527230
C5    C     C_2   0.433797 0.032564 0.489116 -0.167422
C6    C     C_R   0.456266 0.200130 0.495010 0.537716
C7    C     C_R   0.597982 0.511026 0.307484 0.542063
C8    C     C_R   0.883764 0.596491 0.054650 -0.137415
C9    C     C_R   0.651715 0.522518 0.199548 0.001934
C10   C     C_R   0.166747 0.363721 0.836098 -0.165308
C11   C     C_R   0.110635 0.332114 0.937124 -0.150910
C12   C     C_R   0.426251 0.436411 0.969092 0.031316
C13   C     C_R   0.235861 0.373998 0.003824 -0.127280
C14   C     C_3   0.981506 0.724036 0.651845 0.069908
C15   C     C_3   0.096501 0.882642 0.682318 -0.288241
C16   C     C_3   0.042364 0.925169 0.793512 -0.492228
C17   C     C_R   0.486797 0.448471 0.863900 0.034916
C18   C     C_R   0.560517 0.483858 0.034339 0.026718
C19   C     C_R   0.749547 0.542669 0.993271 0.051531
C20   C     C_R   0.806629 0.536071 0.890963 -0.167326
C21   C     C_R   0.680409 0.476029 0.828463 -0.142073
C22   C     C_R   0.514927 0.475183 0.138747 -0.134867
C23   C     C_R   0.835497 0.584731 0.157458 -0.141882
Cu1   Cu    Cu3+1 0.321300 0.483160 0.488710 0.997417
Cu2   Cu    Cu3+1 0.678700 0.516840 0.511290 0.975751
H1    H     H_    0.941546 0.624283 0.203866 0.139515
H2    H     H_    0.741979 0.442560 0.754255 0.148590
H3    H     H_    0.703105 0.038155 0.518850 0.130007
H4    H     H_    0.005610 0.632536 0.697134 0.129348
H5    H     H_    0.833014 0.732267 0.667150 0.169612
H6    H     H_    0.246016 0.877038 0.667357 0.175212
H7    H     H_    0.075415 0.976517 0.637433 0.166654
H8    H     H_    0.892824 0.930771 0.811881 0.152889
H9    H     H_    0.126935 0.041696 0.811832 0.166198
H10   H     H_    0.071324 0.837690 0.840202 0.148338
H11   H     H_    0.302221 0.962040 0.473530 0.161587
H12   H     H_    0.980924 0.356332 0.440731 0.196193
H13   H     H_    0.952226 0.568946 0.859643 0.105837
H14   H     H_    0.027518 0.643110 0.022719 0.121361
H15   H     H_    0.374544 0.430168 0.174634 0.122281
H16   H     H_    0.064141 0.336201 0.786945 0.125260
H17   H     H_    0.179210 0.353372 0.081592 0.106350
H18   H     H_    0.966616 0.280232 0.964778 0.136911
N1    N     N_2   0.947230 0.542220 0.528320 0.021978
N2    N     N_2   0.052770 0.457780 0.471680 -0.188405
O1    O     O_R   0.383920 0.714220 0.492660 -0.441941
O2    O     O_R   0.685730 0.742660 0.511730 -0.491036
O3    O     O_R   0.275440 0.478800 0.636790 -0.502781
O4    O     O_R   0.577250 0.507240 0.655860 -0.549171
O5    O     O_R   0.314270 0.257340 0.488270 -0.517237
O6    O     O_R   0.616080 0.285780 0.507340 -0.528533
O7    O     O_R   0.422750 0.492760 0.344140 -0.510762
O8    O     O_R   0.724560 0.521200 0.363210 -0.507879
O9    O     O_3   0.038925 0.688805 0.549536 -0.431347

loop_
_geom_bond_atom_site_label_1
_geom_bond_atom_site_label_2
_ccdc_geom_bond_type
C12   C17   A    
Cu1   O7    S    
C2    C4    S    
Cu1   Cu2   S    
Cu2   O6    S    
C11   H18   S    
C16   H9    S    
C8    H14   S    
C16   H8    S    
C20   H13   S    
Cu2   O2    S    
C19   C20   A    
C4    O4    A    
C3    C5    D    
C22   H15   S    
C21   H2    S    
Cu1   O1    S    
C15   H7    S    
C6    O5    A    
C2    C17   A    
C15   H6    S    
C12   C13   A    
C11   C13   A    
C14   H5    S    
Cu1   N2    S    
Cu2   N1    S    
C1    O2    A    
C13   H17   S    
C14   O9    S    
Cu2   O8    S    
C7    O7    A    
C16   H10   S    
Cu1   O5    S    
C5    C6    S    
C6    O6    A    
Cu2   O4    S    
C1    O1    A    
C8    C19   A    
C10   C11   A    
C7    O8    A    
C14   H4    S    
H12   N2    S    
C15   C16   S    
Cu1   O3    S    
C5    H11   S    
N1    O9    S    
C8    C23   A    
C20   C21   A    
C18   C19   A    
C4    O3    A    
C23   H1    S    
C12   C18   A    
C7    C9    S    
C14   C15   S    
C3    H3    S    
C9    C23   A    
C1    C3    S    
C18   C22   A    
C17   C21   A    
N1    N2    D    
C9    C22   A    
C10   H16   S    
C2    C10   A    
