data_mof_unit_15533.cif
_audit_creation_date              2012-12-10T20:44:47-0500
_audit_creation_method            fapswitch 2.2
_symmetry_space_group_name_H-M    P1
_symmetry_Int_Tables_number       1
_space_group_crystal_system       triclinic
_cell_length_a                    9.851507
_cell_length_b                    10.744895
_cell_length_c                    16.622225
_cell_angle_alpha                 88.95686
_cell_angle_beta                  94.485288
_cell_angle_gamma                 90.633959
_cell_volume                      1753.75780434

loop_
_atom_site_label
_atom_site_type_symbol
_atom_type_description
_atom_site_fract_x
_atom_site_fract_y
_atom_site_fract_z
_atom_type_partial_charge
C1    C     C_R   0.498508 0.259743 0.499505 0.962331
C2    C     C_R   0.654698 0.542132 0.783738 -0.199267
C3    C     C_R   0.545360 0.660662 0.150864 -0.022808
C4    C     C_R   0.559234 0.619419 0.231000 -0.271775
C5    C     C_R   0.440904 0.607712 0.099087 0.235260
C6    C     C_R   0.470055 0.529332 0.259908 -0.126367
C7    C     C_R   0.361953 0.480708 0.208563 -0.066216
C8    C     C_R   0.347584 0.523198 0.128694 -0.216572
C9    C     C_R   0.619679 0.065175 0.509948 0.078448
C10   C     C_R   0.495554 0.127218 0.505489 -0.218393
C11   C     C_R   0.372649 0.058955 0.511806 0.433924
C12   C     C_R   0.517950 0.500721 0.654167 0.911570
C13   C     C_R   0.377868 0.931099 0.516479 -0.253166
C14   C     C_R   0.501391 0.870604 0.510353 -0.172877
C15   C     C_R   0.622713 0.937900 0.512289 0.129893
C16   C     C_3   0.734529 0.932565 0.456734 -0.448019
C17   C     C_3   0.730609 0.073397 0.453304 -0.391932
C18   C     C_R   0.076677 0.417882 0.548323 0.296924
C19   C     C_R   0.065985 0.573401 0.447517 -0.117145
C20   C     C_R   0.921955 0.573626 0.447627 -0.096218
C21   C     C_R   0.933502 0.417133 0.547727 0.096698
C22   C     C_3   0.937196 0.408776 0.637411 -0.380468
C23   C     C_R   0.500710 0.739704 0.501522 0.897605
C24   C     C_3   0.092179 0.412792 0.638400 0.111056
C25   C     C_R   0.482104 0.502973 0.346174 0.918108
C26   C     C_R   0.529176 0.514153 0.741823 -0.054543
C27   C     C_R   0.412002 0.506109 0.783488 -0.161733
C28   C     C_R   0.418522 0.527044 0.865125 -0.155172
C29   C     C_R   0.543151 0.557312 0.907718 0.266060
C30   C     C_R   0.664142 0.562005 0.867272 -0.056202
H1    H     H_    0.637647 0.660300 0.272049 0.192796
H2    H     H_    0.283014 0.879415 0.518441 0.206264
H3    H     H_    0.830268 0.895478 0.487557 0.224015
H4    H     H_    0.701871 0.888810 0.398130 0.204048
H5    H     H_    0.824978 0.117729 0.480882 0.265605
H6    H     H_    0.694681 0.111625 0.392812 0.206410
H7    H     H_    0.115780 0.634571 0.406337 0.162077
H8    H     H_    0.862837 0.635138 0.406624 0.155468
H9    H     H_    0.896696 0.493788 0.663505 0.143436
H10   H     H_    0.135481 0.501094 0.663320 0.105209
H11   H     H_    0.744938 0.550527 0.751119 0.192885
H12   H     H_    0.325527 0.517564 0.895546 0.179123
H13   H     H_    0.270124 0.482595 0.086896 0.192381
H14   H     H_    0.314429 0.484196 0.753298 0.195420
N1    N     N_2   0.547828 0.570484 0.992116 -0.106272
N2    N     N_2   0.442388 0.616938 0.014999 -0.151201
N3    N     N_R   0.142860 0.499130 0.500540 -0.137527
N4    N     N_R   0.857210 0.499170 0.500530 -0.122633
O1    O     O_R   0.614690 0.316790 0.499990 -0.622932
O2    O     O_R   0.385350 0.316760 0.500000 -0.527517
O3    O     O_R   0.627460 0.498860 0.616130 -0.629382
O4    O     O_R   0.398120 0.498820 0.616130 -0.614794
O5    O     O_R   0.614650 0.683240 0.500000 -0.625569
O6    O     O_R   0.385310 0.683210 0.500010 -0.636364
O7    O     O_R   0.601880 0.501180 0.383870 -0.619277
O8    O     O_R   0.372540 0.501140 0.383870 -0.598760
Zn1   Zn    Zn3+2 0.653130 0.500020 0.499990 0.964905
Zn2   Zn    Zn3+2 0.346870 0.499980 0.500010 1.022065
C31   C     C_2   0.873286 0.289737 0.666758 1.099467
O9    O     O_2   0.799969 0.292863 0.722670 -0.620321
O10   O     O_R   0.896485 0.176659 0.630046 -0.750867
H15   H     H_    0.846955 0.104246 0.655051 0.344632
C32   C     C_2   0.639890 0.758387 0.122929 0.984806
O11   O     O_2   0.611611 0.816857 0.060140 -0.576808
O12   O     O_R   0.760849 0.785406 0.169387 -0.809420
H16   H     H_    0.816375 0.853741 0.144291 0.357919
Cl1   Cl    Cl    0.181298 0.277153 0.676760 -0.494279
C33   C     C_2   0.800176 0.588742 0.909913 0.960563
O13   O     O_2   0.902451 0.588471 0.872604 -0.624881
O14   O     O_R   0.812826 0.614120 0.992386 -0.765262
H17   H     H_    0.910536 0.630655 0.013631 0.359436
C34   C     C_2   0.267787 0.380940 0.234112 0.942263
O15   O     O_2   0.305869 0.304225 0.286067 -0.609799
O16   O     O_R   0.136057 0.372317 0.196485 -0.787147
H18   H     H_    0.081803 0.300325 0.218425 0.359806
Cl2   Cl    Cl    0.207123 0.122147 0.503829 -0.518992

loop_
_geom_bond_atom_site_label_1
_geom_bond_atom_site_label_2
_ccdc_geom_bond_type
C32   O12   S    
C18   C21   A    
C13   H2    S    
C19   C20   A    
C8    H13   S    
C18   N3    A    
N4    Zn1   S    
N1    N2    D    
C26   C27   A    
C18   C24   S    
C28   C29   A    
C11   Cl2   S    
O6    Zn2   S    
C19   N3    A    
C6    C25   S    
C2    H11   S    
C15   C16   S    
O1    Zn1   S    
C19   H7    S    
C24   Cl1   S    
C16   H4    S    
C27   H14   S    
C16   C17   S    
C25   O8    A    
O14   H17   S    
O3    Zn1   S    
C17   H6    S    
C1    O2    A    
C21   N4    A    
C31   O9    D    
C21   C22   S    
C12   O4    A    
C23   O5    A    
C31   O10   S    
O16   H18   S    
O2    Zn2   S    
C7    C8    A    
C4    C6    A    
C7    C34   S    
O5    Zn1   S    
C33   O13   D    
C29   N1    S    
C14   C23   S    
C29   C30   A    
C16   H3    S    
C20   H8    S    
C2    C26   A    
C20   N4    A    
O4    Zn2   S    
C34   O16   S    
O7    Zn1   S    
C22   C24   S    
C3    C4    A    
C22   C31   S    
C12   O3    A    
C23   O6    A    
C9    C10   A    
C9    C17   S    
C1    C10   S    
C25   O7    A    
C34   O15   D    
C3    C5    A    
C5    C8    A    
C6    C7    A    
C3    C32   S    
C5    N2    S    
C2    C30   A    
C9    C15   A    
N3    Zn2   S    
C11   C13   A    
C22   H9    S    
C28   H12   S    
C24   H10   S    
O8    Zn2   S    
O10   H15   S    
C4    H1    S    
C10   C11   A    
C32   O11   D    
C33   O14   S    
O12   H16   S    
C12   C26   S    
C27   C28   A    
C14   C15   A    
C17   H5    S    
C13   C14   A    
C1    O1    A    
C30   C33   S    
