data_mof_unit_15780.cif
_audit_creation_date              2012-12-10T19:05:55-0500
_audit_creation_method            fapswitch 2.2
_symmetry_space_group_name_H-M    P1
_symmetry_Int_Tables_number       1
_space_group_crystal_system       triclinic
_cell_length_a                    19.368797
_cell_length_b                    10.779313
_cell_length_c                    9.55511
_cell_angle_alpha                 89.899282
_cell_angle_beta                  90.166966
_cell_angle_gamma                 90.068048
_cell_volume                      1994.92513664

loop_
_atom_site_label
_atom_site_type_symbol
_atom_type_description
_atom_site_fract_x
_atom_site_fract_y
_atom_site_fract_z
_atom_type_partial_charge
C1    C     C_R   0.499481 0.262548 0.499802 0.874982
C2    C     C_R   0.291405 0.501347 0.499687 -0.285758
C3    C     C_R   0.929598 0.505527 0.504205 0.386072
C4    C     C_R   0.069646 0.507901 0.504812 0.495441
C5    C     C_R   0.816790 0.491661 0.628984 -0.143331
C6    C     C_R   0.744858 0.490483 0.627941 -0.127172
C7    C     C_R   0.708444 0.500390 0.501116 -0.056186
C8    C     C_R   0.745246 0.511192 0.375375 -0.121337
C9    C     C_R   0.817147 0.513315 0.376497 -0.142059
C10   C     C_R   0.853599 0.503547 0.503301 0.054426
C11   C     C_R   0.445825 0.063239 0.562813 -0.056358
C12   C     C_R   0.367441 0.499685 0.499765 0.895725
C13   C     C_R   0.498258 0.129280 0.496200 -0.250041
C14   C     C_R   0.544929 0.064682 0.410463 0.602348
C15   C     C_R   0.544907 0.935099 0.410909 -0.264943
C16   C     C_R   0.498386 0.870408 0.496634 -0.225076
C17   C     C_R   0.446034 0.935835 0.563324 0.012812
C18   C     C_3   0.416642 0.929118 0.707304 0.463495
C19   C     C_3   0.415720 0.070999 0.706103 0.259669
C20   C     C_R   0.505892 0.608699 0.073382 0.057534
C21   C     C_R   0.488454 0.394194 0.074326 0.026067
C22   C     C_R   0.488946 0.394136 0.926120 -0.049899
C23   C     C_R   0.499685 0.737369 0.499736 0.862568
C24   C     C_R   0.506203 0.608571 0.925983 0.050750
C25   C     C_3   0.565229 0.697723 0.920836 0.432085
C26   C     C_3   0.564173 0.699263 0.079631 0.407990
C27   C     C_R   0.632513 0.499945 0.500214 0.824649
C28   C     C_R   0.256052 0.516934 0.626178 -0.345163
C29   C     C_R   0.184100 0.523302 0.629226 0.402518
C30   C     C_R   0.145923 0.507718 0.504034 -0.272198
C31   C     C_R   0.181598 0.491033 0.377114 0.511044
C32   C     C_R   0.253495 0.488583 0.374832 0.532012
Cu1   Cu    Cu3+1 0.500000 0.499980 0.640670 1.005761
Cu2   Cu    Cu3+1 0.500000 0.500020 0.359330 1.055245
H1    H     H_    0.284237 0.525443 0.723701 0.207646
H2    H     H_    0.583305 0.885753 0.350530 0.194446
H3    H     H_    0.452162 0.888108 0.786000 -0.005429
H4    H     H_    0.452068 0.114092 0.782641 -0.011405
H5    H     H_    0.479862 0.307676 0.128651 0.142347
H6    H     H_    0.481734 0.307562 0.872177 0.116249
H7    H     H_    0.551992 0.788147 0.872090 0.000236
H8    H     H_    0.549012 0.790117 0.124664 0.013090
H9    H     H_    0.843471 0.484144 0.728380 0.168996
H10   H     H_    0.717864 0.481550 0.726539 0.211531
H11   H     H_    0.718612 0.518344 0.275973 0.225690
H12   H     H_    0.844101 0.521836 0.277811 0.171421
N1    N     N_R   0.033699 0.539143 0.387898 -0.141937
N2    N     N_R   0.965074 0.537841 0.387490 -0.225150
N3    N     N_R   0.965456 0.474611 0.621376 -0.235142
N4    N     N_R   0.034123 0.475511 0.621528 -0.180612
N5    N     N_R   0.500440 0.500930 0.147930 -0.143297
N6    N     N_R   0.500440 0.500890 0.852020 -0.144785
O1    O     O_R   0.500000 0.319640 0.618810 -0.612815
O2    O     O_R   0.500010 0.319680 0.381230 -0.562363
O3    O     O_R   0.400140 0.499970 0.618830 -0.599379
O4    O     O_R   0.400150 0.500010 0.381250 -0.529269
O5    O     O_R   0.499990 0.680320 0.618770 -0.582299
O6    O     O_R   0.500000 0.680360 0.381190 -0.584435
O7    O     O_R   0.599850 0.499990 0.618750 -0.535886
O8    O     O_R   0.599860 0.500030 0.381170 -0.524026
F1    F     F_    0.351345 0.876605 0.706505 -0.637320
O9    O     O_3   0.347790 0.119014 0.699418 -0.530111
C33   C     C_3   0.333402 0.188494 0.820778 0.078096
H13   H     H_    0.363206 0.276680 0.818142 0.140471
H14   H     H_    0.346539 0.135173 0.917420 0.132759
C34   C     C_3   0.256491 0.219517 0.823765 -0.372949
H15   H     H_    0.241818 0.267756 0.725273 0.243071
H16   H     H_    0.226106 0.132282 0.830774 0.235149
C35   C     C_3   0.238788 0.302161 0.948183 -0.709888
H17   H     H_    0.251505 0.254248 0.047996 0.264928
H18   H     H_    0.182719 0.323452 0.946900 0.294594
H19   H     H_    0.267957 0.390810 0.942502 0.267444
F2    F     F_    0.624470 0.644089 0.867351 -0.593688
F3    F     F_    0.623120 0.648734 0.138692 -0.603296
O10   O     O_3   0.151735 0.539725 0.756733 -0.573760
C36   C     C_3   0.139008 0.667544 0.778944 0.095674
H20   H     H_    0.089929 0.675127 0.838201 0.191228
H21   H     H_    0.131301 0.721444 0.680122 0.125843
C37   C     C_3   0.197017 0.725395 0.866732 -0.335160
H22   H     H_    0.204136 0.670848 0.964549 0.260598
H23   H     H_    0.246077 0.723584 0.807103 0.257625
C38   C     C_3   0.180788 0.859729 0.904174 -0.817282
H24   H     H_    0.173703 0.915772 0.807563 0.261672
H25   H     H_    0.224243 0.899621 0.965418 0.267549
H26   H     H_    0.133107 0.864570 0.968247 0.254612
F4    F     F_    0.147094 0.473832 0.254720 -0.611834
F5    F     F_    0.285568 0.471469 0.250165 -0.639448
F6    F     F_    0.593089 0.126289 0.334114 -0.653672

loop_
_geom_bond_atom_site_label_1
_geom_bond_atom_site_label_2
_ccdc_geom_bond_type
Cu1   O3    S    
C23   O6    A    
C34   H16   S    
C33   H14   S    
C24   N6    A    
C36   C37   S    
O10   C36   S    
C2    C12   S    
C3    N3    A    
C7    C8    A    
Cu1   N6    S    
Cu2   O4    S    
C11   C19   S    
Cu2   N5    S    
O9    C33   S    
C28   C29   A    
C18   H3    S    
C36   H21   S    
C20   N5    A    
C27   O8    A    
C30   C31   A    
C34   C35   S    
C19   O9    S    
C15   C16   A    
C3    N2    A    
C7    C27   S    
C2    C32   A    
C18   C19   S    
C35   H18   S    
C1    O1    A    
C8    H11   S    
C31   C32   A    
C28   H1    S    
C8    C9    A    
C9    C10   A    
C34   H15   S    
C5    H9    S    
C33   C34   S    
C9    H12   S    
Cu1   O7    S    
C31   F4    S    
C6    H10   S    
C21   C22   A    
Cu2   O8    S    
Cu1   Cu2   S    
Cu1   O1    S    
C20   C24   A    
C36   H20   S    
C25   H7    S    
C37   H23   S    
C16   C17   A    
C25   C26   S    
C32   F5    S    
C38   H24   S    
C33   H13   S    
C4    N4    A    
C35   H19   S    
C1    O2    A    
C29   C30   A    
C19   H4    S    
N1    N2    A    
C21   H5    S    
C22   H6    S    
C17   C18   S    
C24   C25   S    
C12   O4    A    
Cu2   O2    S    
C16   C23   S    
C38   H25   S    
C1    C13   S    
C15   H2    S    
C21   N5    A    
C26   H8    S    
C22   N6    A    
C23   O5    A    
C11   C17   A    
Cu1   O5    S    
C37   C38   S    
C18   F1    S    
C6    C7    A    
C29   O10   S    
C38   H26   S    
C14   F6    S    
C5    C10   A    
C3    C10   S    
C27   O7    A    
C11   C13   A    
C5    C6    A    
C20   C26   S    
C26   F3    S    
C25   F2    S    
C35   H17   S    
C12   O3    A    
C37   H22   S    
N3    N4    A    
Cu2   O6    S    
C14   C15   A    
C2    C28   A    
C13   C14   A    
C4    C30   S    
C4    N1    A    
