data_mof_unit_50239.cif
_audit_creation_date              2012-12-10T17:17:23-0500
_audit_creation_method            fapswitch 2.2
_symmetry_space_group_name_H-M    P1
_symmetry_Int_Tables_number       1
_space_group_crystal_system       triclinic
_cell_length_a                    10.178281
_cell_length_b                    10.736408
_cell_length_c                    12.481603
_cell_angle_alpha                 90.455554
_cell_angle_beta                  110.013079
_cell_angle_gamma                 96.015336
_cell_volume                      1273.14450394

loop_
_atom_site_label
_atom_site_type_symbol
_atom_type_description
_atom_site_fract_x
_atom_site_fract_y
_atom_site_fract_z
_atom_type_partial_charge
C1    C     C_R   0.054875 0.732985 0.497446 0.920077
C2    C     C_R   0.221524 0.580136 0.827971 -0.266846
C3    C     C_2   0.095494 0.866484 0.510014 -0.409635
C4    C     C_R   0.138907 0.530710 0.710790 0.885886
C5    C     C_2   0.027789 0.936355 0.557873 -0.150514
C6    C     C_2   0.931994 0.135109 0.533704 0.286188
C7    C     C_2   0.041699 0.069692 0.548069 -0.257362
C8    C     C_2   0.430547 0.519412 0.498683 -0.137390
C9    C     C_2   0.567179 0.488043 0.489878 -0.115594
C10   C     C_R   0.950604 0.267191 0.511546 0.828811
C11   C     C_R   0.864338 0.487738 0.286516 0.873734
C12   C     C_R   0.442251 0.582218 0.984802 0.091454
C13   C     C_R   0.787675 0.509671 0.971629 -0.172442
C14   C     C_R   0.790917 0.494388 0.164888 -0.070539
C15   C     C_R   0.154597 0.614548 0.904294 0.498223
C16   C     C_R   0.230595 0.626371 0.020955 -0.223408
C17   C     C_R   0.371555 0.605528 0.061702 -0.288608
C18   C     C_3   0.710725 0.037887 0.443092 0.077501
C19   C     C_3   0.591649 0.953458 0.463424 -0.313943
C20   C     C_3   0.483045 0.897004 0.351491 -0.980200
C21   C     C_3   0.995632 0.750812 0.816698 0.112473
C22   C     C_3   0.981340 0.847314 0.901632 -0.406057
C23   C     C_R   0.369578 0.588692 0.867397 0.033349
C24   C     C_3   0.948587 0.972033 0.846367 -0.896794
C25   C     C_R   0.582109 0.551826 0.019349 0.096878
C26   C     C_R   0.652243 0.546921 0.939056 0.156092
C27   C     C_R   0.586367 0.580550 0.827803 -0.248393
C28   C     C_R   0.447125 0.604223 0.793166 -0.164002
C29   C     C_R   0.651454 0.519841 0.130222 -0.265661
C30   C     C_R   0.858752 0.486508 0.085119 -0.206561
H1    H     H_    0.966075 0.463840 0.110410 0.165239
H2    H     H_    0.597885 0.514212 0.191267 0.160893
H3    H     H_    0.423918 0.614399 0.153010 0.158130
H4    H     H_    0.179271 0.649276 0.080404 0.160602
H5    H     H_    0.400731 0.637004 0.708669 0.159157
H6    H     H_    0.139421 0.112168 0.539825 0.168076
H7    H     H_    0.758361 0.981644 0.393330 0.147480
H8    H     H_    0.666710 0.118349 0.392634 0.134406
H9    H     H_    0.636282 0.876107 0.518058 0.213992
H10   H     H_    0.538824 0.008900 0.508886 0.223548
H11   H     H_    0.435708 0.972448 0.295728 0.263482
H12   H     H_    0.948850 0.894653 0.591617 0.209267
H13   H     H_    0.398072 0.837001 0.369626 0.265830
H14   H     H_    0.532926 0.838232 0.306131 0.269690
H15   H     H_    0.896333 0.738819 0.742025 0.160508
H16   H     H_    0.080572 0.787075 0.783446 0.113031
H17   H     H_    0.895226 0.811119 0.932887 0.238947
H18   H     H_    0.081083 0.862747 0.975844 0.222144
H19   H     H_    0.034392 0.010839 0.815906 0.272381
H20   H     H_    0.938969 0.040200 0.909885 0.263938
H21   H     H_    0.847764 0.959175 0.773082 0.278569
H22   H     H_    0.174788 0.907856 0.476486 0.160114
H23   H     H_    0.566336 0.408574 0.435276 0.157297
H24   H     H_    0.429998 0.605936 0.543325 0.147782
H25   H     H_    0.682286 0.630449 0.593171 0.140050
H26   H     H_    0.319266 0.364653 0.413770 0.162170
H27   H     H_    0.641688 0.586707 0.767507 0.147494
H28   H     H_    0.837671 0.498205 0.909262 0.208683
N1    N     N_2   0.313640 0.446500 0.454900 -0.189158
N2    N     N_2   0.686360 0.553430 0.545150 -0.191469
O1    O     O_R   0.936910 0.692950 0.509080 -0.620836
O2    O     O_3   0.014091 0.633107 0.866927 -0.663505
O3    O     O_R   0.138320 0.658600 0.480130 -0.617983
O4    O     O_R   0.002900 0.525670 0.675280 -0.569661
O5    O     O_R   0.204310 0.491320 0.646330 -0.604599
O6    O     O_R   0.861680 0.341400 0.519870 -0.575718
O7    O     O_R   0.063090 0.307050 0.490920 -0.634326
O8    O     O_R   0.795690 0.508680 0.353670 -0.616180
O9    O     O_R   0.997100 0.474330 0.324720 -0.607114
O10   O     O_3   0.810249 0.082398 0.549810 -0.640012
Zn1   Zn    Zn3+2 0.865520 0.522940 0.519330 0.944308
Zn2   Zn    Zn3+2 0.134480 0.477060 0.480670 0.926640

loop_
_geom_bond_atom_site_label_1
_geom_bond_atom_site_label_2
_ccdc_geom_bond_type
C12   C17   A    
C18   O10   S    
O9    Zn2   S    
C2    C4    S    
C5    H12   S    
C11   O9    A    
C6    C10   S    
C6    C7    D    
O5    Zn2   S    
C7    H6    S    
C12   C25   A    
C22   H18   S    
C19   C20   S    
H26   N1    S    
N1    Zn2   S    
C3    H22   S    
C9    N2    D    
C16   H4    S    
O1    Zn1   S    
C24   H21   S    
C22   H17   S    
C18   H8    S    
H25   N2    S    
C11   O8    A    
C25   C29   A    
C2    C15   A    
C12   C23   A    
C6    O10   S    
C26   C27   A    
C4    O5    A    
C17   H3    S    
C14   C30   A    
O8    Zn1   S    
C1    O3    A    
C21   C22   S    
C20   H14   S    
C15   O2    S    
C20   H11   S    
C29   H2    S    
C21   H15   S    
C2    C23   A    
C10   O6    A    
C8    N1    D    
C24   H20   S    
C30   H1    S    
C11   C14   S    
C22   C24   S    
C13   C26   A    
C9    H23   S    
C19   H10   S    
C14   C29   A    
C15   C16   A    
C21   H16   S    
C3    C5    D    
C13   C30   A    
C24   H19   S    
C20   H13   S    
O3    Zn2   S    
C19   H9    S    
C18   C19   S    
C27   H27   S    
O4    Zn1   S    
C8    H24   S    
C27   C28   A    
C5    C7    S    
C4    O4    A    
C16   C17   A    
O7    Zn2   S    
C13   H28   S    
N2    Zn1   S    
C21   O2    S    
C25   C26   A    
C10   O7    A    
C18   H7    S    
C23   C28   A    
O6    Zn1   S    
C28   H5    S    
C8    C9    S    
C1    C3    S    
C1    O1    A    
