data_mof_unit_20649.cif
_audit_creation_date              2012-12-11T17:41:19-0500
_audit_creation_method            fapswitch 2.2
_symmetry_space_group_name_H-M    P1
_symmetry_Int_Tables_number       1
_space_group_crystal_system       triclinic
_cell_length_a                    15.505093
_cell_length_b                    14.997619
_cell_length_c                    15.052634
_cell_angle_alpha                 109.759649
_cell_angle_beta                  121.37987
_cell_angle_gamma                 58.923019
_cell_volume                      2547.92915225

loop_
_atom_site_label
_atom_site_type_symbol
_atom_type_description
_atom_site_fract_x
_atom_site_fract_y
_atom_site_fract_z
_atom_type_partial_charge
C1    C     C_R   0.756171 0.992696 0.790935 -0.118235
C2    C     C_R   0.196440 0.062828 0.227329 -0.133971
C3    C     C_R   0.212219 0.299735 0.566234 0.142442
C4    C     C_R   0.863173 0.725533 0.518714 0.149490
C5    C     C_R   0.498434 0.294886 0.423815 0.061136
C6    C     C_R   0.495681 0.675329 0.463309 0.043547
C7    C     C_R   0.495237 0.935594 0.796362 0.061207
C8    C     C_R   0.497347 0.961068 0.174243 0.047657
C9    C     C_R   0.695554 0.605118 0.785905 -0.258559
C10   C     C_R   0.282909 0.294319 0.124860 -0.254896
C11   C     C_R   0.617152 0.691068 0.818297 -0.098192
C12   C     C_R   0.357804 0.200095 0.095964 -0.085161
C13   C     C_R   0.651710 0.746598 0.916701 0.123633
C14   C     C_R   0.321589 0.124171 0.025308 0.120925
C15   C     C_R   0.766081 0.713445 0.983076 -0.232265
C16   C     C_R   0.208289 0.145598 0.979714 -0.250215
C17   C     C_R   0.844634 0.627927 0.950313 -0.020174
C18   C     C_R   0.133600 0.239193 0.009848 -0.060764
C19   C     C_R   0.809910 0.573235 0.851283 0.050156
C20   C     C_R   0.170850 0.313678 0.083917 0.081824
C21   C     C_R   0.569031 0.854708 0.043564 -0.240022
C22   C     C_R   0.400686 0.007063 0.904689 -0.234072
C23   C     C_R   0.243860 0.290063 0.491091 -0.110217
C24   C     C_R   0.800631 0.725290 0.558797 -0.122601
C25   C     C_R   0.488934 0.944875 0.070941 0.062110
C26   C     C_R   0.486205 0.922939 0.880958 0.048723
C27   C     C_R   0.402681 0.021435 0.999912 0.019992
C28   C     C_R   0.568195 0.842331 0.947205 0.025132
C29   C     C_2   0.150824 0.397669 0.613956 -0.205476
C30   C     C_2   0.978558 0.652332 0.537842 -0.217977
C31   C     C_2   0.134696 0.489241 0.599483 -0.101278
C32   C     C_2   0.039360 0.583055 0.608390 -0.108135
C33   C     C_2   0.848012 0.117652 0.898702 -0.208336
C34   C     C_2   0.015672 0.046791 0.155976 -0.223026
C35   C     C_R   0.225131 0.774800 0.554733 -0.113059
C36   C     C_R   0.770143 0.119828 0.319075 -0.120867
C37   C     C_R   0.314496 0.695680 0.532591 -0.132593
C38   C     C_R   0.675458 0.208877 0.323005 -0.133709
C39   C     C_R   0.297028 0.653570 0.428964 0.105280
C40   C     C_R   0.685998 0.292239 0.400531 0.112546
C41   C     C_R   0.188360 0.689341 0.348364 -0.178679
C42   C     C_R   0.793486 0.284881 0.473662 -0.168802
C43   C     C_R   0.099177 0.768340 0.370919 -0.125364
C44   C     C_R   0.888022 0.195826 0.469215 -0.094769
C45   C     C_R   0.591505 0.215764 0.484477 -0.136975
C46   C     C_R   0.405328 0.770986 0.445267 -0.117742
C47   C     C_R   0.117586 0.811197 0.473956 -0.112729
C48   C     C_R   0.876372 0.113377 0.392008 -0.100656
C49   C     C_R   0.391306 0.471680 0.377148 -0.244722
C50   C     C_R   0.581112 0.485731 0.420009 -0.239828
C51   C     C_R   0.491009 0.381431 0.392378 0.047506
C52   C     C_R   0.488645 0.575741 0.428273 0.065267
C53   C     C_R   0.584926 0.386760 0.404376 0.031246
C54   C     C_R   0.391689 0.568360 0.405587 0.030320
C55   C     C_2   0.862274 0.104973 0.989996 -0.101913
C56   C     C_2   0.956808 0.115370 0.084966 -0.092243
C57   C     C_R   0.405238 0.986471 0.711776 -0.145916
C58   C     C_R   0.592161 0.951571 0.267596 -0.136826
C59   C     C_R   0.407492 0.284505 0.405791 -0.129805
C60   C     C_R   0.591040 0.693030 0.528436 -0.129089
C61   C     C_R   0.589977 0.915037 0.790882 -0.129505
C62   C     C_R   0.406595 0.016256 0.196203 -0.110224
C63   C     C_R   0.242727 0.199723 0.582828 -0.144354
C64   C     C_R   0.801672 0.815178 0.467902 -0.148365
C65   C     C_R   0.756827 0.084739 0.700607 -0.145436
C66   C     C_R   0.195256 0.971820 0.316210 -0.164291
C67   C     C_R   0.787349 0.068605 0.800620 0.144351
C68   C     C_R   0.132330 0.025170 0.228247 0.158160
H1    H     H_    0.769258 0.959342 0.852530 0.089576
H2    H     H_    0.168670 0.119904 0.178799 0.092984
H3    H     H_    0.982360 0.996848 0.153008 0.129121
H4    H     H_    0.892457 0.153683 0.896814 0.130849
H5    H     H_    0.666867 0.564186 0.709255 0.119942
H6    H     H_    0.312828 0.351459 0.180350 0.122270
H7    H     H_    0.529317 0.715328 0.766093 0.107838
H8    H     H_    0.444336 0.185226 0.129528 0.105011
H9    H     H_    0.794611 0.755700 0.058839 0.117082
H10   H     H_    0.178865 0.088138 0.923967 0.127942
H11   H     H_    0.932424 0.605337 0.001971 0.144040
H12   H     H_    0.047233 0.252758 0.976155 0.138242
H13   H     H_    0.632367 0.795269 0.097633 0.139761
H14   H     H_    0.338383 0.069726 0.854043 0.136871
H15   H     H_    0.008851 0.585376 0.660029 0.134925
H16   H     H_    0.177121 0.492766 0.562651 0.131770
H17   H     H_    0.010103 0.648730 0.486321 0.142917
H18   H     H_    0.107121 0.395184 0.650196 0.143057
H19   H     H_    0.048440 0.872280 0.491245 0.102021
H20   H     H_    0.949625 0.044548 0.388676 0.099061
H21   H     H_    0.231405 0.351493 0.457760 0.093194
H22   H     H_    0.827932 0.674349 0.613371 0.083855
H23   H     H_    0.239231 0.807691 0.634551 0.110913
H24   H     H_    0.761102 0.055911 0.259323 0.104123
H25   H     H_    0.397318 0.667458 0.595753 0.107491
H26   H     H_    0.593937 0.212952 0.265802 0.104946
H27   H     H_    0.173138 0.656620 0.268268 0.115498
H28   H     H_    0.804281 0.347355 0.534894 0.103488
H29   H     H_    0.015766 0.796298 0.308541 0.104172
H30   H     H_    0.970382 0.190653 0.525827 0.106428
H31   H     H_    0.316625 0.469266 0.362826 0.120146
H32   H     H_    0.652006 0.492561 0.430084 0.130745
H33   H     H_    0.677835 0.194108 0.507200 0.111500
H34   H     H_    0.319221 0.788179 0.393564 0.120662
H35   H     H_    0.319108 0.003001 0.684866 0.092286
H36   H     H_    0.677740 0.915110 0.278833 0.097000
H37   H     H_    0.322364 0.321111 0.349130 0.081742
H38   H     H_    0.676640 0.635696 0.559497 0.090105
H39   H     H_    0.675482 0.868344 0.840182 0.104008
H40   H     H_    0.320654 0.034644 0.142460 0.113968
H41   H     H_    0.229626 0.179364 0.635808 0.101304
H42   H     H_    0.832355 0.846248 0.440762 0.092487
H43   H     H_    0.769377 0.138265 0.680155 0.102517
H44   H     H_    0.163835 0.946641 0.348279 0.103678
H45   H     H_    0.989122 0.165330 0.086517 0.136700
H46   H     H_    0.818848 0.068570 0.992831 0.126877
N1    N     N_R   0.705410 0.966550 0.689210 -0.046244
N2    N     N_R   0.294590 0.033450 0.310790 -0.044543
N3    N     N_R   0.294590 0.188320 0.465660 -0.045823
N4    N     N_R   0.705410 0.811680 0.534340 -0.043667
N5    N     N_R   0.556610 0.157790 0.497330 -0.040283
N6    N     N_R   0.443390 0.842210 0.502670 -0.042312
N7    N     N_R   0.443390 0.997080 0.657540 -0.036556
N8    N     N_R   0.556610 0.002920 0.342460 -0.038838
N9    N     N_R   0.443390 0.203250 0.451380 -0.039535
N10   N     N_R   0.556610 0.796750 0.548620 -0.037864
N11   N     N_R   0.556610 0.951620 0.703500 -0.040518
N12   N     N_R   0.443390 0.048380 0.296500 -0.042647
N13   N     N_R   0.294590 0.131500 0.522480 -0.042861
N14   N     N_R   0.705410 0.868500 0.477520 -0.040613
N15   N     N_R   0.705410 0.023370 0.632390 -0.043646
N16   N     N_R   0.294590 0.976630 0.367610 -0.041685
Ni1   Ni    Ni4+2 0.629830 0.882720 0.617850 0.215032
Ni2   Ni    Ni4+2 0.370170 0.117280 0.382150 0.215781
Ni3   Ni    Ni4+2 0.629830 0.013030 0.487540 0.214013
Ni4   Ni    Ni4+2 0.370170 0.986970 0.512460 0.214002
C69   C     C_2   0.891544 0.483518 0.814576 0.475141
H47   H     H_    0.862687 0.441802 0.738268 -0.014968
O1    O     O_2   0.991709 0.455300 0.868558 -0.596632
C70   C     C_2   0.094502 0.411163 0.120146 0.496102
H48   H     H_    0.124076 0.469193 0.174767 -0.022294
O2    O     O_2   0.998151 0.427529 0.090367 -0.594275

loop_
_geom_bond_atom_site_label_1
_geom_bond_atom_site_label_2
_ccdc_geom_bond_type
C33   C55   D    
C66   C68   A    
C55   C56   S    
C34   C56   D    
N9    Ni2   S    
C10   H6    S    
C3    C23   A    
N13   Ni4   S    
C35   C47   A    
C49   C51   A    
C69   H47   S    
C39   C41   A    
N1    Ni1   S    
C46   H34   S    
N5    Ni3   S    
C7    C26   S    
N4    N14   A    
C42   H28   S    
C22   H14   S    
C35   C37   A    
C2    C68   A    
C4    C24   A    
C39   C54   S    
C62   H40   S    
C19   C69   S    
C49   C54   A    
C17   H11   S    
C69   O1    D    
C20   C70   S    
C3    C29   S    
N3    Ni2   S    
C65   H43   S    
N4    Ni1   S    
C33   H4    S    
C8    C58   A    
C2    N2    A    
C9    C19   A    
C7    C61   A    
C10   C20   A    
C64   N14   A    
C50   C52   A    
C56   H45   S    
C48   H20   S    
C13   C28   S    
C14   C27   S    
C18   C20   A    
C36   H24   S    
C40   C42   A    
C15   H9    S    
C38   C40   A    
C8    C25   S    
C41   C43   A    
N16   Ni4   S    
C42   C44   A    
C10   C12   A    
C52   C54   A    
C59   N9    A    
C57   H35   S    
C58   N8    A    
C50   C53   A    
C5    C59   A    
C46   N6    A    
C6    C60   A    
C34   C68   S    
C62   N12   A    
C17   C19   A    
C65   C67   A    
C5    C45   A    
C1    H1    S    
C31   H16   S    
N10   Ni1   S    
C51   C53   A    
C47   H19   S    
N8    N12   A    
N8    Ni3   S    
N7    N11   A    
C49   H31   S    
C9    C11   A    
N11   Ni1   S    
C64   H42   S    
C31   C32   S    
N2    Ni2   S    
N12   Ni2   S    
C38   H26   S    
C23   H21   S    
C37   H25   S    
C59   H37   S    
C30   H17   S    
N3    N13   A    
C29   H18   S    
C45   H33   S    
N15   Ni3   S    
C18   H12   S    
C21   C28   A    
C21   H13   S    
C44   H30   S    
C3    C63   A    
C22   C27   A    
C12   H8    S    
N7    Ni4   S    
C14   C16   A    
C58   H36   S    
C60   H38   S    
C33   C67   S    
N1    N15   A    
C15   C17   A    
C32   H15   S    
C21   C25   A    
C6    C46   A    
C26   C28   A    
C9    H5    S    
C43   H29   S    
C12   C14   A    
N6    Ni4   S    
C24   H22   S    
C23   N3    A    
C65   N15   A    
C60   N10   A    
C70   O2    D    
C55   H46   S    
N5    N9    A    
C25   C27   A    
C4    C64   A    
C24   N4    A    
C6    C52   S    
C13   C15   A    
C29   C31   D    
C11   H7    S    
N14   Ni3   S    
C30   C32   D    
C11   C13   A    
C45   N5    A    
C41   H27   S    
C36   C38   A    
C1    C67   A    
C36   C48   A    
C16   H10   S    
C61   H39   S    
C4    C30   S    
C50   H32   S    
C70   H48   S    
C57   N7    A    
C44   C48   A    
C37   C39   A    
N2    N16   A    
C16   C18   A    
C40   C53   S    
C22   C26   A    
C5    C51   S    
C61   N11   A    
C1    N1    A    
C66   H44   S    
C2    H2    S    
C43   C47   A    
C34   H3    S    
C7    C57   A    
C63   N13   A    
N6    N10   A    
C8    C62   A    
C63   H41   S    
C66   N16   A    
C35   H23   S    
