data_mof_unit_21869.cif
_audit_creation_date              2012-12-11T14:03:26-0500
_audit_creation_method            fapswitch 2.2
_symmetry_space_group_name_H-M    P1
_symmetry_Int_Tables_number       1
_space_group_crystal_system       triclinic
_cell_length_a                    7.026747
_cell_length_b                    11.568979
_cell_length_c                    18.639832
_cell_angle_alpha                 90.130859
_cell_angle_beta                  92.953476
_cell_angle_gamma                 90.159729
_cell_volume                      1513.25151308

loop_
_atom_site_label
_atom_site_type_symbol
_atom_type_description
_atom_site_fract_x
_atom_site_fract_y
_atom_site_fract_z
_atom_type_partial_charge
O1    O     O_R   0.330540 0.606360 0.598870 -0.548978
O2    O     O_R   0.669460 0.106360 0.401130 -0.549146
O3    O     O_R   0.026770 0.620470 0.750430 -0.542797
O4    O     O_R   0.973230 0.120470 0.249570 -0.543221
O5    O     O_R   0.856460 0.393640 0.750930 -0.532159
O6    O     O_R   0.143540 0.893640 0.249070 -0.535246
C1    C     C_R   0.198169 0.648118 0.774103 0.703199
C2    C     C_R   0.802176 0.148554 0.226406 0.700461
O7    O     O_R   0.000920 0.620350 0.599420 -0.548113
O8    O     O_R   0.999080 0.120350 0.400580 -0.548161
O9    O     O_R   0.830430 0.393520 0.598850 -0.495447
O10   O     O_R   0.169570 0.893520 0.401150 -0.496230
C3    C     C_R   0.166581 0.649145 0.575500 0.664665
C4    C     C_R   0.833631 0.149207 0.424514 0.664100
O11   O     O_R   0.356570 0.606480 0.750960 -0.543814
O12   O     O_R   0.643430 0.106480 0.249040 -0.544312
O13   O     O_3   0.176990 0.425580 0.674890 -0.357563
O14   O     O_3   0.823010 0.925580 0.325110 -0.357849
V1    V     V_3+5 0.902170 0.513810 0.674910 1.488133
V2    V     V_3+5 0.097830 0.013810 0.325090 1.486352
O15   O     O_R   0.500800 0.379530 0.599380 -0.548331
O16   O     O_R   0.499200 0.879530 0.400620 -0.547469
C5    C     C_R   0.667004 0.352457 0.574530 0.790937
C6    C     C_R   0.332803 0.852467 0.425415 0.791066
O17   O     O_R   0.526650 0.379650 0.750390 -0.551451
O18   O     O_R   0.473350 0.879650 0.249610 -0.551439
C7    C     C_R   0.698864 0.351258 0.773262 0.674931
C8    C     C_R   0.300457 0.851103 0.226509 0.677877
V3    V     V_3+5 0.402160 0.486190 0.674900 1.457943
V4    V     V_3+5 0.597840 0.986190 0.325100 1.457477
O19   O     O_3   0.677210 0.574420 0.674910 -0.386346
O20   O     O_3   0.322790 0.074420 0.325090 -0.385329
C9    C     C_R   0.732524 0.076783 0.880295 -0.125252
C10   C     C_R   0.214559 0.574914 0.121372 -0.131887
H1    H     H_    0.765545 0.949313 0.996034 0.145243
H2    H     H_    0.184965 0.445205 0.004203 0.160784
H3    H     H_    0.731658 0.984279 0.870545 0.149627
H4    H     H_    0.194190 0.483660 0.131808 0.154787
C11   C     C_R   0.717255 0.271268 0.833849 -0.214638
C12   C     C_R   0.278101 0.768881 0.166499 -0.249062
C13   C     C_R   0.800912 0.349266 0.184200 -0.196316
C14   C     C_R   0.193088 0.848104 0.819780 -0.201040
C15   C     C_R   0.776460 0.432676 0.130954 0.450643
C16   C     C_R   0.176760 0.927880 0.875350 0.445659
C17   C     C_R   0.744922 0.395466 0.059086 -0.269560
C18   C     C_R   0.174040 0.887575 0.946148 -0.248717
C19   C     C_R   0.762050 0.278374 0.038674 0.062875
C20   C     C_R   0.211633 0.771798 0.963604 0.059754
C21   C     C_R   0.778124 0.195135 0.094786 0.042951
C22   C     C_R   0.213310 0.690336 0.906585 0.036155
C23   C     C_R   0.749316 0.240335 0.964775 0.048401
C24   C     C_R   0.237301 0.734024 0.036405 0.055955
C25   C     C_R   0.743782 0.119472 0.950711 -0.048131
C26   C     C_R   0.221212 0.614511 0.050581 -0.071230
C27   C     C_R   0.758962 0.040379 0.007039 -0.188928
C28   C     C_R   0.206222 0.535371 0.993757 -0.175305
C29   C     C_R   0.778046 0.076937 0.077664 -0.156713
C30   C     C_R   0.211103 0.571858 0.922947 -0.134427
C31   C     C_R   0.748463 0.316356 0.904434 0.214631
C32   C     C_R   0.284257 0.810121 0.094908 0.217222
C33   C     C_R   0.713457 0.150604 0.821844 0.342527
C34   C     C_R   0.237663 0.650753 0.179396 0.361261
C35   C     C_R   0.789975 0.231710 0.167314 -0.153722
C36   C     C_R   0.209274 0.729628 0.834568 -0.154233
H5    H     H_    0.822890 0.376540 0.239702 0.143518
H6    H     H_    0.187725 0.878285 0.764715 0.141223
H7    H     H_    0.695893 0.457540 0.020511 0.184092
H8    H     H_    0.135358 0.946949 0.987000 0.183780
H9    H     H_    0.792106 0.011136 0.118790 0.122762
H10   H     H_    0.204478 0.506584 0.881173 0.130163
C37   C     C_2   0.834430 0.239292 0.482064 0.188706
C38   C     C_2   0.165833 0.739097 0.517988 0.188469
C39   C     C_2   0.672443 0.265721 0.515642 -0.347680
C40   C     C_2   0.327406 0.765769 0.484199 -0.346268
H11   H     H_    0.539462 0.222375 0.499784 0.109055
H12   H     H_    0.460287 0.722715 0.499855 0.109326
O21   O     O_3   0.693132 0.100351 0.754466 -0.633533
H13   H     H_    0.682471 0.160376 0.716841 0.277279
O22   O     O_3   0.226126 0.604200 0.247309 -0.628446
H14   H     H_    0.250512 0.664392 0.284387 0.278204
O23   O     O_3   0.804085 0.430290 0.914106 -0.664582
H15   H     H_    0.748737 0.479415 0.875091 0.286802
O24   O     O_3   0.349793 0.920340 0.080312 -0.668217
H16   H     H_    0.398026 0.960674 0.124299 0.292161
O25   O     O_3   0.797566 0.548463 0.151845 -0.557733
C41   C     C_3   0.683519 0.625831 0.109653 0.083976
H17   H     H_    0.638165 0.696437 0.145149 0.153773
H18   H     H_    0.555204 0.582981 0.087323 0.124302
C42   C     C_3   0.793930 0.679410 0.049559 -0.343202
H19   H     H_    0.883652 0.751122 0.071964 0.196723
H20   H     H_    0.879714 0.611611 0.026551 0.250379
C43   C     C_3   0.670607 0.723283 0.986358 -0.834249
H21   H     H_    0.581534 0.652078 0.963049 0.249324
H22   H     H_    0.762828 0.755207 0.943953 0.231255
H23   H     H_    0.581704 0.795406 0.003532 0.263954
O26   O     O_3   0.154555 0.044530 0.859099 -0.560073
C44   C     C_3   0.286009 0.113313 0.901193 0.085603
H24   H     H_    0.355781 0.173761 0.864734 0.144662
H25   H     H_    0.398015 0.061275 0.929709 0.143949
C45   C     C_3   0.185159 0.185183 0.956279 -0.333409
H26   H     H_    0.110187 0.257696 0.928568 0.216576
H27   H     H_    0.086504 0.129663 0.983418 0.231038
C46   C     C_3   0.316273 0.232660 0.016259 -0.836825
H28   H     H_    0.405044 0.162734 0.040652 0.269179
H29   H     H_    0.230472 0.268990 0.059314 0.229287
H30   H     H_    0.403837 0.302543 0.994674 0.231785
O27   O     O_3   0.001802 0.297799 0.501742 -0.623661
H31   H     H_    0.104231 0.275590 0.470019 0.293338
O28   O     O_3   0.998643 0.797215 0.498504 -0.623632
H32   H     H_    0.896393 0.775141 0.530367 0.293810

loop_
_geom_bond_atom_site_label_1
_geom_bond_atom_site_label_2
_ccdc_geom_bond_type
C21   C35   A    
C37   O27   S    
C22   C36   A    
C4    C37   S    
O4    C2    A    
V1    O19   S    
C44   H24   S    
C21   C29   A    
C19   C21   A    
O21   H13   S    
O9    V1    S    
C40   H12   S    
C12   C32   A    
O23   H15   S    
O3    C1    A    
C32   O24   S    
C41   H18   S    
C8    C12   S    
O12   V4    S    
C10   C34   A    
C12   C34   A    
O7    C3    A    
C43   H21   S    
C24   C32   A    
O5    C7    A    
O7    V1    S    
O6    C8    A    
O8    V2    S    
C17   H7    S    
O27   H31   S    
O3    V1    S    
O14   V4    S    
C42   H20   S    
C17   C19   A    
C2    O12   A    
C9    C25   A    
C13   C15   A    
C14   C16   A    
C5    C39   S    
C43   H22   S    
C44   H25   S    
C24   C26   A    
O11   V3    S    
C18   C20   A    
C25   C27   A    
O17   V3    S    
C11   C33   A    
C26   C28   A    
H1    C27   S    
C15   O25   S    
C34   O22   S    
C38   C40   D    
O8    C4    A    
C33   O21   S    
C37   C39   D    
C41   H17   S    
C30   H10   S    
C13   H5    S    
C1    O11   A    
C16   C18   A    
O25   C41   S    
O15   V3    S    
C45   C46   S    
C9    H3    S    
C23   C25   A    
C22   C30   A    
C18   H8    S    
C16   O26   S    
O24   H16   S    
C11   C31   A    
O26   C44   S    
O10   V2    S    
O1    V3    S    
C46   H29   S    
C42   C43   S    
C20   C22   A    
C15   C17   A    
C10   C26   A    
O15   C5    A    
O16   C6    A    
O1    C3    A    
C39   H11   S    
C14   C36   A    
C44   C45   S    
C45   H27   S    
V2    O20   S    
C38   O28   S    
O16   V4    S    
C10   H4    S    
C31   O23   S    
C41   C42   S    
C19   C23   A    
O18   V4    S    
O5    V1    S    
C3    C38   S    
O17   C7    A    
O6    V2    S    
O10   C6    A    
O18   C8    A    
O2    V4    S    
C27   C29   A    
V3    O19   S    
O13   V3    S    
V4    O20   S    
C6    C40   S    
C7    C11   S    
O9    C5    A    
C45   H26   S    
O13   V1    S    
C28   C30   A    
C46   H30   S    
O14   V2    S    
C43   H23   S    
O2    C4    A    
C1    C36   S    
C2    C35   S    
O22   H14   S    
O4    V2    S    
C20   C24   A    
C23   C31   A    
C9    C33   A    
H2    C28   S    
C46   H28   S    
C14   H6    S    
C13   C35   A    
C29   H9    S    
C42   H19   S    
O28   H32   S    
