data_mof_unit_6601.cif
_audit_creation_date              2012-12-10T17:47:42-0500
_audit_creation_method            fapswitch 2.2
_symmetry_space_group_name_H-M    P1
_symmetry_Int_Tables_number       1
_space_group_crystal_system       triclinic
_cell_length_a                    10.62963
_cell_length_b                    10.718407
_cell_length_c                    9.886465
_cell_angle_alpha                 89.765908
_cell_angle_beta                  90.004357
_cell_angle_gamma                 91.734822
_cell_volume                      1125.86597202

loop_
_atom_site_label
_atom_site_type_symbol
_atom_type_description
_atom_site_fract_x
_atom_site_fract_y
_atom_site_fract_z
_atom_type_partial_charge
C1    C     C_R   0.509358 0.260188 0.501231 0.865380
C2    C     C_3   0.878725 0.499619 0.501335 0.183444
C3    C     C_3   0.931608 0.618428 0.428818 -0.405011
C4    C     C_3   0.923999 0.381945 0.427340 -0.399041
C5    C     C_R   0.549383 0.111887 0.756606 -0.209929
C6    C     C_R   0.516698 0.051565 0.878371 0.173777
C7    C     C_R   0.447713 0.939081 0.874004 -0.168482
C8    C     C_R   0.423668 0.881475 0.750217 -0.214278
C9    C     C_R   0.467998 0.936433 0.627897 0.099940
C10   C     C_R   0.512484 0.060158 0.630216 0.072037
C11   C     C_R   0.516598 0.126444 0.505455 -0.121683
C12   C     C_R   0.257691 0.499346 0.500288 0.812044
C13   C     C_R   0.505243 0.063628 0.382358 -0.230858
C14   C     C_R   0.488525 0.936660 0.381268 -0.224884
C15   C     C_R   0.473307 0.872005 0.503234 -0.129150
C16   C     C_R   0.335761 0.335259 0.140946 -0.163920
C17   C     C_R   0.255232 0.253818 0.070890 -0.191895
C18   C     C_R   0.255200 0.253902 0.930911 -0.180277
C19   C     C_R   0.335744 0.335379 0.860264 -0.158968
C20   C     C_R   0.419065 0.418778 0.927925 0.155476
C21   C     C_R   0.419094 0.418774 0.072678 0.168975
C22   C     C_R   0.577199 0.577919 0.071238 -0.135491
C23   C     C_R   0.487613 0.739109 0.500457 0.880962
C24   C     C_R   0.577155 0.577892 0.927936 -0.133417
C25   C     C_R   0.742293 0.500021 0.500292 0.833567
C26   C     C_3   0.071327 0.497060 0.649141 -0.391483
C27   C     C_3   0.928523 0.498094 0.649170 -0.392249
C28   C     C_3   0.076023 0.618558 0.429477 -0.399316
C29   C     C_3   0.068440 0.382193 0.426469 -0.416715
C30   C     C_3   0.121258 0.499251 0.501302 0.196154
H1    H     H_    0.108788 0.579788 0.705849 0.176149
H2    H     H_    0.888839 0.379985 0.321250 0.180115
H3    H     H_    0.111137 0.622841 0.323393 0.180729
H4    H     H_    0.897506 0.621704 0.322396 0.175589
H5    H     H_    0.509846 0.112398 0.286286 0.190126
H6    H     H_    0.606587 0.196735 0.762393 0.159100
H7    H     H_    0.416060 0.894168 0.966803 0.141959
H8    H     H_    0.368925 0.794770 0.751499 0.168701
H9    H     H_    0.488967 0.889298 0.284628 0.171112
H10   H     H_    0.640193 0.641529 0.124940 0.142123
H11   H     H_    0.102357 0.411766 0.702836 0.171737
H12   H     H_    0.329591 0.330038 0.248157 0.202605
H13   H     H_    0.192318 0.190439 0.125751 0.140308
H14   H     H_    0.192429 0.190453 0.876516 0.139466
H15   H     H_    0.329983 0.329970 0.753062 0.204413
H16   H     H_    0.640065 0.641527 0.873600 0.149328
H17   H     H_    0.891001 0.413890 0.704014 0.173375
H18   H     H_    0.897333 0.581934 0.704774 0.173356
H19   H     H_    0.113619 0.703229 0.482523 0.151419
H20   H     H_    0.898702 0.703514 0.480667 0.155929
H21   H     H_    0.102182 0.381753 0.319902 0.177414
H22   H     H_    0.101598 0.295841 0.476351 0.150414
H23   H     H_    0.886509 0.296078 0.478936 0.151954
N1    N     N_R   0.498810 0.498800 0.142780 -0.120810
N2    N     N_R   0.498760 0.498720 0.857170 -0.125648
O1    O     O_R   0.500000 0.316780 0.614690 -0.646184
O2    O     O_R   0.499990 0.316750 0.385360 -0.636541
O3    O     O_R   0.314800 0.499990 0.614670 -0.651017
O4    O     O_R   0.314790 0.499970 0.385330 -0.642426
O5    O     O_R   0.500010 0.683250 0.614640 -0.621054
O6    O     O_R   0.500000 0.683220 0.385310 -0.618494
O7    O     O_R   0.685210 0.500030 0.614670 -0.628808
O8    O     O_R   0.685200 0.500010 0.385330 -0.622304
Zn1   Zn    Zn3+2 0.500010 0.500020 0.653130 0.911137
Zn2   Zn    Zn3+2 0.499990 0.499980 0.346870 0.921595
N3    N     N_3   0.549177 0.105232 0.006859 -0.462644
H24   H     H_    0.595785 0.191752 0.993685 0.177339
H25   H     H_    0.613079 0.046509 0.053433 0.163728

loop_
_geom_bond_atom_site_label_1
_geom_bond_atom_site_label_2
_ccdc_geom_bond_type
C27   H18   S    
C8    C9    A    
C2    C4    S    
C19   H15   S    
C26   C30   S    
C16   C21   A    
C1    O2    A    
C4    H23   S    
C9    C10   A    
C6    C7    A    
N3    H25   S    
C19   C20   A    
C1    C11   S    
C6    N3    S    
O5    Zn1   S    
C2    C27   S    
C24   H16   S    
N2    Zn1   S    
O1    Zn1   S    
C17   C18   A    
C7    H7    S    
C22   H10   S    
C5    C10   A    
C22   N1    A    
N1    Zn2   S    
C4    H2    S    
C13   C14   A    
O4    Zn2   S    
C24   N2    A    
C23   O5    A    
C11   C13   A    
C26   C27   S    
C29   C30   S    
C8    H8    S    
C12   O3    A    
C20   N2    A    
C5    C6    A    
C15   C23   S    
C3    C28   S    
C3    H20   S    
C29   H21   S    
C28   H3    S    
C13   H5    S    
C2    C25   S    
C2    C3    S    
C25   O7    A    
O6    Zn2   S    
O3    Zn1   S    
C21   N1    A    
O8    Zn2   S    
C16   C17   A    
C22   C24   A    
C7    C8    A    
C10   C11   A    
C5    H6    S    
C16   H12   S    
C18   H14   S    
C23   O6    A    
N3    H24   S    
C20   C21   A    
C18   C19   A    
C28   H19   S    
C27   H17   S    
C17   H13   S    
C14   C15   A    
C25   O8    A    
O7    Zn1   S    
C3    H4    S    
C12   C30   S    
C14   H9    S    
C9    C15   A    
C12   O4    A    
C26   H1    S    
C1    O1    A    
C4    C29   S    
C26   H11   S    
O2    Zn2   S    
C28   C30   S    
C29   H22   S    
