data_mof_unit_29716.cif
_audit_creation_date              2012-12-10T19:01:22-0500
_audit_creation_method            fapswitch 2.2
_symmetry_space_group_name_H-M    P1
_symmetry_Int_Tables_number       1
_space_group_crystal_system       triclinic
_cell_length_a                    9.557084
_cell_length_b                    10.839188
_cell_length_c                    15.482253
_cell_angle_alpha                 89.775845
_cell_angle_beta                  74.439794
_cell_angle_gamma                 90.502209
_cell_volume                      1544.9490035

loop_
_atom_site_label
_atom_site_type_symbol
_atom_type_description
_atom_site_fract_x
_atom_site_fract_y
_atom_site_fract_z
_atom_type_partial_charge
C1    C     C_R   0.998791 0.262493 0.501441 0.838587
C2    C     C_R   0.671112 0.474522 0.905980 0.093586
C3    C     C_R   0.769434 0.431845 0.953358 0.162943
C4    C     C_R   0.520730 0.485469 0.951096 0.070536
C5    C     C_R   0.473233 0.464278 0.045388 0.065329
C6    C     C_R   0.575401 0.422124 0.090043 -0.206002
C7    C     C_R   0.720097 0.405382 0.044521 -0.233471
C8    C     C_R   0.415846 0.513827 0.904676 -0.218541
C9    C     C_R   0.270611 0.527674 0.949573 -0.235642
C10   C     C_R   0.223979 0.514796 0.042253 0.167447
C11   C     C_R   0.324605 0.484208 0.091464 0.091363
C12   C     C_R   0.918298 0.497959 0.672058 0.789196
C13   C     C_R   0.077119 0.533033 0.086360 -0.207347
C14   C     C_R   0.028761 0.523824 0.179243 -0.189389
C15   C     C_R   0.273336 0.478592 0.185451 -0.215193
C16   C     C_R   0.119844 0.065057 0.509793 0.047798
C17   C     C_R   0.994526 0.129495 0.509130 -0.058232
C18   C     C_R   0.863706 0.063259 0.520285 -0.201224
C19   C     C_R   0.864473 0.934487 0.520211 -0.202969
C20   C     C_R   0.995934 0.870953 0.509541 -0.063204
C21   C     C_R   0.120274 0.938283 0.511346 0.061635
C22   C     C_3   0.272029 0.933389 0.452418 -0.486788
C23   C     C_R   0.999773 0.737730 0.501313 0.799886
C24   C     C_3   0.271613 0.073582 0.450492 0.119148
C25   C     C_R   0.607345 0.525990 0.423376 0.259283
C26   C     C_R   0.541854 0.461775 0.573103 -0.085676
C27   C     C_R   0.393254 0.462232 0.573207 -0.087632
C28   C     C_R   0.460174 0.524737 0.423110 0.283535
C29   C     C_3   0.478478 0.640112 0.368654 -0.505618
C30   C     C_3   0.636438 0.642828 0.370229 -0.496393
C31   C     C_R   0.081801 0.499374 0.327858 0.827898
C32   C     C_R   0.872673 0.484339 0.769933 -0.043467
C33   C     C_R   0.127274 0.499400 0.229403 -0.043265
C34   C     C_R   0.916484 0.414864 0.908741 -0.213475
C35   C     C_R   0.967792 0.440420 0.817414 -0.200363
C36   C     C_R   0.727189 0.504760 0.814797 -0.250449
Cu1   Cu    Cu3+1 0.140670 0.499980 0.500000 0.959523
Cu2   Cu    Cu3+1 0.859330 0.500020 0.500000 0.947579
H1    H     H_    0.794170 0.371746 0.081234 0.155754
H2    H     H_    0.999874 0.556412 0.049078 0.144457
H3    H     H_    0.762417 0.110225 0.524902 0.162768
H4    H     H_    0.763567 0.885438 0.524551 0.159119
H5    H     H_    0.348391 0.896217 0.488762 0.167850
H6    H     H_    0.277691 0.889972 0.386628 0.226267
H7    H     H_    0.348139 0.116207 0.484846 0.128245
H8    H     H_    0.569962 0.431711 0.632850 0.142312
H9    H     H_    0.311745 0.433198 0.632941 0.134004
H10   H     H_    0.464037 0.624263 0.300686 0.197526
H11   H     H_    0.345686 0.461524 0.226539 0.155580
H12   H     H_    0.414670 0.716682 0.405969 0.214358
H13   H     H_    0.712196 0.629989 0.302889 0.192294
H14   H     H_    0.663816 0.721383 0.408930 0.214748
H15   H     H_    0.915298 0.538846 0.211695 0.146030
H16   H     H_    0.194392 0.550113 0.911281 0.148824
H17   H     H_    0.991276 0.379449 0.944219 0.144891
H18   H     H_    0.080605 0.423012 0.783683 0.143887
H19   H     H_    0.660157 0.544996 0.776578 0.144457
H20   H     H_    0.546799 0.397284 0.160022 0.159849
H21   H     H_    0.441183 0.522967 0.832870 0.135616
N1    N     N_R   0.648210 0.500930 0.499430 -0.185854
N2    N     N_R   0.352300 0.500890 0.499430 -0.183240
O1    O     O_R   0.118810 0.319640 0.500000 -0.563607
O2    O     O_R   0.881230 0.319680 0.499990 -0.586064
O3    O     O_R   0.055580 0.499970 0.629840 -0.593881
O4    O     O_R   0.818000 0.500010 0.629830 -0.594586
O5    O     O_R   0.118770 0.680320 0.500010 -0.577778
O6    O     O_R   0.881190 0.680360 0.500000 -0.587053
O7    O     O_R   0.182000 0.499990 0.370170 -0.575012
O8    O     O_R   0.944420 0.500030 0.370160 -0.582640
Br1   Br    Br    0.285314 0.140085 0.331333 -0.530053

loop_
_geom_bond_atom_site_label_1
_geom_bond_atom_site_label_2
_ccdc_geom_bond_type
C8    C9    A    
C2    C4    A    
C30   H13   S    
C19   H4    S    
C16   C21   A    
C12   C32   S    
C25   N1    A    
C9    C10   A    
C6    H20   S    
Cu1   N2    S    
C19   C20   A    
C20   C23   S    
C4    C8    A    
Cu1   O5    S    
Cu1   O3    S    
C14   C33   A    
C31   C33   S    
Cu1   O1    S    
Cu2   O8    S    
C24   Br1   S    
C34   H17   S    
C16   C24   S    
C13   C14   A    
C28   N2    A    
C25   C28   A    
C5    C6    A    
C26   C27   A    
C29   C30   S    
C26   N1    A    
Cu2   N1    S    
C24   H7    S    
C1    O2    A    
C23   O5    A    
C30   H14   S    
C28   C29   S    
Cu1   Cu2   S    
C5    C11   A    
C6    C7    A    
C3    C7    A    
C29   H12   S    
C15   H11   S    
C8    H21   S    
C31   O7    A    
C12   O3    A    
Cu2   O2    S    
C16   C17   A    
C10   C11   A    
C26   H8    S    
C29   H10   S    
C27   H9    S    
Cu2   O6    S    
Cu1   O7    S    
C32   C36   A    
C31   O8    A    
C14   H15   S    
C2    C36   A    
C20   C21   A    
C36   H19   S    
C1    O1    A    
C17   C18   A    
C34   C35   A    
C12   O4    A    
C18   H3    S    
C23   O6    A    
C25   C30   S    
C7    H1    S    
C18   C19   A    
C13   H2    S    
C2    C3    A    
C9    H16   S    
C27   N2    A    
C3    C34   A    
C35   H18   S    
C21   C22   S    
Cu2   O4    S    
C11   C15   A    
C15   C33   A    
C1    C17   S    
C22   H6    S    
C32   C35   A    
C22   H5    S    
C22   C24   S    
C4    C5    A    
C10   C13   A    
