data_mof_unit_64889.cif
_audit_creation_date              2012-12-10T20:03:54-0500
_audit_creation_method            fapswitch 2.2
_symmetry_space_group_name_H-M    P1
_symmetry_Int_Tables_number       1
_space_group_crystal_system       triclinic
_cell_length_a                    22.504928
_cell_length_b                    25.854605
_cell_length_c                    22.5045
_cell_angle_alpha                 90.002732
_cell_angle_beta                  90.028624
_cell_angle_gamma                 90.001669
_cell_volume                      13094.3772374

loop_
_atom_site_label
_atom_site_type_symbol
_atom_type_description
_atom_site_fract_x
_atom_site_fract_y
_atom_site_fract_z
_atom_type_partial_charge
C1    C     C_R   0.501388 0.890178 0.751385 0.494596
C2    C     C_R   0.001389 0.890184 0.748618 0.494687
C3    C     C_1   0.723356 0.249993 0.750019 -0.019038
C4    C     C_1   0.223360 0.750028 0.250044 -0.019439
C5    C     C_1   0.223356 0.750018 0.749994 -0.019319
C6    C     C_1   0.223356 0.249983 0.749994 -0.019293
C7    C     C_1   0.223356 0.250021 0.250014 -0.025050
C8    C     C_1   0.776647 0.749994 0.749984 -0.019097
C9    C     C_1   0.776647 0.750003 0.249985 -0.019796
C10   C     C_1   0.776647 0.249993 0.249982 -0.019464
C11   C     C_1   0.776647 0.250005 0.749983 -0.019044
C12   C     C_1   0.276651 0.750050 0.250043 -0.019263
C13   C     C_R   0.001388 0.109816 0.748615 0.494712
C14   C     C_1   0.276647 0.749983 0.750005 -0.019278
C15   C     C_1   0.276647 0.250017 0.750006 -0.019294
C16   C     C_1   0.276647 0.249986 0.250018 -0.022720
C17   C     C_R   0.414234 0.554817 0.835908 0.006935
C18   C     C_R   0.585918 0.554821 0.335865 0.006930
C19   C     C_R   0.585896 0.445191 0.335887 0.006907
C20   C     C_R   0.414248 0.445187 0.835921 0.006978
C21   C     C_R   0.414134 0.054817 0.335815 0.007553
C22   C     C_R   0.585874 0.054820 0.835911 0.007554
C23   C     C_R   0.585864 0.945189 0.835923 0.007558
C24   C     C_R   0.998625 0.109822 0.248620 0.494094
C25   C     C_R   0.414150 0.945187 0.335832 0.007584
C26   C     C_R   0.050643 0.544153 0.353735 0.031189
C27   C     C_R   0.915507 0.554810 0.662723 0.006019
C28   C     C_R   0.915331 0.445181 0.662896 0.006817
C29   C     C_R   0.102678 0.455968 0.302722 0.031012
C30   C     C_R   0.085740 0.054813 0.664038 0.007572
C31   C     C_R   0.914343 0.054809 0.163893 0.007756
C32   C     C_R   0.914339 0.945179 0.163897 0.007754
C33   C     C_R   0.085746 0.945183 0.664043 0.007552
C34   C     C_R   0.376915 0.526604 0.873336 -0.105663
C35   C     C_R   0.998616 0.390178 0.748613 0.494915
C36   C     C_R   0.623322 0.526610 0.373246 -0.106449
C37   C     C_R   0.623310 0.473408 0.373258 -0.106271
C38   C     C_R   0.376923 0.473402 0.873343 -0.105697
C39   C     C_R   0.376742 0.026604 0.373171 -0.105817
C40   C     C_R   0.623255 0.026607 0.873316 -0.105798
C41   C     C_R   0.623250 0.973404 0.873323 -0.105801
C42   C     C_R   0.376751 0.973402 0.373180 -0.105841
C43   C     C_R   0.100200 0.520872 0.380217 -0.110905
C44   C     C_R   0.878916 0.526594 0.624545 -0.108448
C45   C     C_R   0.878818 0.473391 0.624641 -0.107060
C46   C     C_R   0.003002 0.390304 0.247344 0.504134
C47   C     C_R   0.128103 0.479201 0.352866 -0.111236
C48   C     C_R   0.123041 0.026598 0.626590 -0.105807
C49   C     C_R   0.877106 0.026593 0.126344 -0.105861
C50   C     C_R   0.877105 0.973391 0.126346 -0.105862
C51   C     C_R   0.123043 0.973396 0.626591 -0.105782
C52   C     C_R   0.046109 0.972065 0.703782 0.029694
C53   C     C_R   0.953943 0.972063 0.203708 0.029664
C54   C     C_R   0.953944 0.027931 0.203706 0.029664
C55   C     C_R   0.046106 0.027932 0.703779 0.029695
C56   C     C_R   0.047383 0.474958 0.280932 0.033115
C57   C     C_R   0.997309 0.609707 0.252988 0.504350
C58   C     C_R   0.954484 0.472064 0.703151 0.028906
C59   C     C_R   0.954535 0.527932 0.703100 0.028750
C60   C     C_R   0.029925 0.525100 0.298059 0.033113
C61   C     C_R   0.453842 0.972068 0.296149 0.029690
C62   C     C_R   0.546173 0.972068 0.796200 0.029713
C63   C     C_R   0.546176 0.027936 0.796197 0.029711
C64   C     C_R   0.453836 0.027934 0.296143 0.029684
C65   C     C_R   0.453895 0.472068 0.796194 0.029466
C66   C     C_R   0.546189 0.472069 0.296179 0.029178
C67   C     C_R   0.546196 0.527937 0.296172 0.029131
C68   C     C_R   0.998620 0.609823 0.748608 0.495206
C69   C     C_R   0.453890 0.527934 0.796189 0.029467
C70   C     C_3   0.408828 0.613012 0.841256 -0.373272
C71   C     C_3   0.591301 0.613017 0.341240 -0.373746
C72   C     C_3   0.591242 0.386997 0.341297 -0.373471
C73   C     C_3   0.408861 0.386992 0.841287 -0.373323
C74   C     C_3   0.408764 0.113012 0.341197 -0.373323
C75   C     C_3   0.591258 0.113017 0.841279 -0.373362
C76   C     C_3   0.591231 0.886994 0.841310 -0.373368
C77   C     C_3   0.408805 0.886992 0.341239 -0.373447
C78   C     C_3   0.016429 0.582676 0.390631 -0.358560
C79   C     C_R   0.493681 0.553980 0.756318 0.039538
C80   C     C_3   0.909968 0.613004 0.657499 -0.374939
C81   C     C_3   0.909517 0.386989 0.657944 -0.373624
C82   C     C_3   0.140424 0.417694 0.269074 -0.356649
C83   C     C_3   0.091140 0.113008 0.658688 -0.373386
C84   C     C_3   0.908898 0.113004 0.158581 -0.373720
C85   C     C_3   0.908885 0.886984 0.158593 -0.373718
C86   C     C_3   0.091158 0.886987 0.658706 -0.373273
C87   C     C_R   0.506335 0.553983 0.256332 0.039203
C88   C     C_R   0.506331 0.446018 0.256337 0.039133
C89   C     C_R   0.498626 0.890184 0.251382 0.494745
C90   C     C_R   0.493686 0.446020 0.756324 0.039529
C91   C     C_R   0.493679 0.053980 0.256324 0.039767
C92   C     C_R   0.506338 0.053983 0.756334 0.039825
C93   C     C_R   0.506335 0.946017 0.756336 0.039826
C94   C     C_R   0.493685 0.946020 0.256331 0.039782
C95   C     C_R   0.993662 0.553267 0.257723 0.006930
C96   C     C_R   0.993666 0.553983 0.743660 0.038821
C97   C     C_R   0.993643 0.446018 0.743684 0.039004
C98   C     C_R   0.007734 0.446765 0.243889 0.006757
C99   C     C_R   0.006332 0.053980 0.743669 0.039793
C100  C     C_R   0.498625 0.109816 0.251379 0.494750
C101  C     C_R   0.993674 0.053982 0.243678 0.039925
C102  C     C_R   0.993672 0.946017 0.243680 0.039928
C103  C     C_R   0.006338 0.946020 0.743675 0.039792
C104  C     C_R   0.531190 0.526540 0.718726 -0.141367
C105  C     C_R   0.468747 0.526539 0.218782 -0.142336
C106  C     C_R   0.468746 0.473456 0.218784 -0.142866
C107  C     C_R   0.531193 0.473458 0.718729 -0.141368
C108  C     C_R   0.531249 0.026540 0.218793 -0.140783
C109  C     C_R   0.468781 0.026540 0.718754 -0.140770
C110  C     C_R   0.468780 0.973456 0.718755 -0.140772
C111  C     C_R   0.501390 0.109822 0.751385 0.494592
C112  C     C_R   0.531251 0.973458 0.218795 -0.140774
C113  C     C_R   0.960849 0.526614 0.214593 -0.157914
C114  C     C_R   0.030451 0.526545 0.781997 -0.141882
C115  C     C_R   0.030452 0.473462 0.781997 -0.141858
C116  C     C_R   0.965159 0.473407 0.210358 -0.158000
C117  C     C_R   0.968847 0.026542 0.781285 -0.140798
C118  C     C_R   0.031100 0.026544 0.281390 -0.140808
C119  C     C_R   0.031100 0.973460 0.281390 -0.140807
C120  C     C_R   0.968849 0.973459 0.781288 -0.140807
C121  C     C_1   0.499996 0.749971 0.526633 -0.019819
C122  C     C_R   0.501388 0.390178 0.251385 0.494670
C123  C     C_1   0.500010 0.749983 0.473347 -0.019442
C124  C     C_1   0.500008 0.250018 0.473347 -0.019518
C125  C     C_1   0.499997 0.250028 0.526633 -0.019830
C126  C     C_1   0.499997 0.249971 0.026633 -0.019104
C127  C     C_1   0.500010 0.249983 0.973347 -0.018684
C128  C     C_1   0.500009 0.750018 0.973347 -0.018549
C129  C     C_1   0.499998 0.750028 0.026633 -0.018925
C130  C     C_1   0.999946 0.750020 0.026647 -0.018609
C131  C     C_1   0.999971 0.750020 0.973362 -0.018764
C132  C     C_1   0.999973 0.249983 0.973362 -0.019243
C133  C     C_R   0.498629 0.390184 0.751379 0.494876
C134  C     C_1   0.999951 0.249982 0.026648 -0.018969
C135  C     C_1   0.999996 0.249975 0.526652 -0.019949
C136  C     C_1   0.000009 0.249988 0.473366 -0.020373
C137  C     C_1   0.999976 0.749964 0.473362 -0.025871
C138  C     C_1   0.999971 0.749985 0.526648 -0.023241
C139  C     C_R   0.500009 0.750015 0.910084 0.498040
C140  C     C_R   0.500001 0.750023 0.089906 0.510975
C141  C     C_R   0.500000 0.249977 0.089906 0.510761
C142  C     C_R   0.500010 0.249986 0.910085 0.498005
C143  C     C_R   0.500009 0.250014 0.410084 0.498107
C144  C     C_R   0.498627 0.609816 0.751376 0.494866
C145  C     C_R   0.500001 0.250022 0.589906 0.510599
C146  C     C_R   0.500000 0.749977 0.589906 0.510573
C147  C     C_R   0.500010 0.749986 0.410085 0.497895
C148  C     C_R   0.999980 0.749981 0.410092 0.505763
C149  C     C_R   0.999991 0.750010 0.589913 0.497413
C150  C     C_R   1.000000 0.249978 0.589915 0.497777
C151  C     C_R   0.000009 0.249988 0.410094 0.512179
C152  C     C_R   0.999999 0.250005 0.910092 0.510947
C153  C     C_R   0.999962 0.249987 0.089913 0.502680
C154  C     C_R   0.999958 0.750015 0.089912 0.505240
C155  C     C_R   0.501388 0.609822 0.251383 0.494921
C156  C     C_R   0.999999 0.749997 0.910092 0.511166
C157  C     C_R   0.339923 0.749968 0.750026 0.504375
C158  C     C_R   0.339926 0.750041 0.250037 0.504727
C159  C     C_R   0.339923 0.249969 0.250028 0.504155
C160  C     C_R   0.339924 0.250032 0.750026 0.504325
C161  C     C_R   0.839924 0.750020 0.249968 0.501984
C162  C     C_R   0.839924 0.749977 0.749966 0.504334
C163  C     C_R   0.839923 0.250023 0.749965 0.504419
C164  C     C_R   0.839924 0.249976 0.249965 0.504518
C165  C     C_R   0.660079 0.750024 0.750035 0.504307
C166  C     C_R   0.998625 0.890178 0.248621 0.494091
C167  C     C_R   0.660079 0.749976 0.250036 0.504177
C168  C     C_R   0.660079 0.250023 0.250034 0.504347
C169  C     C_R   0.660079 0.249977 0.750035 0.504359
C170  C     C_R   0.160081 0.750004 0.250015 0.512855
C171  C     C_R   0.160079 0.750032 0.749974 0.504830
C172  C     C_R   0.160079 0.249968 0.749973 0.504574
C173  C     C_R   0.160080 0.250026 0.249988 0.506629
C174  C     C_1   0.723356 0.750008 0.750018 -0.019099
C175  C     C_1   0.723356 0.749992 0.250020 -0.019831
C176  C     C_1   0.723355 0.250006 0.250017 -0.019388
H1    H     H_    0.561087 0.546615 0.688767 0.117807
H2    H     H_    0.059824 0.546621 0.812500 0.118751
H3    H     H_    0.059833 0.453390 0.812491 0.118549
H4    H     H_    0.935601 0.453244 0.180230 0.154180
H5    H     H_    0.938965 0.046617 0.811259 0.117831
H6    H     H_    0.060939 0.046621 0.311437 0.117778
H7    H     H_    0.060938 0.953388 0.311437 0.117780
H8    H     H_    0.938969 0.953385 0.811264 0.117812
H9    H     H_    0.346757 0.545985 0.903558 0.113131
H10   H     H_    0.653541 0.545993 0.403437 0.110946
H11   H     H_    0.653520 0.454031 0.403458 0.111459
H12   H     H_    0.438792 0.546612 0.188851 0.118190
H13   H     H_    0.346772 0.454023 0.903572 0.112842
H14   H     H_    0.346535 0.045985 0.403345 0.110905
H15   H     H_    0.653456 0.045988 0.903526 0.111017
H16   H     H_    0.653445 0.954025 0.903538 0.111012
H17   H     H_    0.346552 0.954023 0.403361 0.110885
H18   H     H_    0.117748 0.535553 0.421766 0.122143
H19   H     H_    0.849336 0.545971 0.593726 0.110287
H20   H     H_    0.849154 0.454008 0.593904 0.111470
H21   H     H_    0.169302 0.464538 0.371233 0.121956
H22   H     H_    0.153179 0.045978 0.596348 0.110902
H23   H     H_    0.438791 0.453379 0.188853 0.117293
H24   H     H_    0.847008 0.045970 0.096032 0.110993
H25   H     H_    0.847005 0.954009 0.096035 0.110992
H26   H     H_    0.153182 0.954016 0.596349 0.110926
H27   H     H_    0.375280 0.624846 0.874817 0.104436
H28   H     H_    0.451343 0.630045 0.856457 0.154443
H29   H     H_    0.393576 0.629993 0.798733 0.153455
H30   H     H_    0.624875 0.624853 0.374809 0.103153
H31   H     H_    0.606504 0.630017 0.298724 0.153478
H32   H     H_    0.548792 0.630027 0.356445 0.154185
H33   H     H_    0.624800 0.375165 0.374882 0.103698
H34   H     H_    0.561089 0.453382 0.688770 0.117834
H35   H     H_    0.548718 0.370013 0.356504 0.154193
H36   H     H_    0.606444 0.369965 0.298796 0.153693
H37   H     H_    0.375318 0.375158 0.874853 0.104135
H38   H     H_    0.393613 0.369991 0.798770 0.153456
H39   H     H_    0.451383 0.369978 0.856492 0.154449
H40   H     H_    0.375206 0.124847 0.374748 0.103086
H41   H     H_    0.451283 0.130015 0.356433 0.154280
H42   H     H_    0.393547 0.130023 0.298677 0.153782
H43   H     H_    0.624822 0.124856 0.874855 0.103354
H44   H     H_    0.606472 0.130014 0.798764 0.153614
H45   H     H_    0.561188 0.046615 0.188877 0.117892
H46   H     H_    0.548745 0.130031 0.856471 0.154278
H47   H     H_    0.624793 0.875160 0.874891 0.103347
H48   H     H_    0.548713 0.869993 0.856509 0.154294
H49   H     H_    0.606441 0.869980 0.798803 0.153589
H50   H     H_    0.375256 0.875159 0.374800 0.103021
H51   H     H_    0.393589 0.869958 0.298728 0.153523
H52   H     H_    0.451333 0.870011 0.356476 0.154335
H53   H     H_    0.005692 0.565254 0.434448 0.113994
H54   H     H_    0.043872 0.617674 0.398373 0.177460
H55   H     H_    0.973554 0.593641 0.369814 0.125782
H56   H     H_    0.438849 0.046613 0.688802 0.117842
H57   H     H_    0.876610 0.624833 0.623715 0.102470
H58   H     H_    0.894389 0.629877 0.699953 0.153509
H59   H     H_    0.952535 0.630146 0.642667 0.153384
H60   H     H_    0.876048 0.375157 0.624269 0.103755
H61   H     H_    0.951977 0.369636 0.643131 0.154481
H62   H     H_    0.893923 0.370331 0.700502 0.153122
H63   H     H_    0.184375 0.435297 0.259321 0.114126
H64   H     H_    0.147764 0.382610 0.296486 0.177551
H65   H     H_    0.120519 0.406846 0.225724 0.127824
H66   H     H_    0.124678 0.124843 0.625117 0.103094
H67   H     H_    0.438848 0.953380 0.688802 0.117842
H68   H     H_    0.048619 0.130035 0.643500 0.154393
H69   H     H_    0.106402 0.129995 0.701208 0.153567
H70   H     H_    0.875346 0.124835 0.124989 0.103052
H71   H     H_    0.893625 0.129957 0.201099 0.153245
H72   H     H_    0.951404 0.130065 0.143444 0.153709
H73   H     H_    0.875332 0.875148 0.125003 0.103050
H74   H     H_    0.951389 0.869918 0.143458 0.153359
H75   H     H_    0.893611 0.870039 0.201113 0.153602
H76   H     H_    0.124698 0.875152 0.625137 0.103164
H77   H     H_    0.106424 0.870015 0.701229 0.153543
H78   H     H_    0.561191 0.953382 0.188880 0.117903
H79   H     H_    0.048641 0.869947 0.643522 0.154578
H80   H     H_    0.931271 0.546771 0.184485 0.154263
O1    O     O_3   0.500000 0.750000 0.750000 -0.443632
O2    O     O_R   0.534620 0.865830 0.284610 -0.540184
O3    O     O_R   0.965390 0.134170 0.284610 -0.541514
O4    O     O_R   0.965390 0.365830 0.784610 -0.540912
O5    O     O_R   0.965390 0.365830 0.215390 -0.542650
O6    O     O_R   0.965390 0.634170 0.215390 -0.542957
O7    O     O_R   0.965390 0.634170 0.784610 -0.540457
O8    O     O_R   0.534620 0.134170 0.284610 -0.540154
O9    O     O_R   0.534620 0.134170 0.715390 -0.541106
O10   O     O_R   0.534620 0.365830 0.215390 -0.540752
O11   O     O_R   0.534620 0.365830 0.784610 -0.540097
O12   O     O_R   0.534620 0.634170 0.784610 -0.540074
O13   O     O_R   0.534620 0.634170 0.215390 -0.541001
O14   O     O_R   0.034620 0.865830 0.215390 -0.541654
O15   O     O_R   0.034620 0.865830 0.784610 -0.541160
O16   O     O_R   0.034620 0.134170 0.784610 -0.541114
O17   O     O_3   0.500000 0.750000 0.250000 -0.443457
O18   O     O_R   0.034620 0.134170 0.215390 -0.541095
O19   O     O_R   0.034620 0.365830 0.715390 -0.541273
O20   O     O_R   0.034620 0.365830 0.284610 -0.543431
O21   O     O_R   0.034620 0.634170 0.284610 -0.542486
O22   O     O_R   0.034620 0.634170 0.715390 -0.542096
O23   O     O_R   0.465390 0.780380 0.882040 -0.538079
O24   O     O_R   0.465390 0.780380 0.117960 -0.529235
O25   O     O_R   0.465390 0.219620 0.117960 -0.529417
O26   O     O_R   0.465390 0.219620 0.882040 -0.538127
O27   O     O_R   0.465390 0.280380 0.382040 -0.539502
O28   O     O_3   0.500000 0.250000 0.250000 -0.443100
O29   O     O_R   0.465390 0.280380 0.617960 -0.530503
O30   O     O_R   0.465390 0.719620 0.617960 -0.530442
O31   O     O_R   0.465390 0.719620 0.382040 -0.539318
O32   O     O_R   0.965390 0.780380 0.382040 -0.526128
O33   O     O_R   0.965390 0.780380 0.617960 -0.537084
O34   O     O_R   0.965390 0.219620 0.617960 -0.537902
O35   O     O_R   0.965390 0.219620 0.382040 -0.528597
O36   O     O_R   0.965390 0.280380 0.882040 -0.530239
O37   O     O_R   0.965390 0.280380 0.117960 -0.535519
O38   O     O_R   0.965390 0.719620 0.117960 -0.532383
O39   O     O_3   0.500000 0.250000 0.750000 -0.443625
O40   O     O_R   0.965390 0.719620 0.882040 -0.530109
O41   O     O_R   0.367970 0.780380 0.784610 -0.529476
O42   O     O_R   0.367970 0.780380 0.215390 -0.537245
O43   O     O_R   0.367970 0.219620 0.215390 -0.536487
O44   O     O_R   0.367970 0.219620 0.784610 -0.529562
O45   O     O_R   0.367970 0.280380 0.284610 -0.533489
O46   O     O_R   0.367970 0.280380 0.715390 -0.538734
O47   O     O_R   0.367970 0.719620 0.715390 -0.538794
O48   O     O_R   0.367970 0.719620 0.284610 -0.531291
O49   O     O_R   0.867970 0.780380 0.284610 -0.538128
O50   O     O_3   0.000000 0.750000 0.250000 -0.440835
O51   O     O_R   0.867970 0.780380 0.715390 -0.530041
O52   O     O_R   0.867970 0.219620 0.715390 -0.529888
O53   O     O_R   0.867970 0.219620 0.284610 -0.537458
O54   O     O_R   0.867970 0.280380 0.784610 -0.538037
O55   O     O_R   0.867970 0.280380 0.215390 -0.532583
O56   O     O_R   0.867970 0.719620 0.215390 -0.535756
O57   O     O_R   0.867970 0.719620 0.784610 -0.537955
O58   O     O_R   0.632030 0.780380 0.715400 -0.537818
O59   O     O_R   0.632030 0.780380 0.284600 -0.529762
O60   O     O_R   0.632030 0.219620 0.284600 -0.529720
O61   O     O_3   1.000000 0.750000 0.750000 -0.443176
O62   O     O_R   0.632030 0.219620 0.715400 -0.537760
O63   O     O_R   0.632030 0.280380 0.215400 -0.538461
O64   O     O_R   0.632030 0.280380 0.784600 -0.530211
O65   O     O_R   0.632030 0.719620 0.784600 -0.530193
O66   O     O_R   0.632030 0.719620 0.215400 -0.538613
O67   O     O_R   0.132030 0.780380 0.215400 -0.528314
O68   O     O_R   0.132030 0.780380 0.784600 -0.537206
O69   O     O_R   0.132030 0.219620 0.784600 -0.537421
O70   O     O_R   0.132030 0.219620 0.215400 -0.525769
O71   O     O_R   0.132030 0.280380 0.715400 -0.530831
O72   O     O_3   1.000000 0.250000 0.750000 -0.443448
O73   O     O_R   0.132030 0.280380 0.284600 -0.554406
O74   O     O_R   0.132030 0.719620 0.284600 -0.532196
O75   O     O_R   0.132030 0.719620 0.715400 -0.531010
O76   O     O_R   0.534620 0.719650 0.882050 -0.538711
O77   O     O_R   0.534620 0.719650 0.117950 -0.529895
O78   O     O_R   0.534620 0.280350 0.117950 -0.529905
O79   O     O_R   0.534620 0.280350 0.882050 -0.538713
O80   O     O_R   0.534620 0.219650 0.382050 -0.537959
O81   O     O_R   0.534620 0.219650 0.617950 -0.529302
O82   O     O_R   0.534620 0.780350 0.617950 -0.529371
O83   O     O_3   1.000000 0.250000 0.250000 -0.440710
O84   O     O_R   0.534620 0.780350 0.382050 -0.538199
O85   O     O_R   0.034620 0.719650 0.382050 -0.554528
O86   O     O_R   0.034620 0.719650 0.617950 -0.542101
O87   O     O_R   0.034620 0.280350 0.617950 -0.540038
O88   O     O_R   0.034620 0.280350 0.382050 -0.532700
O89   O     O_R   0.034620 0.219650 0.882050 -0.529266
O90   O     O_R   0.034620 0.219650 0.117950 -0.537949
O91   O     O_R   0.034620 0.780350 0.117950 -0.537258
O92   O     O_R   0.034620 0.780350 0.882050 -0.529231
O93   O     O_R   0.465390 0.865830 0.784610 -0.540159
O94   O     O_R   0.534620 0.865830 0.715390 -0.541093
O95   O     O_R   0.465390 0.865830 0.215390 -0.541088
O96   O     O_R   0.465390 0.134170 0.215390 -0.541046
O97   O     O_R   0.465390 0.134170 0.784610 -0.540149
O98   O     O_R   0.465390 0.365830 0.284610 -0.542282
O99   O     O_R   0.465390 0.365830 0.715390 -0.541631
O100  O     O_R   0.465390 0.634170 0.715390 -0.541656
O101  O     O_R   0.465390 0.634170 0.284610 -0.541217
O102  O     O_R   0.965390 0.865830 0.284610 -0.540959
O103  O     O_R   0.965390 0.865830 0.715390 -0.540140
O104  O     O_R   0.965390 0.134170 0.715390 -0.540183
Zn1   Zn    Zn3+2 0.549450 0.706630 0.799470 0.933581
Zn2   Zn    Zn3+2 0.049450 0.706630 0.700530 0.929342
Zn3   Zn    Zn3+2 0.049450 0.293370 0.700530 0.931399
Zn4   Zn    Zn3+2 0.049450 0.293370 0.299470 0.930896
Zn5   Zn    Zn3+2 0.049450 0.206630 0.799470 0.942575
Zn6   Zn    Zn3+2 0.049450 0.206630 0.200530 0.940010
Zn7   Zn    Zn3+2 0.049450 0.793370 0.200530 0.944551
Zn8   Zn    Zn3+2 0.049450 0.793370 0.799470 0.942904
Zn9   Zn    Zn3+2 0.450550 0.793390 0.799460 0.934212
Zn10  Zn    Zn3+2 0.450550 0.793390 0.200540 0.942745
Zn11  Zn    Zn3+2 0.450550 0.206610 0.200540 0.942522
Zn12  Zn    Zn3+2 0.549450 0.706630 0.200530 0.941358
Zn13  Zn    Zn3+2 0.450550 0.206610 0.799460 0.934105
Zn14  Zn    Zn3+2 0.450550 0.293390 0.299460 0.929037
Zn15  Zn    Zn3+2 0.450550 0.293390 0.700540 0.940395
Zn16  Zn    Zn3+2 0.450550 0.706610 0.700540 0.940398
Zn17  Zn    Zn3+2 0.450550 0.706610 0.299460 0.931578
Zn18  Zn    Zn3+2 0.950550 0.793390 0.299460 0.939124
Zn19  Zn    Zn3+2 0.950550 0.793390 0.700540 0.933998
Zn20  Zn    Zn3+2 0.950550 0.206610 0.700540 0.934008
Zn21  Zn    Zn3+2 0.950550 0.206610 0.299460 0.943722
Zn22  Zn    Zn3+2 0.950550 0.293390 0.799460 0.941480
Zn23  Zn    Zn3+2 0.549450 0.293370 0.200530 0.941359
Zn24  Zn    Zn3+2 0.950550 0.293390 0.200540 0.939306
Zn25  Zn    Zn3+2 0.950550 0.706610 0.200540 0.939216
Zn26  Zn    Zn3+2 0.950550 0.706610 0.799460 0.941913
Zn27  Zn    Zn3+2 0.549450 0.293370 0.799470 0.933572
Zn28  Zn    Zn3+2 0.549450 0.206630 0.299470 0.934235
Zn29  Zn    Zn3+2 0.549450 0.206630 0.700530 0.942085
Zn30  Zn    Zn3+2 0.549450 0.793370 0.700530 0.941987
Zn31  Zn    Zn3+2 0.549450 0.793370 0.299470 0.933906
Zn32  Zn    Zn3+2 0.049450 0.706630 0.299470 0.931646

loop_
_geom_bond_atom_site_label_1
_geom_bond_atom_site_label_2
_ccdc_geom_bond_type
C126  C127  T    
O50   Zn18  S    
C114  C115  A    
C153  O90   A    
C164  O55   A    
C76   H48   S    
C86   H77   S    
C2    O15   A    
C43   H18   S    
C139  O23   A    
C128  C139  S    
C90   C107  A    
C92   C109  A    
C68   O22   A    
O95   Zn10  S    
O89   Zn5   S    
C81   H62   S    
O91   Zn7   S    
C89   C94   S    
C19   C37   A    
C100  O8    A    
O96   Zn11  S    
C91   C100  S    
C4    C12   T    
O21   Zn32  S    
C93   C110  A    
C71   H31   S    
C46   C98   S    
C77   H50   S    
C35   O19   A    
C96   C114  A    
C2    O103  A    
C157  O47   A    
O6    Zn25  S    
O15   Zn8   S    
C158  O48   A    
C118  H6    S    
C70   H28   S    
O14   Zn7   S    
O36   Zn22  S    
C57   O6    A    
C80   H58   S    
C88   C122  S    
C13   O16   A    
C61   C94   A    
O92   Zn8   S    
C78   H55   S    
O22   Zn2   S    
C83   H68   S    
O101  Zn17  S    
C171  O68   A    
C70   H29   S    
C165  O65   A    
O28   Zn11  S    
O72   Zn3   S    
C75   H43   S    
C53   C102  A    
O93   Zn9   S    
O61   Zn2   S    
C111  O9    A    
O17   Zn17  S    
C84   H71   S    
C171  O75   A    
C132  C152  S    
C73   H38   S    
C33   C51   A    
C17   C34   A    
O90   Zn6   S    
C32   C53   A    
C30   C55   A    
O27   Zn14  S    
C18   C71   S    
C154  O38   A    
O18   Zn6   S    
C1    O94   A    
C13   O104  A    
C92   C111  S    
C28   C58   A    
C126  C141  S    
C143  O27   A    
C23   C41   A    
C140  O77   A    
C130  C131  T    
C86   H79   S    
C29   C82   S    
C8    C162  S    
C150  O87   A    
C142  O26   A    
C37   H11   S    
O49   Zn18  S    
O59   Zn31  S    
O46   Zn15  S    
C121  C123  T    
C3    C11   T    
C60   C95   A    
C15   C160  S    
O55   Zn24  S    
O75   Zn2   S    
C1    C93   S    
C148  O32   A    
C62   C93   A    
C141  O78   A    
C64   C91   A    
C157  O41   A    
O102  Zn18  S    
C43   C47   A    
C104  C107  A    
O63   Zn23  S    
C102  C119  A    
C89   O95   A    
C52   C103  A    
C85   H73   S    
O80   Zn28  S    
C140  O24   A    
C137  C148  S    
O83   Zn24  S    
C128  C129  T    
C107  H34   S    
C6    C172  S    
C53   C54   A    
C33   C52   A    
O29   Zn15  S    
C83   H66   S    
C26   C78   S    
C4    C170  S    
C29   C47   A    
C101  C118  A    
C75   H44   S    
C30   C48   A    
C131  C156  S    
C146  O82   A    
O25   Zn11  S    
C66   C88   A    
O88   Zn4   S    
C109  H56   S    
C8    C174  T    
C134  C153  S    
O23   Zn9   S    
C111  O97   A    
C163  O52   A    
C88   C106  A    
C19   C66   A    
C84   H70   S    
C24   C101  S    
C21   C64   A    
O43   Zn11  S    
C22   C63   A    
O69   Zn5   S    
C27   C44   A    
C23   C62   A    
C104  H1    S    
C114  H2    S    
O74   Zn32  S    
O8    Zn28  S    
O100  Zn16  S    
O77   Zn12  S    
O56   Zn25  S    
C51   H26   S    
C147  O31   A    
C45   H20   S    
C66   C67   A    
C102  C166  S    
C113  H80   S    
O72   Zn20  S    
C83   H69   S    
C162  O51   A    
C152  O36   A    
C159  O43   A    
O17   Zn10  S    
C133  O11   A    
C138  C149  S    
C100  O96   A    
C122  O98   A    
O38   Zn25  S    
O31   Zn17  S    
C27   C80   S    
O73   Zn4   S    
C165  C174  S    
C31   C84   S    
C133  O99   A    
C48   H22   S    
C13   C99   S    
C42   H17   S    
C99   C117  A    
C112  H78   S    
C72   H33   S    
C87   C105  A    
O64   Zn27  S    
C82   H63   S    
C74   H42   S    
C11   C163  S    
C130  C154  S    
C119  H7    S    
C163  O54   A    
C9    C161  S    
C120  H8    S    
O61   Zn26  S    
C77   H52   S    
C132  C134  T    
C85   H75   S    
C150  O34   A    
C69   C79   A    
C97   C115  A    
C59   C96   A    
O1    Zn30  S    
C122  O10   A    
C167  C175  S    
C168  C176  S    
C144  O100  A    
C76   H49   S    
C35   O4    A    
C7    C16   T    
C89   O2    A    
O41   Zn9   S    
O11   Zn27  S    
O3    Zn21  S    
C135  C150  S    
C84   H72   S    
C172  O69   A    
O50   Zn32  S    
C142  O79   A    
C108  H45   S    
O30   Zn16  S    
O44   Zn13  S    
O5    Zn24  S    
C94   C112  A    
O94   Zn30  S    
C81   H61   S    
C9    C175  T    
C151  O88   A    
C31   C54   A    
O97   Zn13  S    
C170  O67   A    
O99   Zn15  S    
O87   Zn3   S    
C49   C50   A    
C55   C99   A    
O33   Zn19  S    
C121  C146  S    
C47   H21   S    
C12   C158  S    
C173  O70   A    
C160  O46   A    
O10   Zn23  S    
O17   Zn12  S    
O9    Zn29  S    
O20   Zn4   S    
O45   Zn14  S    
O76   Zn1   S    
O51   Zn19  S    
C103  C120  A    
O26   Zn13  S    
O103  Zn19  S    
O60   Zn28  S    
C135  C136  T    
O58   Zn30  S    
C46   O5    A    
C17   C69   A    
C68   C96   S    
C105  H12   S    
C72   H35   S    
C30   C83   S    
C158  O42   A    
O7    Zn26  S    
C54   C101  A    
C110  H67   S    
C75   H46   S    
C124  C143  S    
C145  O29   A    
C23   C76   S    
C52   C55   A    
C73   H37   S    
C144  O12   A    
C168  O63   A    
O1    Zn9   S    
C31   C49   A    
O78   Zn23  S    
O65   Zn1   S    
O16   Zn5   S    
O98   Zn14  S    
C39   C42   A    
C76   H47   S    
C86   H76   S    
C65   C90   A    
C14   C157  S    
C161  O49   A    
C20   C65   A    
C172  O71   A    
C1    O93   A    
C117  C120  A    
O48   Zn17  S    
C90   C133  S    
C24   O18   A    
C58   C59   A    
C56   C60   A    
C82   H65   S    
C78   H53   S    
O1    Zn16  S    
C61   C64   A    
C62   C63   A    
O57   Zn26  S    
C165  O58   A    
C38   H13   S    
O79   Zn27  S    
C161  O56   A    
O83   Zn6   S    
C25   C61   A    
C141  O25   A    
C5    C14   T    
C169  O62   A    
C173  O73   A    
C71   H32   S    
C77   H51   S    
C170  O74   A    
C136  C151  S    
C44   C45   A    
C50   H25   S    
C70   H27   S    
O72   Zn5   S    
C36   C37   A    
C44   H19   S    
O34   Zn20  S    
C154  O91   A    
C80   H57   S    
C155  O101  A    
C3    C169  S    
O2    Zn31  S    
C25   C42   A    
O81   Zn29  S    
O104  Zn20  S    
C29   C56   A    
C78   H54   S    
C105  C106  A    
O4    Zn22  S    
C167  O59   A    
C156  O92   A    
O28   Zn14  S    
C109  C110  A    
O52   Zn20  S    
C40   H15   S    
C2    C103  S    
C65   C69   A    
C32   C85   S    
C151  O35   A    
C167  O66   A    
C147  O84   A    
C108  C112  A    
C73   H39   S    
C125  C145  S    
C18   C36   A    
O1    Zn1   S    
O82   Zn30  S    
C57   O21   A    
O84   Zn31  S    
O24   Zn10  S    
O71   Zn3   S    
C34   H9    S    
C20   C73   S    
C56   C98   A    
C166  O102  A    
O54   Zn22  S    
C24   O3    A    
O66   Zn12  S    
C25   C77   S    
O62   Zn29  S    
C145  O81   A    
O68   Zn8   S    
O12   Zn1   S    
C117  H5    S    
O83   Zn4   S    
C159  O45   A    
O35   Zn21  S    
C118  C119  A    
O70   Zn6   S    
C169  O64   A    
C6    C15   T    
O42   Zn10  S    
C48   C51   A    
C82   H64   S    
C63   C92   A    
O17   Zn31  S    
C91   C108  A    
O28   Zn23  S    
C113  C116  A    
C152  O89   A    
C85   H74   S    
C16   C159  S    
C166  O14   A    
C80   H59   S    
C19   C72   S    
O86   Zn2   S    
C58   C97   A    
C22   C75   S    
O83   Zn21  S    
C155  O13   A    
C26   C43   A    
C139  O76   A    
C71   H30   S    
C10   C176  T    
C28   C45   A    
C149  O33   A    
C156  O40   A    
O32   Zn18  S    
C39   H14   S    
C164  O53   A    
C153  O37   A    
C18   C67   A    
O39   Zn13  S    
C21   C74   S    
C46   O20   A    
O72   Zn22  S    
O28   Zn28  S    
C127  C142  S    
C162  O57   A    
C33   C86   S    
C146  O30   A    
O50   Zn25  S    
C20   C38   A    
C98   C116  A    
C79   C144  S    
C21   C39   A    
C22   C40   A    
C5    C171  S    
C81   H60   S    
O39   Zn15  S    
C32   C50   A    
O53   Zn21  S    
C168  O60   A    
C40   C41   A    
C123  C147  S    
C87   C155  S    
C79   C104  A    
O39   Zn29  S    
O67   Zn7   S    
O40   Zn26  S    
O47   Zn16  S    
C10   C164  S    
C41   H16   S    
C74   H40   S    
C28   C81   S    
C34   C38   A    
O39   Zn27  S    
C137  C138  T    
C67   C87   A    
C143  O80   A    
O61   Zn19  S    
C148  O85   A    
O37   Zn24  S    
C116  H4    S    
C160  O44   A    
C27   C59   A    
C72   H36   S    
C129  C140  S    
C26   C60   A    
C95   C113  A    
C7    C173  S    
C74   H41   S    
O50   Zn7   S    
C36   H10   S    
O13   Zn12  S    
O85   Zn32  S    
C17   C70   S    
C57   C95   S    
C149  O86   A    
C124  C125  T    
C35   C97   S    
O61   Zn8   S    
C68   O7    A    
C115  H3    S    
C106  H23   S    
C49   H24   S    
O19   Zn3   S    
