data_mof_unit_42706.cif
_audit_creation_date              2012-12-11T14:04:17-0500
_audit_creation_method            fapswitch 2.2
_symmetry_space_group_name_H-M    P1
_symmetry_Int_Tables_number       1
_space_group_crystal_system       triclinic
_cell_length_a                    19.068283
_cell_length_b                    10.98077
_cell_length_c                    18.934086
_cell_angle_alpha                 89.661964
_cell_angle_beta                  89.019407
_cell_angle_gamma                 90.089874
_cell_volume                      3963.84768408

loop_
_atom_site_label
_atom_site_type_symbol
_atom_type_description
_atom_site_fract_x
_atom_site_fract_y
_atom_site_fract_z
_atom_type_partial_charge
C1    C     C_R   0.240407 0.467256 0.646855 0.544704
C2    C     C_R   0.048980 0.660679 0.561358 -0.029431
C3    C     C_3   0.132788 0.354083 0.964465 -0.287572
C4    C     C_3   0.129305 0.732307 0.310882 -0.275690
C5    C     C_3   0.948261 0.932941 0.616764 -0.271620
C6    C     C_3   0.629305 0.232307 0.310881 -0.275690
C7    C     C_3   0.448261 0.432941 0.616764 -0.271619
C8    C     C_R   0.500582 0.155235 0.423604 -0.019019
C9    C     C_R   0.548980 0.160679 0.561358 -0.029431
C10   C     C_R   0.062789 0.849844 0.398285 0.164879
C11   C     C_R   0.050584 0.895755 0.543920 0.170237
C12   C     C_R   0.562789 0.349843 0.398284 0.164879
C13   C     C_R   0.550583 0.395755 0.543920 0.170235
C14   C     C_R   0.073946 0.966455 0.424015 -0.139982
C15   C     C_R   0.067087 0.989125 0.495546 -0.159925
C16   C     C_R   0.573945 0.466455 0.424014 -0.139981
C17   C     C_R   0.760381 0.469307 0.353929 0.543005
C18   C     C_R   0.567085 0.489126 0.495545 -0.159926
C19   C     C_R   0.046240 0.772182 0.519682 -0.006555
C20   C     C_R   0.038552 0.757678 0.445889 -0.005948
C21   C     C_R   0.546240 0.272182 0.519682 -0.006554
C22   C     C_R   0.538552 0.257677 0.445888 -0.005949
C23   C     C_R   0.036057 0.548138 0.526815 0.001992
C24   C     C_R   0.994247 0.551663 0.468354 -0.000494
C25   C     C_R   0.536058 0.048138 0.526815 0.001992
C26   C     C_R   0.494248 0.051662 0.468354 -0.000493
C27   C     C_R   0.054856 0.431882 0.552921 -0.073460
C28   C     C_R   0.740407 0.967256 0.646855 0.544705
C29   C     C_R   0.949733 0.449776 0.457070 -0.074058
C30   C     C_R   0.554857 0.931881 0.552921 -0.073460
C31   C     C_R   0.449735 0.949775 0.457070 -0.074058
C32   C     C_R   0.016997 0.328466 0.536238 -0.119417
C33   C     C_R   0.961881 0.338416 0.490324 -0.114346
C34   C     C_R   0.516997 0.828466 0.536239 -0.119416
C35   C     C_R   0.461882 0.838415 0.490325 -0.114346
C36   C     C_2   0.249031 0.925687 0.918395 -0.089184
C37   C     C_2   0.747751 0.940177 0.085696 -0.069063
C38   C     C_2   0.749031 0.425689 0.918395 -0.089184
C39   C     C_R   0.260381 0.969308 0.353930 0.543005
C40   C     C_2   0.247750 0.440184 0.085698 -0.069055
C41   C     C_2   0.281334 0.007170 0.066099 0.104150
C42   C     C_2   0.716322 0.014346 0.933689 0.115630
C43   C     C_2   0.781335 0.507178 0.066098 0.104154
C44   C     C_2   0.216319 0.514347 0.933690 0.115633
C45   C     C_R   0.227447 0.873580 0.647541 0.547789
C46   C     C_R   0.772932 0.872460 0.353018 0.544890
C47   C     C_R   0.727447 0.373580 0.647540 0.547790
C48   C     C_R   0.272932 0.372460 0.353018 0.544892
C49   C     C_2   0.226759 0.043689 0.026903 -0.123973
C50   C     C_2   0.277551 0.823968 0.533456 -0.150939
C51   C     C_2   0.768403 0.058440 0.973212 -0.150527
C52   C     C_2   0.726757 0.543691 0.026903 -0.123972
C53   C     C_2   0.268396 0.558452 0.973214 -0.150543
C54   C     C_2   0.216706 0.020064 0.951217 0.110122
C55   C     C_2   0.790543 0.005900 0.041542 0.105483
C56   C     C_2   0.716705 0.520065 0.951217 0.110125
C57   C     C_2   0.290541 0.505902 0.041540 0.105483
C58   C     C_2   0.998885 0.661065 0.921353 -0.106827
C59   C     C_2   0.001633 0.660412 0.078494 -0.117805
C60   C     C_2   0.498888 0.161065 0.921355 -0.106825
C61   C     C_2   0.725069 0.818676 0.468342 -0.149518
C62   C     C_2   0.501637 0.160408 0.078496 -0.117830
C63   C     C_2   0.997962 0.560867 0.038240 -0.153403
C64   C     C_2   0.998497 0.560788 0.961555 -0.153209
C65   C     C_2   0.497962 0.060865 0.038240 -0.153406
C66   C     C_2   0.498498 0.060788 0.961556 -0.153206
C67   C     C_R   0.062476 0.652160 0.637965 0.569010
C68   C     C_R   0.967001 0.653066 0.355746 0.573794
C69   C     C_R   0.562476 0.152160 0.637965 0.569010
C70   C     C_R   0.467001 0.153066 0.355746 0.573794
C71   C     C_R   0.222176 0.523813 0.856715 0.619376
C72   C     C_2   0.777551 0.323968 0.533456 -0.150939
C73   C     C_R   0.777130 0.521681 0.142686 0.610065
C74   C     C_R   0.722177 0.023813 0.856715 0.619379
C75   C     C_R   0.277130 0.021679 0.142686 0.610056
C76   C     C_R   0.227195 0.875406 0.851804 0.545161
C77   C     C_R   0.773583 0.874421 0.147048 0.549953
C78   C     C_R   0.727195 0.375406 0.851804 0.545163
C79   C     C_R   0.273582 0.374422 0.147048 0.549926
C80   C     C_R   0.028710 0.652308 0.850656 0.567355
C81   C     C_R   0.971501 0.652558 0.149341 0.556141
C82   C     C_R   0.528711 0.152308 0.850657 0.567355
C83   C     C_2   0.225068 0.318677 0.468342 -0.149519
C84   C     C_R   0.471502 0.152557 0.149342 0.556125
C85   C     C_2   0.249546 0.909347 0.576809 -0.093979
C86   C     C_2   0.752436 0.905274 0.424822 -0.105497
C87   C     C_2   0.749545 0.409346 0.576808 -0.093980
C88   C     C_2   0.252436 0.405274 0.424822 -0.105497
C89   C     C_2   0.245268 0.921566 0.423789 -0.120252
C90   C     C_2   0.758499 0.912815 0.578951 -0.121241
C91   C     C_2   0.745267 0.421564 0.423789 -0.120254
C92   C     C_2   0.258499 0.412815 0.578951 -0.121241
C93   C     C_2   0.285550 0.842019 0.456886 -0.191273
C94   C     C_R   0.000582 0.655236 0.423604 -0.019018
C95   C     C_2   0.717009 0.835864 0.544995 -0.179038
C96   C     C_2   0.785549 0.342018 0.456886 -0.191273
C97   C     C_2   0.217009 0.335864 0.544994 -0.179038
C98   C     C_3   0.090878 0.051328 0.935204 -0.286480
C99   C     C_3   0.906110 0.925317 0.018731 -0.283289
C100  C     C_3   0.590876 0.551329 0.935207 -0.286474
C101  C     C_3   0.406087 0.425228 0.018755 -0.283293
C102  C     C_3   0.367887 0.846146 0.047698 -0.303020
C103  C     C_3   0.632785 0.854090 0.964463 -0.287572
C104  C     C_3   0.867889 0.346161 0.047694 -0.303040
Cr1   Cr    Cr6+3 0.113970 0.508630 0.747920 0.995691
Cr2   Cr    Cr6+3 0.887700 0.820070 0.250200 1.035736
Cr3   Cr    Cr6+3 0.612300 0.320070 0.749800 1.004734
Cr4   Cr    Cr6+3 0.387700 0.320070 0.250200 1.035733
Cr5   Cr    Cr6+3 0.886030 0.508630 0.252080 1.002893
Cr6   Cr    Cr6+3 0.613970 0.008630 0.747920 0.995690
Cr7   Cr    Cr6+3 0.386030 0.008630 0.252080 1.002896
Cr8   Cr    Cr6+3 0.269200 0.666740 0.749850 0.992046
Cr9   Cr    Cr6+3 0.730800 0.666740 0.250150 0.988791
Cr10  Cr    Cr6+3 0.769200 0.166740 0.749850 0.992044
Cr11  Cr    Cr6+3 0.230800 0.166740 0.250150 0.988786
Cr12  Cr    Cr6+3 0.112300 0.820070 0.749800 1.004735
H1    H     H_    0.324035 0.789292 0.427466 0.127224
H2    H     H_    0.003345 0.471407 0.937736 0.162840
H3    H     H_    0.491086 0.971786 0.062211 0.162492
H4    H     H_    0.503343 0.971406 0.937736 0.162834
H5    H     H_    0.013614 0.749248 0.056499 0.084230
H6    H     H_    0.991512 0.750906 0.943511 0.082913
H7    H     H_    0.513626 0.249243 0.056502 0.084233
H8    H     H_    0.491518 0.250906 0.943514 0.082913
H9    H     H_    0.292786 0.735370 0.553896 0.151078
H10   H     H_    0.708816 0.731115 0.447684 0.150188
H11   H     H_    0.792787 0.235370 0.553896 0.151079
H12   H     H_    0.676572 0.784897 0.573261 0.121848
H13   H     H_    0.208816 0.231116 0.447684 0.150187
H14   H     H_    0.203180 0.965803 0.452109 0.122322
H15   H     H_    0.804649 0.949788 0.552121 0.102583
H16   H     H_    0.703178 0.465799 0.452108 0.122323
H17   H     H_    0.304649 0.449788 0.552121 0.102583
H18   H     H_    0.234680 0.999166 0.558307 0.091333
H19   H     H_    0.768481 0.993633 0.444291 0.092252
H20   H     H_    0.734679 0.499165 0.558306 0.091333
H21   H     H_    0.268481 0.493633 0.444291 0.092253
H22   H     H_    0.088460 0.040425 0.388642 0.134491
H23   H     H_    0.824035 0.289292 0.427466 0.127224
H24   H     H_    0.073619 0.081353 0.513325 0.097604
H25   H     H_    0.588458 0.540425 0.388641 0.134490
H26   H     H_    0.573616 0.581355 0.513324 0.097605
H27   H     H_    0.904965 0.455287 0.423906 0.168398
H28   H     H_    0.094971 0.421179 0.590540 0.163410
H29   H     H_    0.404966 0.955284 0.423906 0.168397
H30   H     H_    0.594972 0.921179 0.590541 0.163411
H31   H     H_    0.027432 0.243475 0.562881 0.090282
H32   H     H_    0.929702 0.259640 0.479999 0.103156
H33   H     H_    0.527432 0.743476 0.562884 0.090281
H34   H     H_    0.176571 0.284897 0.573261 0.121848
H35   H     H_    0.429703 0.759639 0.480000 0.103156
H36   H     H_    0.182819 0.089045 0.052854 0.141249
H37   H     H_    0.809633 0.110374 0.946385 0.123771
H38   H     H_    0.682816 0.589041 0.052855 0.141250
H39   H     H_    0.309623 0.610392 0.946386 0.123755
H40   H     H_    0.171868 0.116687 0.866800 0.270379
H41   H     H_    0.062647 0.028226 0.886232 0.158807
H42   H     H_    0.062798 0.127284 0.961480 0.114905
H43   H     H_    0.088969 0.970665 0.971047 0.147605
H44   H     H_    0.883786 0.101100 0.047990 0.228257
H45   H     H_    0.285265 0.867809 0.945079 0.095175
H46   H     H_    0.961615 0.936521 0.034099 0.122762
H47   H     H_    0.902887 0.938156 0.960593 0.129484
H48   H     H_    0.888362 0.831833 0.033134 0.170634
H49   H     H_    0.671864 0.616687 0.866800 0.270378
H50   H     H_    0.562648 0.528195 0.886236 0.158827
H51   H     H_    0.562792 0.627299 0.961466 0.114905
H52   H     H_    0.588967 0.470684 0.971065 0.147595
H53   H     H_    0.383803 0.601058 0.047922 0.228262
H54   H     H_    0.461604 0.436471 0.034063 0.122709
H55   H     H_    0.402812 0.437921 0.960618 0.129528
H56   H     H_    0.692610 0.930094 0.078507 0.079851
H57   H     H_    0.388355 0.331787 0.033247 0.170695
H58   H     H_    0.359309 0.007089 0.986418 0.251496
H59   H     H_    0.399112 0.812659 0.001700 0.096262
H60   H     H_    0.400903 0.839634 0.095181 0.182970
H61   H     H_    0.321247 0.786300 0.055432 0.149204
H62   H     H_    0.634297 0.032438 0.006870 0.249367
H63   H     H_    0.588834 0.836755 0.002416 0.107266
H64   H     H_    0.678563 0.799073 0.980889 0.170452
H65   H     H_    0.615876 0.825468 0.911366 0.194713
H66   H     H_    0.859307 0.507104 0.986416 0.251499
H67   H     H_    0.785266 0.367814 0.945079 0.095173
H68   H     H_    0.899114 0.312676 0.001696 0.096277
H69   H     H_    0.900906 0.339649 0.095177 0.182960
H70   H     H_    0.821249 0.286316 0.055428 0.149182
H71   H     H_    0.134292 0.532434 0.006868 0.249366
H72   H     H_    0.088840 0.336745 0.002421 0.107265
H73   H     H_    0.178569 0.299072 0.980891 0.170453
H74   H     H_    0.115878 0.325456 0.911369 0.194714
H75   H     H_    0.084969 0.902562 0.294163 0.255806
H76   H     H_    0.134235 0.718743 0.252938 0.144110
H77   H     H_    0.113693 0.644125 0.335303 0.149549
H78   H     H_    0.192607 0.430115 0.078514 0.079847
H79   H     H_    0.181144 0.759355 0.331200 0.144208
H80   H     H_    0.045370 0.013741 0.628955 0.239090
H81   H     H_    0.932110 0.955935 0.671695 0.156387
H82   H     H_    0.927068 0.841317 0.604377 0.163312
H83   H     H_    0.925918 0.001739 0.580245 0.122805
H84   H     H_    0.584968 0.402562 0.294162 0.255806
H85   H     H_    0.634237 0.218746 0.252937 0.144110
H86   H     H_    0.613692 0.144124 0.335301 0.149550
H87   H     H_    0.681143 0.259353 0.331201 0.144207
H88   H     H_    0.545371 0.513740 0.628955 0.239090
H89   H     H_    0.991093 0.471787 0.062212 0.162481
H90   H     H_    0.432111 0.455935 0.671695 0.156387
H91   H     H_    0.427067 0.341318 0.604377 0.163312
H92   H     H_    0.425918 0.501740 0.580245 0.122805
N1    N     N_2   0.162492 0.087962 0.918069 -0.518874
N2    N     N_2   0.023979 0.933662 0.610754 -0.456561
N3    N     N_2   0.577697 0.326074 0.325372 -0.486861
N4    N     N_2   0.523979 0.433662 0.610754 -0.456561
N5    N     N_2   0.863745 0.014850 0.055219 -0.473360
N6    N     N_2   0.662489 0.587961 0.918069 -0.518874
N7    N     N_2   0.363746 0.514835 0.055204 -0.473389
N8    N     N_2   0.346991 0.971436 0.035567 -0.527906
N9    N     N_2   0.650078 0.982260 0.963695 -0.532778
N10   N     N_2   0.846992 0.471451 0.035565 -0.527893
N11   N     N_2   0.150076 0.482255 0.963694 -0.532776
N12   N     N_2   0.077698 0.826074 0.325373 -0.486864
O1    O     O_R   0.043230 0.549300 0.667990 -0.526018
O2    O     O_R   0.832470 0.905110 0.169660 -0.466805
O3    O     O_R   0.667530 0.405110 0.830340 -0.505460
O4    O     O_R   0.332470 0.405110 0.169660 -0.466815
O5    O     O_R   0.054010 0.748440 0.822860 -0.502274
O6    O     O_R   0.945990 0.748440 0.177140 -0.493217
O7    O     O_R   0.554010 0.248440 0.822860 -0.502275
O8    O     O_R   0.445990 0.248440 0.177140 -0.493232
O9    O     O_3   0.165160 0.665150 0.749190 -0.292967
O10   O     O_3   0.834840 0.665150 0.250810 -0.278033
O11   O     O_3   0.665160 0.165150 0.749190 -0.292966
O12   O     O_R   0.956770 0.549300 0.332010 -0.542442
O13   O     O_3   0.334840 0.165150 0.250810 -0.278033
O14   O     O_R   0.178620 0.457600 0.674100 -0.529440
O15   O     O_R   0.821380 0.457600 0.325900 -0.509671
O16   O     O_R   0.678620 0.957600 0.674100 -0.529440
O17   O     O_R   0.321380 0.957600 0.325900 -0.509670
O18   O     O_R   0.284680 0.542100 0.669460 -0.527976
O19   O     O_R   0.715320 0.542100 0.330540 -0.530802
O20   O     O_R   0.784680 0.042100 0.669460 -0.527976
O21   O     O_R   0.215320 0.042100 0.330540 -0.530803
O22   O     O_R   0.262860 0.790390 0.676650 -0.496590
O23   O     O_R   0.543230 0.049300 0.667990 -0.526018
O24   O     O_R   0.737140 0.790390 0.323350 -0.498893
O25   O     O_R   0.762860 0.290390 0.676650 -0.496590
O26   O     O_R   0.237140 0.290390 0.323350 -0.498892
O27   O     O_R   0.167460 0.907030 0.670940 -0.519485
O28   O     O_R   0.832540 0.907030 0.329060 -0.514113
O29   O     O_R   0.667460 0.407030 0.670940 -0.519486
O30   O     O_R   0.332540 0.407030 0.329060 -0.514109
O31   O     O_R   0.053950 0.750220 0.675100 -0.453337
O32   O     O_R   0.946050 0.750220 0.324900 -0.464808
O33   O     O_R   0.553950 0.250220 0.675100 -0.453337
O34   O     O_R   0.456770 0.049300 0.332010 -0.542442
O35   O     O_R   0.446050 0.250220 0.324900 -0.464805
O36   O     O_R   0.043300 0.547370 0.827390 -0.511607
O37   O     O_R   0.956700 0.547370 0.172610 -0.520360
O38   O     O_R   0.543300 0.047370 0.827390 -0.511608
O39   O     O_R   0.456700 0.047370 0.172610 -0.520355
O40   O     O_R   0.178690 0.455820 0.821860 -0.489817
O41   O     O_R   0.821310 0.455820 0.178140 -0.486573
O42   O     O_R   0.678690 0.955820 0.821860 -0.489819
O43   O     O_R   0.321310 0.955820 0.178140 -0.486568
O44   O     O_R   0.284750 0.540170 0.828860 -0.540001
O45   O     O_R   0.262920 0.788600 0.824420 -0.528796
O46   O     O_R   0.715250 0.540170 0.171140 -0.545643
O47   O     O_R   0.784750 0.040170 0.828860 -0.540005
O48   O     O_R   0.215250 0.040170 0.171140 -0.545641
O49   O     O_R   0.737080 0.788600 0.175580 -0.534597
O50   O     O_R   0.762920 0.288600 0.824420 -0.528795
O51   O     O_R   0.237080 0.288600 0.175580 -0.534594
O52   O     O_R   0.167530 0.905110 0.830340 -0.505457

loop_
_geom_bond_atom_site_label_1
_geom_bond_atom_site_label_2
_ccdc_geom_bond_type
C59   H5    S    
C4    H79   S    
C43   C73   S    
C31   H29   S    
Cr3   O11   S    
Cr12  O9    S    
C82   O38   A    
C8    C26   A    
Cr1   O14   S    
C4    H76   S    
C84   O39   A    
C101  H57   S    
C19   C20   A    
C17   C91   S    
C47   O25   A    
C42   N9    S    
C3    H72   S    
C70   O34   A    
C37   H56   S    
C46   C86   S    
C7    N4    S    
C9    C25   A    
C90   C95   D    
C5    H83   S    
C32   H31   S    
C40   H78   S    
Cr8   O18   S    
C104  H69   S    
C11   C19   A    
Cr7   O17   S    
C93   H1    S    
C13   C18   A    
C100  H51   S    
C63   H89   S    
Cr9   O49   S    
C6    H86   S    
C3    H73   S    
C11   N2    S    
Cr4   O4    S    
Cr5   O12   S    
Cr11  O51   S    
C43   C52   D    
Cr10  O25   S    
C102  H60   S    
C49   C54   S    
C29   H27   S    
C29   C33   A    
C25   C30   A    
C64   H2    S    
C8    C70   S    
Cr3   O33   S    
C44   C71   S    
C100  H50   S    
C34   C35   A    
Cr5   O10   S    
Cr2   O32   S    
C60   H8    S    
Cr9   O46   S    
C48   O26   A    
C36   C76   S    
C50   C85   D    
C91   C96   D    
Cr11  O21   S    
C60   C82   S    
C95   H12   S    
C41   C49   D    
C54   N1    S    
C98   H42   S    
Cr6   O16   S    
C4    N12   S    
C53   H39   S    
Cr3   O7    S    
C8    C22   A    
C97   H34   S    
C48   C88   S    
C61   H10   S    
C23   C27   A    
C80   O5    A    
C76   O45   A    
C56   N6    S    
C49   H36   S    
C3    N11   S    
C58   C80   S    
C42   C51   D    
Cr11  O26   S    
H80   N2    S    
C68   O32   A    
C92   H17   S    
Cr8   O22   S    
C83   C88   D    
C27   C32   A    
C60   C66   D    
C26   C31   A    
C66   H4    S    
C21   C22   A    
Cr5   O37   S    
C13   N4    S    
C45   O27   A    
C78   O3    A    
C44   N11   S    
C35   H35   S    
C96   H23   S    
C7    H90   S    
C12   C16   A    
Cr10  O50   S    
Cr7   O39   S    
C62   H7    S    
C25   C26   A    
C34   H33   S    
C73   O41   A    
C92   C97   D    
C30   H30   S    
Cr3   O3    S    
C75   O48   A    
C17   O15   A    
C58   C64   D    
C4    H77   S    
H53   N7    S    
C98   N1    S    
C75   O43   A    
C42   C74   S    
H84   N3    S    
C58   H6    S    
C81   O6    A    
C30   C34   A    
C72   H11   S    
C69   O33   A    
C61   C86   D    
C14   H22   S    
C79   O4    A    
C6    H85   S    
C7    H91   S    
C2    C67   S    
C73   O46   A    
C3    H74   S    
C10   C20   A    
Cr10  O11   S    
C41   N8    S    
Cr3   O29   S    
C69   O23   A    
H71   N11   S    
C91   H16   S    
Cr4   O8    S    
C71   O40   A    
C63   C64   S    
H62   N9    S    
C37   C77   S    
C103  N9    S    
C89   C93   D    
C68   C94   S    
C89   H14   S    
Cr2   O10   S    
Cr4   O30   S    
Cr1   O9    S    
Cr7   O43   S    
C45   C85   S    
C5    N2    S    
C33   H32   S    
C24   C94   A    
C41   C75   S    
C99   H46   S    
C74   O47   A    
H49   N6    S    
C98   H41   S    
C18   H26   S    
C1    O14   A    
C23   C24   A    
Cr9   O24   S    
C104  N10   S    
H88   N4    S    
Cr11  O13   S    
Cr2   O6    S    
C27   H28   S    
C44   C53   D    
C40   C79   S    
C13   C21   A    
C101  H54   S    
C50   H9    S    
C47   O29   A    
C67   O1    A    
Cr9   O19   S    
C28   O16   A    
Cr6   O38   S    
C99   H47   S    
C90   H15   S    
C17   O19   A    
C102  N8    S    
C104  H68   S    
Cr8   O44   S    
H66   N10   S    
Cr1   O40   S    
C11   C15   A    
Cr4   O35   S    
C10   C14   A    
C36   H45   S    
Cr8   O45   S    
C12   C22   A    
C77   O49   A    
C37   C55   D    
C43   N10   S    
H40   N1    S    
C10   N12   S    
Cr5   O41   S    
C84   O8    A    
C74   O42   A    
C39   O17   A    
C72   C87   D    
Cr6   O23   S    
Cr11  O48   S    
Cr10  O20   S    
C15   H24   S    
Cr12  O27   S    
C71   O44   A    
C62   C84   S    
Cr4   O13   S    
C51   H37   S    
C53   C57   S    
C40   C57   D    
C80   O36   A    
C62   C65   D    
C2    C19   A    
C103  H65   S    
C59   C63   D    
C87   H20   S    
C59   C81   S    
C12   N3    S    
C9    C69   S    
C7    H92   S    
H58   N8    S    
C70   O35   A    
C55   N5    S    
C5    H81   S    
C61   C95   S    
C50   C93   S    
C83   H13   S    
C5    H82   S    
C6    N3    S    
Cr12  O31   S    
H75   N12   S    
C1    O18   A    
C1    C92   S    
C38   C78   S    
C82   O7    A    
C85   H18   S    
C81   O37   A    
C104  H70   S    
C57   N7    S    
Cr12  O5    S    
C100  H52   S    
C32   C33   A    
C16   H25   S    
C102  H59   S    
C46   O28   A    
C6    H87   S    
C46   O24   A    
Cr10  O47   S    
C28   O20   A    
Cr6   O42   S    
Cr8   O9    S    
C9    C21   A    
Cr2   O2    S    
C101  N7    S    
C103  H63   S    
Cr1   O1    S    
H44   N5    S    
C76   O52   A    
C31   C35   A    
Cr7   O13   S    
Cr7   O34   S    
Cr9   O10   S    
C101  H55   S    
C51   C55   S    
C78   O50   A    
C48   O30   A    
C20   C94   A    
C86   H19   S    
C103  H64   S    
C79   O51   A    
C88   H21   S    
C65   H3    S    
C100  N6    S    
C36   C54   D    
Cr6   O11   S    
C38   H67   S    
C99   N5    S    
C99   H48   S    
C72   C96   S    
C68   O12   A    
C77   O2    A    
C24   C29   A    
C38   C56   D    
C98   H43   S    
C16   C18   A    
C65   C66   S    
C83   C97   S    
C2    C23   A    
C102  H61   S    
C14   C15   A    
C28   C90   S    
Cr1   O36   S    
Cr2   O28   S    
Cr12  O52   S    
Cr5   O15   S    
C52   H38   S    
C45   O22   A    
C39   C89   S    
C52   C56   S    
C47   C87   S    
C39   O21   A    
C67   O31   A    
