data_mof_unit_24371.cif
_audit_creation_date              2013-03-05T15:54:37-0500
_audit_creation_method            fapswitch 2.2
_symmetry_space_group_name_H-M    P1
_symmetry_Int_Tables_number       1
_space_group_crystal_system       triclinic
_cell_length_a                    14.040943
_cell_length_b                    14.053847
_cell_length_c                    30.07939
_cell_angle_alpha                 96.828298
_cell_angle_beta                  97.070316
_cell_angle_gamma                 61.31276
_cell_volume                      5155.17094443

loop_
_atom_site_label
_atom_site_type_symbol
_atom_site_description
_atom_site_fract_x
_atom_site_fract_y
_atom_site_fract_z
_atom_type_partial_charge
O1    O     O_R   0.688580 0.499770 0.460490 -0.548245
O2    O     O_R   0.480400 0.672610 0.462660 -0.548813
C1    C     C_R   0.385512 0.710870 0.442188 0.864383
O3    O     O_R   0.315310 0.685650 0.451800 -0.486760
O4    O     O_R   0.346220 0.474990 0.446280 -0.523870
C2    C     C_R   0.398722 0.381554 0.426387 0.799924
O5    O     O_R   0.492270 0.312460 0.441630 -0.515614
O6    O     O_R   0.669740 0.350480 0.455640 -0.528688
C3    C     C_R   0.710590 0.405841 0.442578 0.795840
O7    O     O_R   0.691150 0.501150 0.557860 -0.514301
O8    O     O_R   0.482790 0.673890 0.552920 -0.522688
C4    C     C_R   0.389459 0.712078 0.568092 0.824694
O9    O     O_R   0.317880 0.687030 0.549170 -0.528247
O10   O     O_R   0.348600 0.476260 0.536540 -0.538810
C5    C     C_R   0.402470 0.382802 0.552337 0.822727
O11   O     O_R   0.494840 0.313840 0.539010 -0.540532
O12   O     O_R   0.672120 0.351750 0.545910 -0.535049
C6    C     C_R   0.712166 0.408007 0.568846 0.801540
Cr1   Cr    Cr6+3 0.581000 0.584320 0.508140 1.012361
Cr2   Cr    Cr6+3 0.339110 0.576430 0.496080 1.060777
Cr3   Cr    Cr6+3 0.579910 0.339270 0.495810 1.007018
O13   O     O_3   0.500010 0.500010 0.500010 -0.363708
C7    C     C_1   0.368547 0.367981 0.379988 -0.018821
C8    C     C_R   0.252592 0.431144 0.268049 0.325764
C9    C     C_R   0.244655 0.423783 0.221196 -0.157412
C10   C     C_R   0.426229 0.267780 0.220100 -0.139781
C11   C     C_R   0.436486 0.275332 0.267736 0.323038
C12   C     C_R   0.346783 0.354353 0.291397 -0.180499
C13   C     C_R   0.329149 0.342251 0.197309 -0.062349
C14   C     C_1   0.309873 0.327632 0.149481 0.057772
C15   C     C_1   0.354328 0.360749 0.339758 0.121127
C16   C     C_1   0.294410 0.306654 0.110221 -0.073358
H1    H     H_    0.171209 0.480641 0.203045 0.196881
H2    H     H_    0.809248 0.462192 0.090922 0.201898
H3    H     H_    0.777442 0.519896 0.399984 0.190961
C17   C     C_R   0.767993 0.370830 0.401002 -0.135384
C18   C     C_R   0.787143 0.272244 0.377022 -0.122442
C19   C     C_R   0.811418 0.254896 0.332185 -0.080524
C20   C     C_R   0.818088 0.335179 0.311309 -0.093786
C21   C     C_R   0.814084 0.427460 0.336852 0.362024
C22   C     C_R   0.788456 0.444773 0.381490 -0.205111
C23   C     C_R   0.794820 0.403279 0.151431 0.377565
C24   C     C_R   0.830234 0.390974 0.108530 -0.170636
C25   C     C_R   0.920397 0.195336 0.111386 -0.210232
C26   C     C_R   0.889434 0.205656 0.154687 0.430409
C27   C     C_R   0.830762 0.310206 0.175744 -0.188443
C28   C     C_1   0.821673 0.320384 0.223326 0.218639
C29   C     C_1   0.819980 0.326147 0.263410 0.128366
C30   C     C_R   0.895884 0.287369 0.088975 -0.188630
H4    H     H_    0.775415 0.212324 0.391756 0.193099
H5    H     H_    0.970797 0.114774 0.096438 0.201898
H6    H     H_    0.819059 0.181493 0.313142 0.219178
H7    H     H_    0.169288 0.884694 0.316464 0.202609
C31   C     C_R   0.367418 0.760224 0.399436 -0.186260
C32   C     C_R   0.458565 0.723365 0.374420 -0.206564
C33   C     C_R   0.445191 0.740046 0.329083 -0.080821
C34   C     C_R   0.340961 0.794354 0.308192 -0.001978
C35   C     C_R   0.249681 0.839624 0.333064 -0.093395
C36   C     C_R   0.261699 0.824344 0.378976 0.454948
C37   C     C_R   0.262425 0.796223 0.141503 0.387673
C38   C     C_R   0.262442 0.816747 0.096434 0.357032
C39   C     C_R   0.380797 0.899270 0.120578 -0.125840
C40   C     C_R   0.390034 0.869448 0.164416 -0.111443
C41   C     C_R   0.324291 0.826363 0.175278 -0.153639
C42   C     C_1   0.324714 0.811298 0.221579 0.199952
C43   C     C_1   0.329298 0.803254 0.261017 0.118988
C44   C     C_R   0.306948 0.883795 0.087733 -0.282179
H8    H     H_    0.540388 0.674314 0.388969 0.173140
H9    H     H_    0.516060 0.706734 0.309884 0.201627
H10   H     H_    0.128373 0.351791 0.876358 0.211224
H11   H     H_    0.228643 0.522576 0.597406 0.197730
C45   C     C_R   0.367613 0.363211 0.592838 -0.163895
C46   C     C_R   0.432129 0.266555 0.614308 -0.205454
C47   C     C_R   0.416163 0.258604 0.658356 0.353507
C48   C     C_R   0.335650 0.349819 0.681365 -0.159952
C49   C     C_R   0.264755 0.443990 0.658594 0.350747
C50   C     C_R   0.280411 0.448753 0.614258 -0.234681
C51   C     C_R   0.214090 0.366196 0.826561 0.433860
C52   C     C_R   0.205111 0.344689 0.868874 -0.268638
C53   C     C_R   0.392722 0.304334 0.892205 0.366551
C54   C     C_R   0.405163 0.321670 0.847706 0.364449
C55   C     C_R   0.315561 0.347757 0.814821 -0.236653
C56   C     C_1   0.326240 0.348885 0.768144 0.312148
C57   C     C_1   0.330658 0.349013 0.728587 0.263011
C58   C     C_R   0.293725 0.308357 0.900885 -0.278044
H12   H     H_    0.498783 0.199415 0.597654 0.200626
C59   C     C_1   0.754532 0.379409 0.613896 -0.048617
C60   C     C_R   0.751144 0.436168 0.731995 0.422861
C61   C     C_R   0.760246 0.419990 0.778224 -0.163840
C62   C     C_R   0.862146 0.222988 0.761867 -0.041287
C63   C     C_R   0.845101 0.238109 0.715305 -0.132662
C64   C     C_R   0.792902 0.344755 0.700639 -0.077840
C65   C     C_R   0.823315 0.314241 0.793128 -0.047071
C66   C     C_1   0.856448 0.299695 0.840436 0.119659
C67   C     C_1   0.776750 0.361069 0.653042 0.136185
C68   C     C_1   0.894170 0.286855 0.878792 -0.022870
C69   C     C_1   0.373244 0.763815 0.612618 -0.079451
C70   C     C_R   0.268060 0.806886 0.716948 -0.098613
C71   C     C_R   0.257639 0.821524 0.763417 -0.090285
C72   C     C_R   0.401366 0.875691 0.773103 0.462944
C73   C     C_R   0.410587 0.859115 0.726538 -0.098046
C74   C     C_R   0.344335 0.824590 0.698600 0.029663
C75   C     C_R   0.325642 0.855385 0.791894 -0.081921
C76   C     C_1   0.310459 0.879454 0.839413 0.161198
C77   C     C_1   0.360185 0.796605 0.651457 0.099664
C78   C     C_1   0.291935 0.906400 0.878290 -0.024986
H13   H     H_    0.218184 0.778871 0.694861 0.212793
H14   H     H_    0.469916 0.872010 0.711967 0.205207
O14   O     O_R   0.167510 0.972920 0.030390 -0.501778
O15   O     O_R   0.990840 0.178580 0.027590 -0.534735
C79   C     C_R   0.950969 0.272397 0.048187 0.838128
O16   O     O_R   0.972840 0.345510 0.038590 -0.535625
O17   O     O_R   0.181550 0.320660 0.045200 -0.540389
C80   C     C_R   0.275675 0.270247 0.065264 0.830086
O18   O     O_R   0.346150 0.177650 0.050510 -0.519816
O19   O     O_R   0.314200 0.996600 0.036060 -0.539646
C81   C     C_R   0.262620 0.951081 0.048162 0.877564
O20   O     O_R   0.168690 0.969990 0.933130 -0.518137
O21   O     O_R   0.991920 0.175870 0.937430 -0.527558
C82   C     C_R   0.950743 0.269822 0.922492 0.810391
O22   O     O_R   0.974010 0.342590 0.941330 -0.530511
O23   O     O_R   0.182630 0.317940 0.955040 -0.549315
C83   C     C_R   0.277462 0.268362 0.940736 0.939984
O24   O     O_R   0.347320 0.174720 0.953250 -0.493235
O25   O     O_R   0.315290 0.993890 0.945900 -0.523602
C84   C     C_R   0.261206 0.951617 0.922721 0.837317
Cr4   Cr    Cr6+3 0.082090 0.079210 0.982490 1.064839
Cr5   Cr    Cr6+3 0.082460 0.324610 0.994920 1.006133
Cr6   Cr    Cr6+3 0.323630 0.087860 0.996130 1.056270
O26   O     O_3   0.162730 0.163890 0.991180 -0.376331
S1    S     S_3+6 0.145898 0.541062 0.296660 0.149669
O27   O     O_2   0.183281 0.623275 0.314198 -0.272554
O28   O     O_2   0.045421 0.594135 0.265425 -0.216954
O29   O     O_3   0.115687 0.498735 0.340392 -0.433543
H15   H     H_    0.122534 0.426349 0.330002 0.315800
S2    S     S_3+6 0.932704 0.086174 0.182872 0.058034
O30   O     O_2   0.967634 0.988592 0.149853 -0.261579
O31   O     O_2   0.026965 0.072065 0.216099 -0.335462
O32   O     O_3   0.829959 0.097596 0.210265 -0.469550
H16   H     H_    0.862006 0.031752 0.227408 0.409759
S3    S     S_3+6 0.221165 0.749287 0.050163 0.127313
O33   O     O_2   0.099954 0.812009 0.040216 -0.263329
O34   O     O_2   0.276575 0.742157 0.009246 -0.310830
O35   O     O_3   0.255476 0.622165 0.061861 -0.459746
H17   H     H_    0.224460 0.593324 0.035730 0.377346
S4    S     S_3+6 0.187549 0.732899 0.156443 0.145346
O36   O     O_2   0.143096 0.778022 0.201582 -0.266500
O37   O     O_2   0.093263 0.749941 0.122794 -0.234318
O38   O     O_3   0.272962 0.599038 0.159005 -0.488311
H18   H     H_    0.229448 0.562607 0.146148 0.365998
S5    S     S_3+6 0.143114 0.886132 0.408900 0.070779
O39   O     O_2   0.099853 0.806889 0.408944 -0.250205
O40   O     O_2   0.169199 0.918291 0.456448 -0.331906
O41   O     O_3   0.047737 0.997428 0.383796 -0.497833
H19   H     H_    0.983432 0.025466 0.401508 0.373113
C85   C     C_2   0.468559 0.884155 0.198982 0.912627
O42   O     O_2   0.437037 0.938201 0.234191 -0.523875
O43   O     O_R   0.578498 0.836374 0.190776 -0.585585
H20   H     H_    0.624261 0.850308 0.216878 0.370878
C86   C     C_2   0.445506 0.950619 0.110244 0.893375
O44   O     O_2   0.430633 0.037775 0.129392 -0.570243
O45   O     O_R   0.522934 0.899162 0.078497 -0.605141
H21   H     H_    0.561561 0.942246 0.074245 0.324757
S6    S     S_3+6 0.095493 0.415620 0.788983 0.084957
O46   O     O_2   0.065753 0.529663 0.779713 -0.244072
O47   O     O_2   0.116275 0.345654 0.745726 -0.299604
O48   O     O_3   0.991157 0.417294 0.811700 -0.505477
H22   H     H_    0.925622 0.480875 0.799752 0.391040
S7    S     S_3+6 0.157428 0.558755 0.684462 0.102944
O49   O     O_2   0.195264 0.581816 0.731425 -0.282996
O50   O     O_2   0.119053 0.657404 0.658476 -0.313411
O51   O     O_3   0.052972 0.532737 0.686089 -0.389274
H23   H     H_    0.034601 0.515159 0.654393 0.353294
S8    S     S_3+6 0.532893 0.303106 0.832001 0.116177
O52   O     O_2   0.522050 0.346256 0.787259 -0.334465
O53   O     O_2   0.580012 0.359621 0.865864 -0.266491
O54   O     O_3   0.620241 0.169153 0.829028 -0.436722
H24   H     H_    0.689870 0.163570 0.821925 0.378836
S9    S     S_3+6 0.493850 0.289288 0.937321 0.117379
O55   O     O_2   0.601313 0.194999 0.925539 -0.259686
O56   O     O_2   0.504284 0.391657 0.944061 -0.265823
O57   O     O_3   0.463410 0.269762 0.986672 -0.505555
H25   H     H_    0.526042 0.261465 0.008075 0.378177
S10   S     S_3+6 0.502263 0.136084 0.684676 0.090384
O58   O     O_2   0.434943 0.105668 0.709264 -0.278477
O59   O     O_2   0.562165 0.045162 0.650591 -0.293366
O60   O     O_3   0.593009 0.154166 0.721745 -0.428218
H26   H     H_    0.630580 0.179460 0.704067 0.354048
S11   S     S_3+6 0.691035 0.570562 0.713318 0.044427
O61   O     O_2   0.750341 0.572862 0.675440 -0.303692
O62   O     O_2   0.574615 0.603834 0.696990 -0.339054
O63   O     O_3   0.695237 0.660390 0.754750 -0.466925
H27   H     H_    0.670617 0.728439 0.739890 0.406381
C87   C     C_2   0.514528 0.181168 0.193776 0.987950
O64   O     O_2   0.546567 0.204647 0.162833 -0.531412
O65   O     O_R   0.560114 0.072750 0.204044 -0.590745
H28   H     H_    0.620108 0.021753 0.184037 0.342739
C88   C     C_2   0.699798 0.512083 0.810924 0.974430
O66   O     O_2   0.601622 0.569273 0.803831 -0.479101
O67   O     O_R   0.754267 0.532787 0.849879 -0.645638
H29   H     H_    0.703807 0.597463 0.869329 0.342674
C89   C     C_2   0.912343 0.111772 0.777872 0.823053
O68   O     O_2   0.991746 0.080603 0.805063 -0.555453
O69   O     O_R   0.867066 0.043513 0.762009 -0.618883
H30   H     H_    0.904157 0.972123 0.776893 0.352616
C90   C     C_2   0.885423 0.142565 0.681920 0.855989
O70   O     O_2   0.977539 0.067163 0.687438 -0.518916
O71   O     O_R   0.817798 0.138973 0.644251 -0.658464
H31   H     H_    0.854284 0.070054 0.624121 0.328393
C91   C     C_2   0.174625 0.801290 0.780827 0.935386
O72   O     O_2   0.093927 0.811889 0.756648 -0.483738
O73   O     O_R   0.189097 0.767773 0.824213 -0.643494
H32   H     H_    0.127145 0.756046 0.831646 0.336708
S12   S     S_3+6 0.484150 0.923353 0.807127 0.075990
O74   O     O_2   0.412558 0.031370 0.830398 -0.323941
O75   O     O_2   0.551199 0.843303 0.841789 -0.300508
O76   O     O_3   0.567375 0.937904 0.775989 -0.447759
H33   H     H_    0.613066 0.960100 0.797876 0.417801
S13   S     S_3+6 0.561749 0.189312 0.297915 0.065149
O77   O     O_2   0.556008 0.091177 0.309468 -0.236384
O78   O     O_2   0.657565 0.152726 0.270639 -0.317268
O79   O     O_3   0.583128 0.253746 0.345647 -0.497362
H34   H     H_    0.575160 0.322620 0.336280 0.311468
S14   S     S_3+6 0.709629 0.536315 0.173875 0.112194
O80   O     O_2   0.779649 0.583609 0.197451 -0.199799
O81   O     O_2   0.639627 0.606837 0.136635 -0.300136
O82   O     O_3   0.628991 0.535067 0.210535 -0.476212
H35   H     H_    0.581847 0.508087 0.192445 0.342351
S15   S     S_3+6 0.833537 0.526210 0.313543 0.133846
O83   O     O_2   0.726270 0.607514 0.292676 -0.252237
O84   O     O_2   0.874215 0.584332 0.349679 -0.254244
O85   O     O_3   0.923348 0.468437 0.273886 -0.424424
H36   H     H_    0.982150 0.400698 0.286243 0.307062

loop_
_geom_bond_atom_site_label_1
_geom_bond_atom_site_label_2
_geom_bond_distance
_ccdc_geom_bond_type
C25   C30   1.403088 A    
O6    C3    1.282697 A    
C87   O65   1.397730 S    
C32   C33   1.385888 A    
C21   S15   1.770510 S    
C11   S13   1.790401 S    
C73   C74   1.396754 A    
S7    O49   1.501490 D    
C31   C32   1.407231 A    
C71   C75   1.417693 A    
C79   O16   1.276210 A    
H11   C50   1.082605 S    
C34   C43   1.421743 S    
S1    O29   1.682210 S    
S14   O80   1.501634 D    
C53   C58   1.419116 A    
C76   C78   1.205638 T    
C80   O18   1.266535 A    
C62   C63   1.415451 A    
O14   C81   1.277935 A    
C83   O24   1.274097 A    
O17   Cr5   1.911541 S    
C26   C27   1.408472 A    
C33   C34   1.390852 A    
C51   S6    1.773663 S    
C5    C45   1.468108 S    
C72   S12   1.771660 S    
C10   C11   1.418715 A    
C65   C66   1.448453 S    
C89   O69   1.397874 S    
C39   C44   1.418355 A    
C56   C57   1.199341 T    
C11   C12   1.419898 A    
C17   C18   1.401655 A    
C18   C19   1.396329 A    
C40   C85   1.491599 S    
O17   C80   1.272477 A    
S15   O85   1.682068 S    
S3    O34   1.503892 D    
C91   O72   1.223040 D    
O4    C2    1.272092 A    
C53   C54   1.434377 A    
C1    C31   1.470300 S    
S12   O75   1.503142 D    
C48   C57   1.432363 S    
C47   S10   1.772912 S    
C5    O11   1.269227 A    
O6    Cr3   1.920123 S    
O19   C81   1.277241 A    
C74   C77   1.440839 S    
C23   C27   1.415398 A    
S5    O41   1.682566 S    
S11   O62   1.501690 D    
C38   C44   1.418127 A    
O15   C79   1.272063 A    
C72   C73   1.403924 A    
C45   C50   1.398715 A    
O57   H25   0.990677 S    
O38   H18   0.989974 S    
O14   Cr4   2.027841 S    
O19   Cr6   1.916644 S    
C60   C64   1.417256 A    
O67   H29   1.013791 S    
C59   C67   1.206142 T    
C3    C17   1.475384 S    
S5    O39   1.503079 D    
C8    C9    1.395348 A    
C88   O66   1.223283 D    
O15   Cr4   1.921391 S    
C30   C79   1.470943 S    
S9    O57   1.681433 S    
C69   C77   1.206002 T    
C73   H14   1.082855 S    
C87   O64   1.223168 D    
O2    Cr1   1.910903 S    
O48   H22   0.989901 S    
Cr3   O13   1.977786 S    
S9    O56   1.502682 D    
O23   Cr5   1.920406 S    
O69   H30   1.012950 S    
S7    O50   1.503402 D    
C17   C22   1.407155 A    
S11   O61   1.503581 D    
C37   S4    1.791348 S    
S2    O32   1.680707 S    
C23   S14   1.770252 S    
S15   O83   1.501192 D    
C54   C55   1.425734 A    
S4    O37   1.502584 D    
C31   C36   1.420205 A    
S6    O48   1.680230 S    
C46   C47   1.396643 A    
C9    C13   1.394878 A    
C60   S11   1.788983 S    
O1    Cr1   2.037826 S    
C89   O68   1.222986 D    
S4    O36   1.503041 D    
C53   S9    1.791126 S    
O10   Cr2   1.915223 S    
Cr1   O13   1.978167 S    
O1    C3    1.268294 A    
C49   C50   1.392415 A    
O22   Cr5   2.025878 S    
S2    O31   1.503147 D    
C47   C48   1.410902 A    
S3    O35   1.681979 S    
C63   C64   1.414617 A    
O4    Cr2   1.917969 S    
C32   H8    1.083626 S    
C90   O70   1.223306 D    
O71   H31   1.013780 S    
S1    O28   1.503149 D    
C35   C36   1.400050 A    
C70   C74   1.395509 A    
C55   C56   1.432961 S    
C64   C67   1.449799 S    
O12   Cr3   1.911250 S    
C70   H13   1.083897 S    
C40   C41   1.408322 A    
Cr5   O26   1.977763 S    
C37   C38   1.419194 A    
C86   O45   1.397616 S    
O43   H20   1.013757 S    
C72   C75   1.417382 A    
S11   O63   1.682157 S    
C48   C49   1.412260 A    
C13   C14   1.439565 S    
C61   C88   1.486990 S    
S13   O78   1.501593 D    
S4    O38   1.681965 S    
C51   C55   1.403353 A    
O82   H35   0.990588 S    
O10   C5    1.276394 A    
O7    Cr1   2.026228 S    
H7    C35   1.083835 S    
O8    Cr1   1.920410 S    
C39   C40   1.403003 A    
O12   C6    1.272331 A    
O41   H19   0.990590 S    
C60   C61   1.416051 A    
O21   C82   1.274293 A    
C66   C68   1.204791 T    
C44   C81   1.489491 S    
S8    O54   1.681221 S    
C4    C69   1.434848 S    
C2    O5    1.269457 A    
O54   H24   0.990649 S    
C25   H5    1.083005 S    
C38   S3    1.785221 S    
C21   C22   1.395948 A    
Cr2   O13   1.976455 S    
C33   H9    1.082943 S    
C91   O73   1.398317 S    
O25   C84   1.272802 A    
S7    O51   1.680460 S    
C39   C86   1.481647 S    
C23   C24   1.401694 A    
C1    O3    1.269168 A    
C10   C87   1.486398 S    
S14   O82   1.682041 S    
C52   C58   1.395710 A    
C63   C90   1.490444 S    
O51   H23   0.990522 S    
C62   C65   1.412196 A    
Cr6   O26   1.976181 S    
O18   Cr6   2.032947 S    
S13   O77   1.502319 D    
C27   C28   1.436639 S    
S6    O46   1.501990 D    
C26   S2    1.771944 S    
O9    Cr2   2.033996 S    
H10   C52   1.082922 S    
S12   O74   1.503479 D    
C68   C82   1.432234 S    
C12   C15   1.440637 S    
C24   C30   1.398931 A    
C25   C26   1.392977 A    
C8    C12   1.410072 A    
O65   H28   1.013933 S    
C28   C29   1.201181 T    
S12   O76   1.681956 S    
S14   O81   1.503615 D    
C7    C15   1.202191 T    
C88   O67   1.398039 S    
O32   H16   0.990572 S    
O11   Cr3   2.036011 S    
O29   H15   0.989803 S    
O3    Cr2   2.031231 S    
C36   S5    1.769618 S    
O45   H21   1.013859 S    
C78   C84   1.432764 S    
C6    C59   1.432900 S    
S10   O60   1.680790 S    
C37   C41   1.414135 A    
O35   H17   0.990554 S    
C16   C80   1.427163 S    
O63   H27   0.990000 S    
C85   O43   1.397824 S    
O2    C1    1.277642 A    
O76   H33   0.990773 S    
Cr4   O26   1.978246 S    
O60   H26   0.990685 S    
C42   C43   1.195927 T    
O5    Cr3   2.029180 S    
S3    O33   1.503373 D    
C54   S8    1.799358 S    
S13   O79   1.678454 S    
C14   C16   1.201747 T    
C18   H4    1.082843 S    
C51   C52   1.376472 A    
C8    S1    1.775033 S    
C34   C35   1.395400 A    
C19   C20   1.400171 A    
O7    C6    1.271931 A    
C45   C46   1.402174 A    
C2    C7    1.425647 S    
C41   C42   1.432266 S    
S6    O47   1.502922 D    
O85   H36   0.990001 S    
S10   O59   1.503431 D    
O24   Cr6   2.033278 S    
C58   C83   1.468262 S    
C90   O71   1.398405 S    
S5    O40   1.503418 D    
C61   C65   1.411058 A    
C49   S7    1.770462 S    
H3    C22   1.082958 S    
C86   O44   1.221456 D    
S8    O53   1.500760 D    
C46   H12   1.082750 S    
O16   Cr5   2.037819 S    
S9    O55   1.502877 D    
C20   C21   1.406804 A    
O25   Cr6   1.915991 S    
C85   O42   1.223013 D    
O73   H32   1.013931 S    
C10   C13   1.412200 A    
S15   O84   1.502965 D    
C70   C71   1.403762 A    
O20   Cr4   2.037070 S    
C75   C76   1.446957 S    
C19   H6    1.082668 S    
C82   O22   1.269266 A    
S2    O30   1.502666 D    
S10   O58   1.502785 D    
O20   C84   1.269270 A    
C4    O9    1.268539 A    
O23   C83   1.273811 A    
H2    C24   1.083338 S    
O79   H34   0.990934 S    
C71   C91   1.489154 S    
S1    O27   1.502631 D    
O8    C4    1.275680 A    
C9    H1    1.083551 S    
C20   C29   1.433669 S    
C62   C89   1.486363 S    
S8    O52   1.502386 D    
O21   Cr4   1.910378 S    
