data_mof_unit_28256.cif
_audit_creation_date              2012-12-10T17:51:25-0500
_audit_creation_method            fapswitch 2.2
_symmetry_space_group_name_H-M    P1
_symmetry_Int_Tables_number       1
_space_group_crystal_system       triclinic
_cell_length_a                    9.915833
_cell_length_b                    10.689429
_cell_length_c                    16.590787
_cell_angle_alpha                 93.275545
_cell_angle_beta                  84.649222
_cell_angle_gamma                 91.04728
_cell_volume                      1747.8620676

loop_
_atom_site_label
_atom_site_type_symbol
_atom_type_description
_atom_site_fract_x
_atom_site_fract_y
_atom_site_fract_z
_atom_type_partial_charge
C1    C     C_R   0.502008 0.738904 0.492013 0.904852
C2    C     C_R   0.346936 0.449451 0.783441 -0.190577
C3    C     C_R   0.421974 0.432985 0.135646 -0.145780
C4    C     C_R   0.415934 0.474863 0.216444 -0.213585
C5    C     C_R   0.654964 0.431095 0.218169 -0.194120
C6    C     C_R   0.660911 0.388940 0.137109 -0.180203
C7    C     C_R   0.543863 0.386648 0.096024 0.205078
C8    C     C_2   0.447804 0.313567 0.970169 -0.237528
C9    C     C_2   0.555257 0.350516 0.009336 -0.227775
C10   C     C_R   0.531665 0.472129 0.258620 -0.033868
C11   C     C_R   0.277445 0.878567 0.431632 -0.164680
C12   C     C_R   0.480826 0.489905 0.652682 0.898305
C13   C     C_R   0.152520 0.936842 0.434152 -0.167539
C14   C     C_R   0.128857 0.046411 0.482395 -0.249713
C15   C     C_R   0.234229 0.104756 0.522107 0.245115
C16   C     C_R   0.368579 0.057818 0.505211 0.084262
C17   C     C_R   0.383360 0.934841 0.472911 0.070547
C18   C     C_R   0.503511 0.872209 0.484711 -0.105942
C19   C     C_R   0.618436 0.939005 0.505579 -0.216510
C20   C     C_R   0.612955 0.066464 0.518214 -0.222664
C21   C     C_R   0.489892 0.127314 0.515914 -0.128844
C22   C     C_R   0.843116 0.686974 0.587430 -0.142529
C23   C     C_R   0.496866 0.260639 0.507125 0.885375
C24   C     C_R   0.899871 0.800135 0.610611 -0.278246
C25   C     C_R   0.038188 0.813819 0.603780 -0.173803
C26   C     C_R   0.120627 0.709487 0.583512 0.220425
C27   C     C_R   0.066196 0.597893 0.543014 0.094228
C28   C     C_R   0.921001 0.593846 0.543203 0.136319
C29   C     C_R   0.933403 0.409325 0.459025 -0.136762
C30   C     C_R   0.076235 0.409002 0.459332 -0.138391
C31   C     C_R   0.519383 0.496838 0.346251 0.844153
C32   C     C_R   0.469230 0.442725 0.733787 -0.026939
C33   C     C_R   0.577537 0.375172 0.757585 -0.218701
C34   C     C_R   0.566442 0.320972 0.831752 -0.154483
C35   C     C_R   0.448198 0.336693 0.884217 0.208970
C36   C     C_R   0.336670 0.396825 0.858628 -0.177697
H1    H     H_    0.670827 0.363102 0.718618 0.160159
H2    H     H_    0.756542 0.357028 0.106599 0.126597
H3    H     H_    0.712829 0.893135 0.511935 0.176213
H4    H     H_    0.290987 0.790357 0.396657 0.154078
H5    H     H_    0.071255 0.892482 0.403271 0.153699
H6    H     H_    0.027256 0.083442 0.491084 0.132004
H7    H     H_    0.705707 0.117288 0.529075 0.165279
H8    H     H_    0.883712 0.335210 0.425291 0.144895
H9    H     H_    0.737788 0.675670 0.604676 0.220966
H10   H     H_    0.836691 0.875225 0.638530 0.167187
H11   H     H_    0.320055 0.507536 0.246161 0.154307
H12   H     H_    0.078450 0.901722 0.627736 0.176919
H13   H     H_    0.133691 0.334689 0.425925 0.151601
H14   H     H_    0.745669 0.427865 0.249629 0.155158
H15   H     H_    0.651522 0.371761 0.975756 0.151265
H16   H     H_    0.244460 0.409086 0.898580 0.127958
H17   H     H_    0.331646 0.439595 0.104361 0.125081
H18   H     H_    0.260173 0.496282 0.764748 0.177021
H19   H     H_    0.351310 0.292952 0.003583 0.146650
H20   H     H_    0.652246 0.271366 0.849506 0.130489
N1    N     N_R   0.857140 0.501200 0.500750 -0.112696
N2    N     N_R   0.142740 0.501280 0.500770 -0.107239
O1    O     O_R   0.385310 0.683220 0.500000 -0.602572
O2    O     O_R   0.614640 0.683250 0.500010 -0.638923
O3    O     O_R   0.371780 0.500010 0.615800 -0.577890
O4    O     O_R   0.601110 0.500030 0.615800 -0.646729
O5    O     O_R   0.385360 0.316750 0.499990 -0.595005
O6    O     O_R   0.614690 0.316780 0.500000 -0.629570
O7    O     O_R   0.398890 0.499970 0.384200 -0.623884
O8    O     O_R   0.628220 0.499990 0.384200 -0.612695
Zn1   Zn    Zn3+2 0.346870 0.499980 0.499990 0.964163
Zn2   Zn    Zn3+2 0.653130 0.500020 0.500010 0.928556
N3    N     N_2   0.200892 0.200527 0.584065 -0.280135
H21   H     H_    0.104064 0.234766 0.585272 0.216694
C37   C     C_3   0.237338 0.175563 0.664043 -0.751263
H22   H     H_    0.201979 0.253269 0.707662 0.237416
H23   H     H_    0.348852 0.169080 0.664391 0.246204
H24   H     H_    0.188379 0.087161 0.684495 0.234074
I1    I     I_    0.266797 0.738382 0.669841 -0.416781

loop_
_geom_bond_atom_site_label_1
_geom_bond_atom_site_label_2
_ccdc_geom_bond_type
C31   O8    A    
O8    Zn2   S    
C34   H20   S    
C16   C21   A    
C11   C13   A    
C35   C36   A    
C9    H15   S    
C13   H5    S    
C28   N1    A    
C1    C18   S    
O6    Zn2   S    
C34   C35   A    
C3    C7    A    
C1    O1    A    
C5    C6    A    
C15   C16   A    
C2    C32   A    
C18   C19   A    
N3    C37   S    
O1    Zn1   S    
C10   C31   S    
C19   C20   A    
C16   C17   A    
O7    Zn1   S    
C6    H2    S    
C36   H16   S    
C14   H6    S    
C23   O5    A    
C22   C28   A    
C13   C14   A    
C12   C32   S    
N3    H21   S    
C8    H19   S    
C17   C18   A    
C15   N3    S    
O5    Zn1   S    
C24   C25   A    
C2    H18   S    
C1    O2    A    
C37   H23   S    
C31   O7    A    
C8    C9    D    
C25   C26   A    
C33   H1    S    
C8    C35   S    
C29   C30   A    
C12   O4    A    
O3    Zn1   S    
C26   I1    S    
C26   C27   A    
C25   H12   S    
C19   H3    S    
C23   O6    A    
C30   H13   S    
C29   N1    A    
C21   C23   S    
C29   H8    S    
C22   C24   A    
C5    H14   S    
N1    Zn2   S    
C4    C10   A    
C3    C4    A    
C20   H7    S    
C2    C36   A    
C7    C9    S    
C11   C17   A    
C27   N2    A    
C37   H24   S    
C6    C7    A    
O4    Zn2   S    
C24   H10   S    
C32   C33   A    
C37   H22   S    
C12   O3    A    
C3    H17   S    
C30   N2    A    
C33   C34   A    
C11   H4    S    
N2    Zn1   S    
C5    C10   A    
C22   H9    S    
C20   C21   A    
O2    Zn2   S    
C27   C28   A    
C14   C15   A    
C4    H11   S    
