data_mof_unit_8001.cif
_audit_creation_date              2012-12-10T20:45:30-0500
_audit_creation_method            fapswitch 2.2
_symmetry_space_group_name_H-M    P1
_symmetry_Int_Tables_number       1
_space_group_crystal_system       triclinic
_cell_length_a                    10.899137
_cell_length_b                    10.794476
_cell_length_c                    10.015943
_cell_angle_alpha                 89.171691
_cell_angle_beta                  91.618883
_cell_angle_gamma                 92.207412
_cell_volume                      1176.93059487

loop_
_atom_site_label
_atom_site_type_symbol
_atom_type_description
_atom_site_fract_x
_atom_site_fract_y
_atom_site_fract_z
_atom_type_partial_charge
C1    C     C_R   0.503880 0.261279 0.500668 0.930948
C2    C     C_R   0.173970 0.622608 0.986199 -0.148317
C3    C     C_R   0.933017 0.493347 0.383349 -0.184003
C4    C     C_R   0.874203 0.505609 0.503842 -0.074870
C5    C     C_R   0.945723 0.530521 0.619616 0.029010
C6    C     C_R   0.071864 0.528125 0.615186 -0.213730
C7    C     C_R   0.129256 0.514229 0.494411 -0.089868
C8    C     C_R   0.058861 0.508319 0.374973 -0.035362
C9    C     C_R   0.904137 0.689105 0.783909 -0.303360
C10   C     C_R   0.870751 0.722976 0.911101 -0.004771
C11   C     C_R   0.830575 0.629206 0.003375 0.030315
C12   C     C_R   0.260948 0.505012 0.497909 0.870309
C13   C     C_R   0.815540 0.503385 0.959687 -0.066031
C14   C     C_R   0.850409 0.474456 0.831608 -0.174531
C15   C     C_R   0.895364 0.565774 0.745745 0.127694
C16   C     C_R   0.487403 0.061759 0.614862 0.073271
C17   C     C_R   0.510067 0.130201 0.499978 -0.091411
C18   C     C_R   0.535979 0.070605 0.381903 -0.169531
C19   C     C_R   0.545462 0.942839 0.381247 -0.048821
C20   C     C_R   0.512807 0.873185 0.497113 -0.230913
C21   C     C_R   0.479110 0.934830 0.611480 0.192697
C22   C     C_3   0.530553 0.923511 0.751707 -0.248485
C23   C     C_R   0.506266 0.739792 0.499156 0.856103
C24   C     C_3   0.551601 0.063427 0.749882 -0.253318
C25   C     C_R   0.478690 0.392570 0.071705 0.308924
C26   C     C_R   0.524196 0.605001 0.069815 -0.156368
C27   C     C_R   0.529715 0.603641 0.927855 -0.091753
C28   C     C_R   0.475626 0.393251 0.930029 0.161001
C29   C     C_3   0.358031 0.317595 0.927260 -0.471228
C30   C     C_3   0.367327 0.309808 0.078668 -0.486976
C31   C     C_R   0.740260 0.501495 0.501734 0.883510
C32   C     C_R   0.198446 0.698256 0.095782 -0.102394
C33   C     C_R   0.164097 0.657856 0.222513 -0.003140
C34   C     C_R   0.108184 0.539379 0.241691 0.062068
C35   C     C_R   0.086783 0.460844 0.130978 -0.023862
C36   C     C_R   0.117332 0.505554 0.003371 -0.150937
H1    H     H_    0.281298 0.371807 0.886862 0.218258
H2    H     H_    0.362259 0.226659 0.879776 0.203976
H3    H     H_    0.179143 0.719923 0.305942 0.131112
H4    H     H_    0.125386 0.541602 0.706503 0.158276
H5    H     H_    0.938856 0.758825 0.714022 0.155499
N1    N     N_R   0.499160 0.499140 0.142800 -0.091222
N2    N     N_R   0.499160 0.499180 0.857150 -0.115935
O1    O     O_R   0.500020 0.316790 0.614690 -0.611517
O2    O     O_R   0.500000 0.316760 0.385350 -0.621603
O3    O     O_R   0.316770 0.500030 0.614670 -0.617621
O4    O     O_R   0.316750 0.499990 0.385330 -0.629913
O5    O     O_R   0.500000 0.683240 0.614650 -0.598421
O6    O     O_R   0.499980 0.683210 0.385310 -0.661654
O7    O     O_R   0.683250 0.500010 0.614670 -0.615797
O8    O     O_R   0.683230 0.499970 0.385330 -0.591408
Zn1   Zn    Zn3+2 0.500010 0.500020 0.653130 0.975880
Zn2   Zn    Zn3+2 0.499990 0.499980 0.346870 0.974283
H6    H     H_    0.198667 0.654861 0.887723 0.194673
C37   C     C_2   0.813714 0.661933 0.143813 0.412255
H7    H     H_    0.737149 0.623574 0.197183 0.119912
O9    O     O_2   0.887636 0.730929 0.202656 -0.553582
C38   C     C_2   0.771195 0.394525 0.039878 0.329677
H8    H     H_    0.772040 0.302366 0.997838 0.120592
O10   O     O_2   0.731181 0.403213 0.150870 -0.606374
H9    H     H_    0.845556 0.379112 0.798212 0.165491
H10   H     H_    0.559062 0.124381 0.293190 0.209940
C39   C     C_2   0.605192 0.889241 0.266160 0.475791
H11   H     H_    0.659063 0.807955 0.280075 0.090124
O11   O     O_2   0.598493 0.938219 0.155732 -0.594821
C40   C     C_2   0.433538 0.882797 0.849552 0.385052
H12   H     H_    0.454444 0.887113 0.955693 0.119039
O12   O     O_2   0.331660 0.845007 0.811356 -0.588674
H13   H     H_    0.615596 0.869697 0.759708 0.132090
H14   H     H_    0.501869 0.110686 0.827064 0.131431
C41   C     C_2   0.686612 0.101718 0.752832 0.401321
H15   H     H_    0.740145 0.088258 0.844362 0.111499
O13   O     O_2   0.736659 0.148447 0.655862 -0.571436
H16   H     H_    0.541759 0.691134 0.120416 0.144252
H17   H     H_    0.241718 0.789323 0.082235 0.156868
H18   H     H_    0.559036 0.686222 0.875043 0.145053
H19   H     H_    0.293012 0.353270 0.131101 0.222719
H20   H     H_    0.389497 0.215915 0.117069 0.206375
C42   C     C_2   0.040047 0.330537 0.148222 0.360186
H21   H     H_    0.019437 0.293445 0.246568 0.104802
O14   O     O_2   0.026414 0.261810 0.052692 -0.571079
H22   H     H_    0.097761 0.448925 0.916808 0.170112
H23   H     H_    0.881373 0.480261 0.292888 0.206923
C43   C     C_2   0.879671 0.857620 0.940385 0.442920
H24   H     H_    0.938642 0.918864 0.881215 0.073965
O15   O     O_2   0.817831 0.903067 0.025185 -0.511157

loop_
_geom_bond_atom_site_label_1
_geom_bond_atom_site_label_2
_ccdc_geom_bond_type
C40   O12   D    
C37   H7    S    
C39   O11   D    
C16   C21   A    
C35   C36   A    
C32   H17   S    
C24   H14   S    
C7    C8    A    
C25   C28   A    
C26   C27   A    
C33   H3    S    
C28   C29   S    
C43   O15   D    
C18   C19   A    
N1    Zn2   S    
C5    C6    A    
N2    Zn1   S    
C23   O6    A    
C38   O10   D    
O3    Zn1   S    
C2    C32   A    
C34   C35   A    
C10   C43   S    
C22   C40   S    
C30   H19   S    
C19   C20   A    
C19   C39   S    
C16   C17   A    
C29   H2    S    
O7    Zn1   S    
C9    C10   A    
C22   H13   S    
O4    Zn2   S    
O1    Zn1   S    
C40   H12   S    
O2    Zn2   S    
C16   C24   S    
C21   C22   S    
C12   O4    A    
C33   C34   A    
C7    C12   S    
C43   H24   S    
C12   O3    A    
C3    C8    A    
C2    H6    S    
C36   H22   S    
C42   O14   D    
C18   H10   S    
C13   C38   S    
C38   H8    S    
C14   H9    S    
C42   H21   S    
O8    Zn2   S    
C29   C30   S    
C1    O1    A    
C20   C23   S    
C17   C18   A    
C8    C34   S    
C37   O9    D    
C3    H23   S    
C6    H4    S    
C31   O7    A    
C27   H18   S    
C11   C37   S    
C26   N1    A    
C41   O13   D    
C2    C36   A    
C25   C30   S    
C23   O5    A    
C1    C17   S    
C31   O8    A    
C4    C5    A    
C25   N1    A    
C6    C7    A    
C28   N2    A    
C9    H5    S    
C32   C33   A    
C9    C15   A    
C41   H15   S    
C11   C13   A    
C1    O2    A    
O6    Zn2   S    
C35   C42   S    
C26   H16   S    
C22   C24   S    
C5    C15   S    
C4    C31   S    
C10   C11   A    
C39   H11   S    
C30   H20   S    
C27   N2    A    
O5    Zn1   S    
C20   C21   A    
C29   H1    S    
C14   C15   A    
C13   C14   A    
C3    C4    A    
C24   C41   S    
