data_mof_unit_67555.cif
_audit_creation_date              2012-10-26T18:48:18-0400
_audit_creation_method            fapswitch 2.2
_symmetry_space_group_name_H-M    P1
_symmetry_Int_Tables_number       1
_space_group_crystal_system       triclinic
_cell_length_a                    10.660933
_cell_length_b                    8.683683
_cell_length_c                    7.586709
_cell_angle_alpha                 101.872318
_cell_angle_beta                  95.266642
_cell_angle_gamma                 94.26536
_cell_volume                      681.280922652

loop_
_atom_site_label
_atom_site_type_symbol
_atom_type_description
_atom_site_fract_x
_atom_site_fract_y
_atom_site_fract_z
_atom_type_partial_charge
C1    C     C_R   0.492321 0.201147 0.456173 0.562837
C2    C     C_3   0.123121 0.493132 0.501737 0.045603
C3    C     C_3   0.977118 0.613134 0.639701 0.008944
C4    C     C_3   0.022977 0.389562 0.360279 0.007932
C5    C     C_2   0.464228 0.035664 0.444482 -0.025606
C6    C     C_2   0.534545 0.964351 0.556534 -0.025354
C7    C     C_3   0.091461 0.413051 0.825186 -0.400480
C8    C     C_3   0.908307 0.589682 0.175000 -0.400618
C9    C     C_3   0.952482 0.747999 0.791337 -0.412517
C10   C     C_3   0.046778 0.254835 0.207919 -0.411386
C11   C     C_3   0.406778 0.304555 0.938934 -0.130130
C12   C     C_R   0.508042 0.798732 0.543922 0.556509
C13   C     C_3   0.590505 0.696603 0.061319 -0.128994
C14   C     C_3   0.340770 0.962182 0.332295 -0.396635
C15   C     C_3   0.659421 0.039582 0.663316 -0.396630
C16   C     C_R   0.259869 0.494430 0.500104 0.539261
C17   C     C_R   0.740159 0.506578 0.499979 0.541756
C18   C     C_3   0.045468 0.465914 0.654878 0.009910
C19   C     C_3   0.954656 0.536799 0.345176 0.009630
C20   C     C_3   0.944285 0.360807 0.513530 -0.117597
C21   C     C_3   0.055987 0.641904 0.486478 -0.118729
C22   C     C_3   0.877015 0.509377 0.498300 0.046249
Cu1   Cu    Cu3+1 0.514140 0.517380 0.684380 0.905527
Cu2   Cu    Cu3+1 0.485860 0.482620 0.315620 0.906512
H1    H     H_    0.898340 0.244886 0.524533 0.093927
H2    H     H_    0.921891 0.847849 0.732703 0.113826
H3    H     H_    0.876581 0.708680 0.866758 0.145398
H4    H     H_    0.958627 0.215380 0.114656 0.124967
H5    H     H_    0.122972 0.293756 0.132784 0.146499
H6    H     H_    0.076384 0.154130 0.265569 0.113773
H7    H     H_    0.338595 0.258140 0.021586 0.096496
H8    H     H_    0.350719 0.312454 0.813124 0.145810
H9    H     H_    0.478899 0.219665 0.916807 0.120706
H10   H     H_    0.656646 0.746371 0.978388 0.095358
H11   H     H_    0.515926 0.778212 0.086111 0.129154
H12   H     H_    0.102731 0.757625 0.475545 0.092822
H13   H     H_    0.648508 0.689100 0.185867 0.144397
H14   H     H_    0.267420 0.046235 0.355048 0.100719
H15   H     H_    0.353960 0.937838 0.186174 0.131643
H16   H     H_    0.301655 0.852637 0.368903 0.146636
H17   H     H_    0.645062 0.131201 0.782429 0.152842
H18   H     H_    0.713641 0.950551 0.714760 0.113030
H19   H     H_    0.718868 0.092459 0.574515 0.114329
H20   H     H_    0.008487 0.388420 0.895819 0.129034
H21   H     H_    0.135787 0.301206 0.787768 0.104578
H22   H     H_    0.159935 0.505534 0.913971 0.160204
H23   H     H_    0.991127 0.614922 0.104328 0.128644
H24   H     H_    0.840082 0.496945 0.086150 0.159863
H25   H     H_    0.863528 0.701168 0.212577 0.105175
H26   H     H_    0.040502 0.788759 0.884523 0.125578
N1    N     N_2   0.464560 0.456420 0.038510 -0.143237
N2    N     N_2   0.535440 0.543580 0.961490 -0.144402
O1    O     O_R   0.509190 0.286130 0.619780 -0.527110
O2    O     O_R   0.490810 0.713870 0.380220 -0.527209
O3    O     O_R   0.485310 0.256770 0.308360 -0.509170
O4    O     O_R   0.514690 0.743230 0.691640 -0.511201
O5    O     O_R   0.328790 0.514640 0.655680 -0.513921
O6    O     O_R   0.671210 0.485360 0.344320 -0.513565
O7    O     O_R   0.304910 0.485280 0.344260 -0.511703
O8    O     O_R   0.695090 0.514720 0.655740 -0.509884

loop_
_geom_bond_atom_site_label_1
_geom_bond_atom_site_label_2
_ccdc_geom_bond_type
C11   H8    S    
C2    C4    S    
Cu1   Cu2   S    
C8    H24   S    
Cu1   O1    S    
C3    C9    S    
C14   H14   S    
C13   N2    S    
C2    C16   S    
C10   H6    S    
C13   H13   S    
C17   C22   S    
C17   O6    A    
C7    C18   S    
C2    C21   S    
C5    C14   S    
C8    H23   S    
C11   H7    S    
Cu1   O4    S    
C21   H12   S    
C7    H20   S    
Cu2   O3    S    
Cu1   O8    S    
C10   H5    S    
C15   H17   S    
Cu1   N2    S    
C12   O4    A    
Cu2   N1    S    
Cu2   O7    S    
C1    C5    S    
C7    H21   S    
C15   H19   S    
C14   H16   S    
C20   C22   S    
C9    H2    S    
C13   H11   S    
C18   C20   S    
C16   O5    A    
C6    C12   S    
C5    C6    D    
C14   H15   S    
C1    O3    A    
C3    C21   S    
C8    C19   S    
C11   N1    S    
C20   H1    S    
C17   O8    A    
Cu2   O2    S    
N1    N2    D    
C4    C20   S    
C7    H22   S    
C11   H9    S    
C19   C22   S    
C9    H3    S    
C3    C18   S    
Cu2   O6    S    
C10   H4    S    
Cu1   O5    S    
C1    O1    A    
C3    C22   S    
C13   H10   S    
C19   C21   S    
C6    C15   S    
C4    C19   S    
C4    C10   S    
C8    H25   S    
C12   O2    A    
C9    H26   S    
C15   H18   S    
C2    C18   S    
C16   O7    A    
