data_mof_unit_6243.cif
_audit_creation_date              2012-12-10T17:19:00-0500
_audit_creation_method            fapswitch 2.2
_symmetry_space_group_name_H-M    P1
_symmetry_Int_Tables_number       1
_space_group_crystal_system       triclinic
_cell_length_a                    10.216839
_cell_length_b                    10.702705
_cell_length_c                    13.479166
_cell_angle_alpha                 91.623749
_cell_angle_beta                  100.471599
_cell_angle_gamma                 95.914308
_cell_volume                      1439.98475421

loop_
_atom_site_label
_atom_site_type_symbol
_atom_type_description
_atom_site_fract_x
_atom_site_fract_y
_atom_site_fract_z
_atom_type_partial_charge
C1    C     C_R   0.051915 0.733273 0.489565 0.894270
C2    C     C_2   0.974852 0.063214 0.438080 -0.175177
C3    C     C_2   0.431694 0.496805 0.518848 -0.055173
C4    C     C_2   0.571404 0.476699 0.504782 -0.092487
C5    C     C_R   0.093051 0.508997 0.686724 0.900429
C6    C     C_R   0.905979 0.485270 0.313912 0.935831
C7    C     C_R   0.139579 0.506529 0.796702 -0.141735
C8    C     C_R   0.849015 0.447300 0.209375 -0.126469
C9    C     C_R   0.132568 0.594402 0.963018 -0.171105
C10   C     C_R   0.787997 0.264768 0.094485 -0.165546
C11   C     C_R   0.077080 0.575140 0.861065 -0.163376
C12   C     C_R   0.944403 0.266505 0.502182 0.893002
C13   C     C_R   0.877695 0.331864 0.172232 -0.215409
C14   C     C_R   0.250202 0.442447 0.837567 -0.066225
C15   C     C_R   0.738012 0.502839 0.160842 -0.092185
C16   C     C_R   0.302953 0.456653 0.942778 0.021892
C17   C     C_R   0.634240 0.424853 0.097127 0.039103
C18   C     C_R   0.250940 0.543229 0.003335 0.093282
C19   C     C_R   0.662667 0.306879 0.059234 0.101053
C20   C     C_R   0.415673 0.397829 0.987746 0.052200
C21   C     C_R   0.502559 0.459240 0.071429 0.063138
C22   C     C_1   0.271461 0.661727 0.169212 0.203443
C23   C     C_R   0.450956 0.545060 0.131404 -0.144820
C24   C     C_1   0.583654 0.109472 0.952020 0.199371
C25   C     C_2   0.743066 0.643282 0.164990 0.888271
C26   C     C_2   0.320060 0.374833 0.768480 0.898438
C27   C     C_2   0.780919 0.079185 0.524755 0.926477
C28   C     C_2   0.218582 0.927978 0.485336 0.941160
C29   C     C_2   0.670422 0.668504 0.593411 1.049092
C30   C     C_2   0.324267 0.369206 0.372976 1.012315
C31   C     C_R   0.441943 0.278783 0.954158 -0.206163
C32   C     C_R   0.322506 0.580463 0.101148 -0.031336
C33   C     C_R   0.563428 0.232550 0.989691 -0.018666
C34   C     C_2   0.077713 0.866969 0.471767 -0.210103
C35   C     C_2   0.902424 0.132181 0.487763 -0.193114
C36   C     C_2   0.968511 0.928219 0.445491 -0.203872
H1    H     H_    0.964736 0.289157 0.208213 0.190545
H2    H     H_    0.420485 0.554930 0.583181 0.205048
H3    H     H_    0.817380 0.809256 0.239085 0.351977
H4    H     H_    0.310349 0.233422 0.665036 0.367703
H5    H     H_    0.601423 0.974732 0.492233 0.372836
H6    H     H_    0.349634 0.083436 0.524274 0.338797
H7    H     H_    0.571038 0.818281 0.611653 0.352991
H8    H     H_    0.412169 0.330204 0.254978 0.339186
H9    H     H_    0.990247 0.621977 0.831168 0.202630
H10   H     H_    0.086489 0.655662 0.008461 0.160784
H11   H     H_    0.812968 0.175273 0.068212 0.163421
H12   H     H_    0.507752 0.580217 0.204412 0.185995
H13   H     H_    0.366024 0.219314 0.902237 0.166148
H14   H     H_    0.054356 0.108179 0.403538 0.242597
H15   H     H_    0.869068 0.877668 0.435291 0.243699
H16   H     H_    0.586084 0.390801 0.465838 0.189766
N1    N     N_2   0.322180 0.446120 0.460900 -0.165775
N2    N     N_2   0.677820 0.553880 0.539100 -0.166941
N3    N     N_1   0.230587 0.726480 0.223851 -0.139790
N4    N     N_1   0.599714 0.010972 0.921831 -0.132867
O1    O     O_R   0.935190 0.693030 0.507870 -0.593373
O2    O     O_R   0.820835 0.715646 0.246881 -0.816502
O3    O     O_2   0.436172 0.410888 0.763491 -0.618962
O4    O     O_R   0.252277 0.270696 0.709007 -0.774556
O5    O     O_2   0.761383 0.114895 0.607274 -0.596901
O6    O     O_R   0.684762 0.995259 0.462415 -0.789567
O7    O     O_2   0.307485 0.866399 0.469056 -0.576087
O8    O     O_R   0.250904 0.054036 0.518893 -0.790163
O9    O     O_2   0.761834 0.706656 0.662614 -0.604271
O10   O     O_R   0.565068 0.741424 0.564654 -0.795980
O11   O     O_2   0.232611 0.286185 0.344798 -0.630811
O12   O     O_R   0.064810 0.306970 0.492130 -0.557884
O13   O     O_R   0.423754 0.392340 0.314952 -0.859975
O14   O     O_R   0.142080 0.658430 0.482770 -0.569994
O15   O     O_R   0.857920 0.341570 0.517230 -0.614581
O16   O     O_R   0.969700 0.527180 0.651960 -0.580588
O17   O     O_R   0.030300 0.472820 0.348040 -0.613400
O18   O     O_R   0.176600 0.492580 0.626860 -0.608032
O19   O     O_R   0.823400 0.507420 0.373140 -0.587889
O20   O     O_2   0.684018 0.696206 0.093770 -0.595711
Zn1   Zn    Zn3+2 0.861850 0.523100 0.516760 1.031499
Zn2   Zn    Zn3+2 0.138150 0.476900 0.483240 1.035173

loop_
_geom_bond_atom_site_label_1
_geom_bond_atom_site_label_2
_ccdc_geom_bond_type
C2    C35   D    
C8    C13   A    
H4    O4    S    
O14   Zn2   S    
C6    O19   A    
C7    C11   A    
C12   O12   A    
C22   C32   S    
C4    H16   S    
C5    O16   A    
C15   C25   S    
C29   N2    S    
C5    O18   A    
C2    H14   S    
C7    C14   A    
C3    H2    S    
O17   Zn2   S    
C31   C33   A    
C27   O5    D    
C26   O3    D    
C13   H1    S    
C30   O11   D    
N2    Zn1   S    
C28   C34   S    
C9    H10   S    
H5    O6    S    
C31   H13   S    
C1    C34   S    
O12   Zn2   S    
C30   N1    S    
O1    Zn1   S    
C19   C33   A    
C5    C7    S    
C6    C8    S    
C27   C35   S    
H3    O2    S    
C17   C21   A    
O16   Zn1   S    
C27   O6    S    
C1    O1    A    
O19   Zn1   S    
C10   C19   A    
C16   C20   A    
H8    O13   S    
C14   C26   S    
C12   C35   S    
C9    C11   A    
C36   H15   S    
C29   O9    D    
C28   O8    S    
C12   O15   A    
C8    C15   A    
C21   C23   A    
C14   C16   A    
C11   H9    S    
C18   C32   A    
C25   O2    S    
C3    C4    S    
H6    O8    S    
O15   Zn1   S    
C30   O13   S    
C6    O17   A    
C2    C36   S    
C15   C17   A    
C23   H12   S    
C4    N2    D    
C1    O14   A    
C10   C13   A    
C22   N3    T    
C24   N4    T    
C24   C33   S    
C25   O20   D    
C23   C32   A    
N1    Zn2   S    
C3    N1    D    
H7    O10   S    
C17   C19   A    
C34   C36   D    
C29   O10   S    
C28   O7    D    
C9    C18   A    
C20   C21   A    
C16   C18   A    
O18   Zn2   S    
C10   H11   S    
C26   O4    S    
C20   C31   A    
