data_mof_unit_41314.cif
_audit_creation_date              2012-12-11T15:25:59-0500
_audit_creation_method            fapswitch 2.2
_symmetry_space_group_name_H-M    P1
_symmetry_Int_Tables_number       1
_space_group_crystal_system       triclinic
_cell_length_a                    24.965612
_cell_length_b                    17.219223
_cell_length_c                    15.602139
_cell_angle_alpha                 90.016202
_cell_angle_beta                  50.143409
_cell_angle_gamma                 89.993224
_cell_volume                      5148.77164

loop_
_atom_site_label
_atom_site_type_symbol
_atom_type_description
_atom_site_fract_x
_atom_site_fract_y
_atom_site_fract_z
_atom_type_partial_charge
C1    C     C_R   0.351140 0.142000 0.758434 -0.101110
C2    C     C_2   0.351211 0.750997 0.870573 0.454203
C3    C     C_2   0.356103 0.255672 0.857341 0.465106
C4    C     C_2   0.691197 0.838722 0.022860 0.445222
C5    C     C_2   0.190217 0.664151 0.025555 0.457820
C6    C     C_2   0.807449 0.343414 0.980809 0.455576
C7    C     C_2   0.854159 0.753546 0.861638 0.460352
C8    C     C_2   0.192814 0.344847 0.018157 0.452502
C9    C     C_2   0.690532 0.298151 0.137678 -0.152086
C10   C     C_2   0.307476 0.706487 0.869341 -0.134348
C11   C     C_2   0.309530 0.298807 0.861449 -0.161844
C12   C     C_R   0.665312 0.889000 0.199253 -0.086000
C13   C     C_2   0.760557 0.849076 0.958021 -0.162492
C14   C     C_2   0.259512 0.653549 0.961140 -0.183597
C15   C     C_2   0.737824 0.350834 0.044200 -0.162994
C16   C     C_2   0.808561 0.797223 0.864035 -0.161089
C17   C     C_2   0.262456 0.351808 0.954828 -0.175214
C18   C     C_R   0.609665 0.112947 0.593737 -0.183986
C19   C     C_R   0.410243 0.859962 0.404904 -0.162777
C20   C     C_R   0.388006 0.106429 0.406530 -0.172486
C21   C     C_R   0.608312 0.887072 0.595354 -0.211463
C22   C     C_R   0.106028 0.619872 0.594230 -0.159400
C23   C     C_R   0.649062 0.141654 0.240561 -0.095051
C24   C     C_R   0.913471 0.356975 0.405274 -0.184075
C25   C     C_R   0.890602 0.609919 0.404735 -0.178642
C26   C     C_R   0.090015 0.359869 0.595109 -0.088670
C27   C     C_R   0.685486 0.109830 0.407968 0.491435
C28   C     C_R   0.328270 0.865293 0.591086 0.455850
C29   C     C_R   0.312674 0.103662 0.591745 0.421820
C30   C     C_R   0.684330 0.887298 0.409894 0.486186
C31   C     C_R   0.181954 0.618389 0.407635 0.522512
C32   C     C_R   0.833578 0.359400 0.591323 0.500910
C33   C     C_R   0.813666 0.606323 0.590075 0.439595
C34   C     C_R   0.347412 0.862817 0.769492 -0.101771
C35   C     C_R   0.169478 0.362440 0.408659 0.490542
C36   C     C_R   0.559619 0.140462 0.239577 -0.027122
C37   C     C_R   0.438251 0.862358 0.766323 -0.013088
C38   C     C_R   0.440110 0.140603 0.760573 -0.000468
C39   C     C_R   0.576101 0.889707 0.199282 -0.028884
C40   C     C_R   0.075113 0.612255 0.201143 -0.031319
C41   C     C_R   0.923437 0.391328 0.801899 -0.039773
C42   C     C_R   0.938896 0.639468 0.763324 -0.017678
C43   C     C_R   0.076850 0.392158 0.197483 -0.039045
C44   C     C_R   0.382537 0.183219 0.792413 -0.049055
C45   C     C_R   0.850309 0.641090 0.760363 -0.124322
C46   C     C_R   0.645169 0.868277 0.137808 -0.026863
C47   C     C_R   0.617456 0.182828 0.206927 -0.036228
C48   C     C_R   0.378644 0.822219 0.803880 -0.037419
C49   C     C_R   0.881131 0.681728 0.795662 -0.032969
C50   C     C_R   0.146608 0.373298 0.133994 -0.029237
C51   C     C_R   0.144193 0.633923 0.139909 -0.030568
C52   C     C_R   0.853694 0.372262 0.865223 -0.033153
C53   C     C_R   0.674806 0.135019 0.500817 0.032735
C54   C     C_R   0.353712 0.822580 0.496947 0.031773
C55   C     C_R   0.320815 0.121969 0.499036 0.055443
C56   C     C_R   0.166358 0.393390 0.196108 -0.099709
C57   C     C_R   0.673206 0.864642 0.504146 0.039805
C58   C     C_R   0.168174 0.647967 0.501237 0.017024
C59   C     C_R   0.859588 0.316236 0.497019 0.032281
C60   C     C_R   0.823729 0.627276 0.496013 0.061181
C61   C     C_R   0.145729 0.321406 0.502967 -0.032676
C62   C     C_R   0.240844 0.143254 0.460928 0.540891
C63   C     C_R   0.772571 0.822815 0.485887 0.583173
C64   C     C_R   0.745171 0.250263 0.442854 0.550993
C65   C     C_R   0.290425 0.701606 0.545065 0.547758
C66   C     C_R   0.723309 0.669211 0.516711 0.582013
C67   C     C_R   0.164799 0.612355 0.200503 -0.085795
C68   C     C_R   0.221095 0.294326 0.546448 0.547580
C69   C     C_R   0.237185 0.763309 0.445806 0.553614
C70   C     C_R   0.796603 0.192817 0.546759 0.558812
C71   C     C_R   0.685680 0.730037 0.522254 -0.286632
C72   C     C_R   0.264355 0.243846 0.543788 -0.237448
C73   C     C_R   0.286143 0.803897 0.440431 -0.212169
C74   C     C_R   0.748439 0.149801 0.550473 -0.203347
C75   C     C_R   0.196521 0.193798 0.464506 -0.211841
C76   C     C_R   0.810121 0.762052 0.480519 -0.293268
C77   C     C_R   0.793227 0.292309 0.438493 -0.217535
C78   C     C_R   0.833782 0.392960 0.803518 -0.055069
C79   C     C_R   0.241473 0.660358 0.549880 -0.201570
C80   C     C_R   0.710771 0.805717 0.506514 -0.082457
C81   C     C_R   0.274129 0.169365 0.501040 -0.076466
C82   C     C_R   0.311941 0.773169 0.490326 -0.080226
C83   C     C_R   0.723243 0.178969 0.498804 -0.078203
C84   C     C_R   0.186967 0.268434 0.507360 -0.064761
C85   C     C_R   0.785324 0.686235 0.495509 -0.096636
C86   C     C_R   0.818352 0.264074 0.490648 -0.082916
C87   C     C_R   0.215461 0.691763 0.500648 -0.094241
C88   C     C_2   0.644028 0.255022 0.141625 0.451566
Cl1   Cl    Cl    0.767600 0.093155 0.276903 -0.492229
Cl2   Cl    Cl    0.803231 0.918616 0.467522 -0.521551
Cl3   Cl    Cl    0.710512 0.291285 0.383744 -0.579188
Cl4   Cl    Cl    0.323360 0.663253 0.607812 -0.588674
Cl5   Cl    Cl    0.692758 0.573458 0.534582 -0.492318
Cl6   Cl    Cl    0.214823 0.390309 0.592290 -0.579739
Cl7   Cl    Cl    0.202005 0.805204 0.388055 -0.497574
Cl8   Cl    Cl    0.828021 0.157180 0.613035 -0.515426
Cl9   Cl    Cl    0.369039 0.732167 0.961536 -0.511876
Cl10  Cl    Cl    0.622586 0.275477 0.055671 -0.512648
Cl11  Cl    Cl    0.653939 0.780063 0.980024 -0.550769
Cl12  Cl    Cl    0.239222 0.871804 0.709774 -0.496517
Cl13  Cl    Cl    0.378071 0.276641 0.942521 -0.515836
Cl14  Cl    Cl    0.845171 0.288017 0.025621 -0.519948
Cl15  Cl    Cl    0.153309 0.723792 0.983024 -0.513512
Cl16  Cl    Cl    0.154906 0.290227 0.973029 -0.537742
Cl17  Cl    Cl    0.874117 0.773197 0.949765 -0.529065
Cl18  Cl    Cl    0.232115 0.086442 0.724622 -0.497813
Cl19  Cl    Cl    0.765627 0.888206 0.275029 -0.504900
Cl20  Cl    Cl    0.265486 0.607061 0.277373 -0.529643
Cl21  Cl    Cl    0.747681 0.352816 0.718156 -0.514158
Cl22  Cl    Cl    0.732050 0.591557 0.722353 -0.506037
Cl23  Cl    Cl    0.254425 0.356457 0.279883 -0.537416
Cl24  Cl    Cl    0.252993 0.048599 0.408154 -0.537168
H1    H     H_    0.304382 0.157523 0.772416 0.175528
H2    H     H_    0.436861 0.847358 0.318177 0.158874
H3    H     H_    0.409871 0.108879 0.320271 0.167659
H4    H     H_    0.585519 0.882657 0.681881 0.163537
H5    H     H_    0.085631 0.622813 0.679644 0.155180
H6    H     H_    0.940690 0.343567 0.318571 0.164114
H7    H     H_    0.915042 0.616658 0.317628 0.161400
H8    H     H_    0.063473 0.347293 0.681809 0.162141
H9    H     H_    0.524002 0.155374 0.225080 0.149430
H10   H     H_    0.472998 0.848154 0.782720 0.143436
H11   H     H_    0.475171 0.155483 0.776154 0.148730
H12   H     H_    0.717853 0.890073 0.168991 0.192225
H13   H     H_    0.547621 0.892029 0.168725 0.140962
H14   H     H_    0.045744 0.611715 0.172079 0.139594
H15   H     H_    0.952362 0.393470 0.831685 0.145891
H16   H     H_    0.972802 0.653647 0.781382 0.148160
H17   H     H_    0.048057 0.394874 0.167487 0.141121
H18   H     H_    0.637667 0.718666 0.536866 0.191662
H19   H     H_    0.291777 0.263073 0.572776 0.181797
H20   H     H_    0.302007 0.860805 0.401570 0.212558
H21   H     H_    0.730753 0.094221 0.592921 0.204326
H22   H     H_    0.170196 0.175657 0.433292 0.198807
H23   H     H_    0.696251 0.156975 0.225150 0.189829
H24   H     H_    0.858108 0.773546 0.465941 0.194052
H25   H     H_    0.808619 0.348916 0.398784 0.198237
H26   H     H_    0.224109 0.604167 0.590681 0.212012
H27   H     H_    0.297874 0.719192 0.812105 0.198707
H28   H     H_    0.702113 0.284979 0.192250 0.199520
H29   H     H_    0.782262 0.886324 0.985061 0.177869
H30   H     H_    0.297719 0.285423 0.807180 0.162322
H31   H     H_    0.715676 0.386322 0.016450 0.173483
H32   H     H_    0.281136 0.615497 0.987564 0.165236
H33   H     H_    0.284648 0.386947 0.982820 0.169005
H34   H     H_    0.296974 0.851217 0.794856 0.196869
H35   H     H_    0.797735 0.784632 0.808290 0.163421
H36   H     H_    0.803225 0.656229 0.775223 0.181540
H37   H     H_    0.219120 0.399361 0.164065 0.187866
H38   H     H_    0.217244 0.612296 0.170826 0.189180
H39   H     H_    0.780999 0.398908 0.835596 0.186681
H40   H     H_    0.588542 0.115334 0.679595 0.154626
N1    N     N_R   0.388930 0.078160 0.705470 -0.038826
N2    N     N_R   0.419500 0.922160 0.443350 -0.074336
N3    N     N_R   0.419500 0.077840 0.443350 -0.083011
N4    N     N_R   0.580500 0.922160 0.556650 -0.080750
N5    N     N_R   0.080500 0.577840 0.556650 -0.076957
N6    N     N_R   0.919500 0.422160 0.443350 -0.075782
N7    N     N_R   0.919500 0.577840 0.443350 -0.075832
N8    N     N_R   0.080500 0.422160 0.556650 -0.075653
N9    N     N_R   0.626210 0.077590 0.443410 -0.103435
N10   N     N_R   0.373790 0.922410 0.556590 -0.090416
N11   N     N_R   0.373790 0.077590 0.556590 -0.101491
N12   N     N_R   0.611070 0.921840 0.294530 -0.049397
N13   N     N_R   0.626210 0.922410 0.443410 -0.102587
N14   N     N_R   0.126210 0.577590 0.443410 -0.097798
N15   N     N_R   0.873790 0.422410 0.556590 -0.093067
N16   N     N_R   0.873790 0.577590 0.556590 -0.100438
N17   N     N_R   0.126210 0.422410 0.443410 -0.093221
N18   N     N_R   0.554800 0.077270 0.294580 -0.063685
N19   N     N_R   0.445200 0.922730 0.705420 -0.059649
N20   N     N_R   0.445200 0.077270 0.705420 -0.060553
N21   N     N_R   0.554800 0.922730 0.294580 -0.061558
N22   N     N_R   0.054800 0.577270 0.294580 -0.060557
N23   N     N_R   0.611070 0.078160 0.294530 -0.047113
N24   N     N_R   0.945200 0.422730 0.705420 -0.065854
N25   N     N_R   0.945200 0.577270 0.705420 -0.062926
N26   N     N_R   0.054800 0.422730 0.294580 -0.060784
N27   N     N_R   0.388930 0.921840 0.705470 -0.046009
N28   N     N_R   0.888930 0.578160 0.705470 -0.044958
N29   N     N_R   0.111070 0.421840 0.294530 -0.055195
N30   N     N_R   0.111070 0.578160 0.294530 -0.051507
N31   N     N_R   0.888930 0.421840 0.705470 -0.056439
N32   N     N_R   0.580500 0.077840 0.556650 -0.078542
Ni1   Ni    Ni4+2 0.382710 0.000000 0.629850 0.327754
Ni2   Ni    Ni4+2 0.617290 0.000000 0.370150 0.302160
Ni3   Ni    Ni4+2 0.882710 0.500000 0.629850 0.306891
Ni4   Ni    Ni4+2 0.117290 0.500000 0.370150 0.293936
Ni5   Ni    Ni4+2 0.513020 0.000000 0.629850 0.230768
Ni6   Ni    Ni4+2 0.486980 0.000000 0.370150 0.227833
Ni7   Ni    Ni4+2 0.013020 0.500000 0.629850 0.237575
Ni8   Ni    Ni4+2 0.986980 0.500000 0.370150 0.218555

loop_
_geom_bond_atom_site_label_1
_geom_bond_atom_site_label_2
_ccdc_geom_bond_type
C65   Cl4   S    
C5    Cl15  S    
C43   N26   A    
C65   C79   A    
C20   N3    A    
C30   Cl19  S    
N24   N31   A    
C45   H36   S    
C64   C77   A    
C29   N11   A    
C17   H33   S    
C74   C83   A    
C39   N21   A    
C58   C87   S    
N22   N30   A    
C66   C85   A    
C79   C87   A    
C76   H24   S    
C75   H22   S    
C28   N10   A    
C4    C46   S    
C21   C57   A    
C16   H35   S    
C39   H13   S    
C31   C58   A    
N3    Ni6   S    
C26   C61   A    
C77   H25   S    
N6    Ni8   S    
C21   H4    S    
C9    C88   D    
C9    H28   S    
C24   N6    A    
C75   C84   A    
C23   N23   A    
C56   N29   A    
C42   N25   A    
C30   C57   A    
N21   Ni6   S    
N7    N16   A    
N19   Ni5   S    
C36   C47   A    
C63   Cl2   S    
C78   N31   A    
C31   Cl20  S    
C4    C13   D    
C41   H15   S    
C45   N28   A    
C6    C15   D    
N13   Ni2   S    
C2    Cl9   S    
C70   C74   A    
N8    N17   A    
C7    Cl17  S    
C69   C73   A    
C25   C60   A    
C13   H29   S    
C55   C81   S    
C41   C52   A    
C38   H11   S    
C18   C53   A    
C42   H16   S    
N18   N23   A    
N4    Ni5   S    
C3    Cl13  S    
N2    Ni6   S    
C73   H20   S    
N15   Ni3   S    
N16   Ni3   S    
C67   H38   S    
C57   C80   S    
N19   N27   A    
C34   N27   A    
C1    H1    S    
C20   C55   A    
C52   C78   A    
C25   H7    S    
C71   C80   A    
N29   Ni4   S    
N6    N15   A    
C63   C80   A    
C40   C51   A    
C14   H32   S    
C3    C44   S    
C23   C47   A    
C32   Cl21  S    
C68   C84   A    
C43   H17   S    
C7    C49   S    
C12   C46   A    
C53   C83   S    
C10   C14   S    
C28   C54   A    
C25   N7    A    
N24   Ni7   S    
C51   C67   A    
C29   C55   A    
C19   H2    S    
C2    C48   S    
C50   C56   A    
C70   Cl8   S    
N5    Ni7   S    
C64   C83   A    
C38   C44   A    
N9    Ni2   S    
N28   Ni3   S    
N31   Ni3   S    
C12   N12   A    
N26   Ni8   S    
C1    C44   A    
C66   C71   A    
C12   H12   S    
C31   N14   A    
C18   N32   A    
C68   C72   A    
N25   N28   A    
C40   H14   S    
C45   C49   A    
C13   C16   S    
N12   N21   A    
C35   C61   A    
N30   Ni4   S    
C37   C48   A    
C1    N1    A    
C8    Cl16  S    
C5    C14   D    
C39   C46   A    
C15   H31   S    
C19   C54   A    
C7    C16   D    
N17   Ni4   S    
C62   C81   A    
N23   Ni2   S    
C77   C86   A    
C33   C60   A    
C66   Cl5   S    
C35   N17   A    
N14   Ni4   S    
C29   Cl18  S    
C4    Cl11  S    
C33   N16   A    
C34   C48   A    
C10   H27   S    
C70   C86   A    
C8    C50   S    
C73   C82   A    
C54   C82   S    
C35   Cl23  S    
C78   H39   S    
C72   H19   S    
C26   N8    A    
C11   C17   S    
C36   N18   A    
N7    Ni8   S    
N2    N10   A    
C72   C81   A    
N8    Ni7   S    
C26   H8    S    
C69   Cl7   S    
C61   C84   S    
C69   C87   A    
N5    N14   A    
C37   N19   A    
C20   H3    S    
C60   C85   S    
C27   C53   A    
C43   C50   A    
C38   N20   A    
N27   Ni1   S    
C22   N5    A    
N20   Ni5   S    
C22   C58   A    
N18   Ni6   S    
C24   H6    S    
N25   Ni7   S    
C64   Cl3   S    
C23   H23   S    
N11   Ni1   S    
N3    N11   A    
C47   C88   S    
N10   Ni1   S    
C36   H9    S    
C9    C15   S    
N12   Ni2   S    
C27   N9    A    
C8    C17   D    
C40   N22   A    
C34   H34   S    
C28   Cl12  S    
C65   C82   A    
N1    Ni1   S    
N4    N13   A    
N9    N32   A    
C24   C59   A    
N1    N20   A    
C74   H21   S    
C21   N4    A    
C27   Cl1   S    
C6    Cl14  S    
C62   C75   A    
C11   H30   S    
C68   Cl6   S    
C59   C86   S    
N26   N29   A    
C3    C11   D    
C42   C49   A    
C41   N24   A    
C37   H10   S    
C71   H18   S    
C79   H26   S    
C62   Cl24  S    
C63   C76   A    
C32   N15   A    
C19   N2    A    
N32   Ni5   S    
C5    C51   S    
C33   Cl22  S    
C30   N13   A    
C32   C59   A    
C6    C52   S    
C56   H37   S    
C22   H5    S    
C76   C85   A    
C88   Cl10  S    
C67   N30   A    
N22   Ni8   S    
C18   H40   S    
C2    C10   D    
