data_mof_unit_47829.cif
_audit_creation_date              2012-12-10T17:31:27-0500
_audit_creation_method            fapswitch 2.2
_symmetry_space_group_name_H-M    P1
_symmetry_Int_Tables_number       1
_space_group_crystal_system       triclinic
_cell_length_a                    18.949191
_cell_length_b                    18.778904
_cell_length_c                    12.324045
_cell_angle_alpha                 89.775219
_cell_angle_beta                  129.409467
_cell_angle_gamma                 90.304958
_cell_volume                      3388.27584578

loop_
_atom_site_label
_atom_site_type_symbol
_atom_type_description
_atom_site_fract_x
_atom_site_fract_y
_atom_site_fract_z
_atom_type_partial_charge
C1    C     C_R   0.615784 0.900666 0.658225 0.773245
C2    C     C_R   0.612667 0.102347 0.653467 0.778738
C3    C     C_R   0.114720 0.399833 0.656648 0.776353
C4    C     C_R   0.111521 0.603266 0.651870 0.780654
C5    C     C_R   0.230089 0.783007 0.028346 -0.031515
C6    C     C_R   0.257232 0.249484 0.076005 -0.075518
C7    C     C_R   0.732466 0.281953 0.030132 -0.031536
C8    C     C_R   0.756891 0.750383 0.077729 -0.076811
C9    C     C_R   0.671678 0.255225 0.050245 0.070395
C10   C     C_R   0.674342 0.747938 0.056438 0.079394
C11   C     C_R   0.170027 0.755580 0.049042 0.073047
C12   C     C_R   0.175484 0.248367 0.057417 0.078718
C13   C     C_R   0.596675 0.215410 0.941204 -0.238434
C14   C     C_R   0.595339 0.775040 0.929881 -0.216805
C15   C     C_R   0.094289 0.716563 0.939020 -0.236416
C16   C     C_R   0.096081 0.275752 0.931848 -0.214869
C17   C     C_R   0.590610 0.194706 0.827036 -0.189112
C18   C     C_R   0.599361 0.802440 0.828603 -0.185858
C19   C     C_R   0.088249 0.695486 0.824973 -0.189050
C20   C     C_R   0.098745 0.302508 0.828929 -0.185113
C21   C     C_R   0.285100 0.841189 0.110201 0.395175
C22   C     C_R   0.324134 0.197230 0.162782 0.361003
C23   C     C_R   0.787374 0.340193 0.111512 0.395099
C24   C     C_R   0.823646 0.697881 0.163459 0.363094
C25   C     C_R   0.262221 0.813853 0.277136 -0.318600
C26   C     C_R   0.248235 0.170463 0.259362 -0.325597
C27   C     C_R   0.761738 0.315319 0.276129 -0.318963
C28   C     C_R   0.746529 0.669174 0.257176 -0.323749
C29   C     C_R   0.675396 0.163726 0.738382 -0.179164
C30   C     C_R   0.691906 0.853584 0.766675 -0.169545
C31   C     C_R   0.171933 0.666500 0.733734 -0.182121
C32   C     C_R   0.189133 0.350773 0.761563 -0.170411
C33   C     C_R   0.689446 0.990547 0.294486 0.080639
C34   C     C_R   0.187905 0.481496 0.293302 0.080317
C35   C     C_R   0.341464 0.998523 0.631022 0.360652
C36   C     C_R   0.841427 0.500298 0.630852 0.362521
C37   C     C_R   0.311772 0.995185 0.709513 -0.264711
C38   C     C_R   0.811557 0.499677 0.709143 -0.265526
C39   C     C_R   0.386131 0.100696 0.344650 0.825617
C40   C     C_R   0.382793 0.902121 0.340716 0.832288
C41   C     C_R   0.885869 0.600603 0.344371 0.822297
C42   C     C_R   0.882887 0.402260 0.340679 0.830829
C43   C     C_R   0.372629 0.989135 0.852696 -0.257825
C44   C     C_R   0.872135 0.493926 0.852313 -0.252890
C45   C     C_R   0.466546 0.991766 0.925234 0.016729
C46   C     C_R   0.966050 0.493583 0.924904 0.016869
C47   C     C_R   0.496828 0.996559 0.844189 0.247830
C48   C     C_R   0.996627 0.496297 0.844144 0.245698
C49   C     C_R   0.530670 0.991460 0.075842 -0.083298
C50   C     C_R   0.029981 0.491834 0.075354 -0.082491
C51   C     C_R   0.625463 0.991305 0.145318 0.126165
C52   C     C_R   0.124432 0.486182 0.144602 0.110436
C53   C     C_R   0.653919 0.994323 0.064427 -0.272678
C54   C     C_R   0.153222 0.486909 0.064088 -0.271855
C55   C     C_R   0.591508 0.997396 0.918618 -0.161193
C56   C     C_R   0.091322 0.494345 0.918761 -0.160717
C57   C     C_R   0.503843 0.993701 0.160571 0.027783
C58   C     C_R   0.003433 0.496342 0.160265 0.033156
C59   C     C_R   0.656986 0.996915 0.369455 -0.004813
C60   C     C_R   0.156523 0.491613 0.369049 0.001782
C61   C     C_R   0.686309 0.272727 0.175424 0.153464
C62   C     C_R   0.672082 0.712130 0.155495 0.170074
C63   C     C_R   0.186499 0.771172 0.176241 0.151765
C64   C     C_R   0.174179 0.213800 0.158430 0.167585
C65   C     C_R   0.310142 0.850873 0.243090 -0.195191
C66   C     C_R   0.319756 0.157722 0.255929 -0.177426
C67   C     C_R   0.810793 0.351021 0.243159 -0.196468
C68   C     C_R   0.818989 0.657480 0.255412 -0.176127
C69   C     C_R   0.750574 0.180276 0.740643 0.150806
C70   C     C_R   0.780080 0.860700 0.804210 0.165834
C71   C     C_R   0.244002 0.686908 0.730638 0.144368
C72   C     C_R   0.275644 0.354167 0.793071 0.175645
C73   C     C_R   0.308421 0.737706 0.827484 -0.162655
C74   C     C_R   0.354318 0.344824 0.932854 -0.205218
C75   C     C_R   0.813528 0.232727 0.833533 -0.164342
C76   C     C_R   0.857173 0.851177 0.945313 -0.200617
C77   C     C_R   0.304327 0.767902 0.924707 -0.197855
C78   C     C_R   0.348378 0.316101 0.030680 -0.183926
C79   C     C_R   0.807709 0.265503 0.927462 -0.198232
C80   C     C_R   0.849401 0.819650 0.039112 -0.184621
C81   C     C_R   0.734764 0.251596 0.927209 0.107574
C82   C     C_R   0.764189 0.795912 0.993733 0.105873
C83   C     C_R   0.231773 0.753293 0.924599 0.108520
C84   C     C_R   0.263594 0.293893 0.989595 0.106746
C85   C     C_R   0.665884 0.202827 0.828768 0.053943
C86   C     C_R   0.684336 0.817500 0.861343 0.052292
C87   C     C_R   0.163123 0.704321 0.826065 0.055794
C88   C     C_R   0.183011 0.316011 0.858570 0.050428
Cu1   Cu    Cu3+1 0.526340 1.000000 0.421010 0.940230
Cu2   Cu    Cu3+1 0.026340 0.500000 0.421010 0.939366
Cu3   Cu    Cu3+1 0.473640 0.000000 0.578990 0.907076
Cu4   Cu    Cu3+1 0.973640 0.500000 0.578990 0.906891
H1    H     H_    0.281380 0.820549 0.379806 0.182214
H2    H     H_    0.246839 0.142640 0.334986 0.166145
H3    H     H_    0.779637 0.323126 0.377732 0.184137
H4    H     H_    0.744602 0.640650 0.331603 0.164806
H5    H     H_    0.725385 0.996609 0.112658 0.163946
H6    H     H_    0.224766 0.484514 0.112725 0.169771
H7    H     H_    0.434033 0.990878 0.117691 0.156613
H8    H     H_    0.933623 0.496772 0.117471 0.153735
H9    H     H_    0.343073 0.984004 0.903131 0.172501
H10   H     H_    0.842428 0.490596 0.902656 0.168166
H11   H     H_    0.239696 0.996005 0.658936 0.159086
H12   H     H_    0.739500 0.502182 0.658376 0.158021
H13   H     H_    0.621062 0.000737 0.868567 0.206291
H14   H     H_    0.121127 0.498563 0.869123 0.206758
H15   H     H_    0.541140 0.201369 0.940825 0.158634
H16   H     H_    0.528877 0.769532 0.902271 0.145360
H17   H     H_    0.038360 0.703292 0.938136 0.159018
H18   H     H_    0.030155 0.271020 0.906323 0.145942
H19   H     H_    0.361038 0.801587 0.002798 0.189711
H20   H     H_    0.411032 0.307603 0.136673 0.181232
H21   H     H_    0.864030 0.299824 0.004405 0.192210
H22   H     H_    0.911072 0.810816 0.145935 0.178290
H23   H     H_    0.365870 0.753590 0.834145 0.156642
H24   H     H_    0.421370 0.355736 0.964988 0.144325
H25   H     H_    0.871345 0.247273 0.840165 0.155027
H26   H     H_    0.924801 0.864683 0.982181 0.145308
H27   H     H_    0.526012 0.172379 0.739412 0.187385
H28   H     H_    0.534996 0.811860 0.725300 0.169968
H29   H     H_    0.023949 0.672610 0.737556 0.185655
H30   H     H_    0.033893 0.312462 0.726556 0.168413
H31   H     H_    0.704245 0.997813 0.482858 0.117556
H32   H     H_    0.204024 0.490118 0.482479 0.121056
N1    N     N_R   0.566260 1.000000 0.302220 -0.193955
N2    N     N_R   0.066260 0.500000 0.302220 -0.197866
N3    N     N_R   0.434410 1.000000 0.697680 -0.228570
N4    N     N_R   0.934410 0.500000 0.697680 -0.228411
O1    O     O_R   0.608610 0.924520 0.551740 -0.591183
O2    O     O_R   0.608610 0.075480 0.551740 -0.590334
O3    O     O_R   0.108610 0.424520 0.551740 -0.593227
O4    O     O_R   0.108610 0.575480 0.551740 -0.589027
O5    O     O_R   0.564110 0.924510 0.685150 -0.591631
O6    O     O_R   0.564110 0.075490 0.685150 -0.602829
O7    O     O_R   0.064110 0.424510 0.685150 -0.592090
O8    O     O_R   0.064110 0.575490 0.685150 -0.600753
O9    O     O_R   0.435880 0.075470 0.314850 -0.538056
O10   O     O_R   0.435880 0.924530 0.314850 -0.543983
O11   O     O_R   0.935880 0.575470 0.314850 -0.539220
O12   O     O_R   0.935880 0.424530 0.314850 -0.543287
O13   O     O_R   0.391380 0.075460 0.448260 -0.622078
O14   O     O_R   0.391380 0.924540 0.448260 -0.598567
O15   O     O_R   0.891380 0.575460 0.448260 -0.622105
O16   O     O_R   0.891380 0.424540 0.448260 -0.600040
C89   C     C_3   0.791584 0.983199 0.376947 -0.437189
C90   C     C_3   0.816496 0.908373 0.362679 -0.810581
H33   H     H_    0.788407 0.867753 0.391723 0.251115
H34   H     H_    0.789335 0.897507 0.253892 0.256602
H35   H     H_    0.891952 0.902872 0.433805 0.236397
H36   H     H_    0.816639 0.024022 0.343086 0.200583
H37   H     H_    0.829012 0.993009 0.490558 0.195669
C91   C     C_3   0.286731 0.460448 0.372994 -0.424039
C92   C     C_3   0.347419 0.524577 0.407364 -0.855806
H38   H     H_    0.416009 0.506030 0.448692 0.243805
H39   H     H_    0.318133 0.558093 0.313151 0.257415
H40   H     H_    0.355702 0.556964 0.489586 0.247399
H41   H     H_    0.313518 0.433725 0.473130 0.199932
H42   H     H_    0.292242 0.420388 0.312625 0.210370
C93   C     C_3   0.264416 0.000188 0.472923 -0.362431
C94   C     C_3   0.199081 0.936538 0.421320 -0.902698
H43   H     H_    0.237195 0.887411 0.479439 0.256681
H44   H     H_    0.148169 0.946550 0.436495 0.243857
H45   H     H_    0.161004 0.927928 0.307291 0.244014
H46   H     H_    0.224648 0.049828 0.446064 0.158010
H47   H     H_    0.286081 0.000984 0.409925 0.255064
C95   C     C_3   0.764416 0.500904 0.472771 -0.362565
C96   C     C_3   0.699128 0.437449 0.423452 -0.904821
H48   H     H_    0.737434 0.388451 0.481993 0.258001
H49   H     H_    0.649005 0.447995 0.440055 0.244783
H50   H     H_    0.660153 0.428318 0.309329 0.243388
H51   H     H_    0.724596 0.550643 0.444459 0.158067
H52   H     H_    0.785976 0.500600 0.409615 0.255024
C97   C     C_3   0.626712 0.245479 0.208526 -0.399098
C98   C     C_3   0.645657 0.167319 0.249909 -0.817516
H53   H     H_    0.630115 0.134994 0.162125 0.255088
H54   H     H_    0.718514 0.159749 0.342980 0.251437
H55   H     H_    0.602247 0.148785 0.275926 0.266493
H56   H     H_    0.639946 0.275689 0.297319 0.207326
H57   H     H_    0.553737 0.254081 0.117915 0.196042
C99   C     C_3   0.591683 0.717101 0.154310 -0.421084
C100  C     C_3   0.583093 0.791911 0.193166 -0.792059
H58   H     H_    0.646561 0.806619 0.299070 0.252137
H59   H     H_    0.570006 0.831754 0.115566 0.259364
H60   H     H_    0.525499 0.793274 0.195414 0.237516
H61   H     H_    0.527396 0.701427 0.050207 0.187583
H62   H     H_    0.599888 0.679293 0.231267 0.198963
C101  C     C_3   0.128324 0.741635 0.210475 -0.404852
C102  C     C_3   0.141576 0.661655 0.236104 -0.796544
H63   H     H_    0.117965 0.633012 0.139973 0.252442
H64   H     H_    0.214592 0.649155 0.319504 0.255617
H65   H     H_    0.102027 0.642290 0.268545 0.263013
H66   H     H_    0.146467 0.767104 0.306652 0.208709
H67   H     H_    0.055510 0.754282 0.124595 0.198763
C103  C     C_3   0.095379 0.220789 0.160727 -0.417202
C104  C     C_3   0.088578 0.296546 0.198167 -0.801277
H68   H     H_    0.154306 0.312786 0.300129 0.251763
H69   H     H_    0.071298 0.334661 0.115551 0.256720
H70   H     H_    0.034184 0.298966 0.207692 0.241198
H71   H     H_    0.030152 0.204762 0.058203 0.186545
H72   H     H_    0.104571 0.184289 0.240088 0.199287
O17   O     O_3   0.301894 0.894514 0.051166 -0.604483
C105  C     C_3   0.226729 0.942087 0.976413 0.060806
H73   H     H_    0.253379 0.996177 0.986873 0.131220
H74   H     H_    0.189334 0.945561 0.018751 0.124579
C106  C     C_3   0.160033 0.923716 0.820288 -0.838719
H75   H     H_    0.118756 0.876191 0.802150 0.246087
H76   H     H_    0.112672 0.968933 0.760469 0.202172
H77   H     H_    0.197564 0.913004 0.780497 0.260785
O18   O     O_3   0.388177 0.180248 0.146341 -0.572377
C107  C     C_3   0.344327 0.143031 0.017800 0.119080
H78   H     H_    0.271958 0.158709 0.932833 0.123175
H79   H     H_    0.344205 0.085816 0.036835 0.130744
C108  C     C_3   0.395530 0.154622 0.961761 -0.824914
H80   H     H_    0.463708 0.129881 0.032600 0.254244
H81   H     H_    0.356499 0.131100 0.855551 0.212347
H82   H     H_    0.403922 0.211763 0.952031 0.253625
O19   O     O_3   0.804817 0.392918 0.052351 -0.600714
C109  C     C_3   0.729636 0.440452 0.975821 0.063334
H83   H     H_    0.756551 0.494653 0.988299 0.130331
H84   H     H_    0.690283 0.443483 0.014953 0.123952
C110  C     C_3   0.665129 0.422415 0.819512 -0.836669
H85   H     H_    0.623510 0.374735 0.799286 0.246468
H86   H     H_    0.618019 0.467641 0.758783 0.201823
H87   H     H_    0.704419 0.411987 0.782605 0.262265
O20   O     O_3   0.886981 0.681044 0.145495 -0.572102
C111  C     C_3   0.841692 0.645742 0.014643 0.119481
H88   H     H_    0.769439 0.662191 0.931189 0.123822
H89   H     H_    0.840403 0.588314 0.030502 0.125397
C112  C     C_3   0.891948 0.658650 0.957447 -0.824654
H90   H     H_    0.958852 0.631887 0.024498 0.252192
H91   H     H_    0.851185 0.637598 0.849017 0.211424
H92   H     H_    0.902622 0.716040 0.953182 0.255937
C113  C     C_3   0.766196 0.140194 0.649664 -0.358539
C114  C     C_3   0.850947 0.160445 0.665919 -0.928037
H93   H     H_    0.847358 0.216925 0.635574 0.257548
H94   H     H_    0.914199 0.151062 0.775342 0.252025
H95   H     H_    0.854094 0.126588 0.595414 0.241488
H96   H     H_    0.772498 0.082551 0.674830 0.199796
H97   H     H_    0.706412 0.149071 0.537731 0.232704
C115  C     C_3   0.795839 0.879397 0.700857 -0.393153
C116  C     C_3   0.863217 0.828382 0.712156 -0.868827
H98   H     H_    0.933301 0.834835 0.813364 0.246851
H99   H     H_    0.840571 0.772295 0.701301 0.256968
H100  H     H_    0.866682 0.839937 0.627423 0.247681
H101  H     H_    0.732486 0.874719 0.590938 0.232977
H102  H     H_    0.822185 0.934806 0.720024 0.188133
C117  C     C_3   0.254287 0.654195 0.627960 -0.348370
C118  C     C_3   0.331021 0.685006 0.631710 -0.915096
H103  H     H_    0.321716 0.743189 0.610358 0.254932
H104  H     H_    0.398904 0.673791 0.734354 0.246025
H105  H     H_    0.329953 0.659917 0.549975 0.244526
H106  H     H_    0.267218 0.596216 0.649415 0.204656
H107  H     H_    0.189629 0.662569 0.519684 0.232874
C119  C     C_3   0.287692 0.367522 0.683906 -0.403393
C120  C     C_3   0.347766 0.310896 0.689128 -0.874012
H108  H     H_    0.419901 0.315855 0.786198 0.249261
H109  H     H_    0.322047 0.256663 0.684009 0.260148
H110  H     H_    0.346147 0.317673 0.598018 0.240486
H111  H     H_    0.222049 0.364562 0.575902 0.230848
H112  H     H_    0.318587 0.420988 0.700980 0.188776

loop_
_geom_bond_atom_site_label_1
_geom_bond_atom_site_label_2
_ccdc_geom_bond_type
C28   H4    S    
C26   H2    S    
C83   C87   A    
C39   O9    A    
C95   H52   S    
C104  H69   S    
C40   O14   A    
O17   C105  S    
C14   C18   A    
C27   H3    S    
C75   H25   S    
C71   C117  S    
C13   H15   S    
C102  H65   S    
C120  H109  S    
Cu2   O11   S    
C16   H18   S    
C32   C72   A    
C10   C62   A    
C117  H106  S    
C99   C100  S    
C15   C19   A    
Cu3   O6    S    
C18   C86   A    
C105  H74   S    
C55   H13   S    
C2    C29   S    
C9    C61   A    
C106  H77   S    
C63   C101  S    
C1    C30   S    
C28   C68   A    
O20   C111  S    
C5    C11   A    
C110  H87   S    
C1    O1    A    
C57   N1    A    
C12   C64   A    
Cu1   O9    S    
C108  H82   S    
C42   C67   S    
C97   H57   S    
C57   H7    S    
C22   O18   S    
Cu1   O1    S    
C102  H64   S    
C116  H98   S    
C25   C63   A    
C23   C67   A    
C60   H32   S    
Cu4   O15   S    
C9    C13   A    
C98   H53   S    
C22   C66   A    
C38   H12   S    
C34   C52   A    
C27   C61   A    
C2    O2    A    
C97   H56   S    
C11   C15   A    
C103  H72   S    
C12   C16   A    
C52   C54   A    
C49   C51   A    
C105  C106  S    
C77   H19   S    
C50   C52   A    
C47   N3    A    
C62   C99   S    
C119  H112  S    
C92   H39   S    
C108  H81   S    
C113  C114  S    
C29   C85   A    
C89   H36   S    
C48   C56   A    
C118  H105  S    
C4    C31   S    
C4    O8    A    
Cu3   O14   S    
Cu2   O4    S    
C41   C68   S    
C53   C55   A    
C103  C104  S    
C120  H110  S    
C44   H10   S    
C95   H51   S    
C33   C59   A    
C97   C98   S    
C101  H67   S    
C34   C60   A    
C24   O20   S    
Cu4   O8    S    
C36   N4    A    
C114  H94   S    
C17   C85   A    
C1    O5    A    
Cu4   N4    S    
C28   C62   A    
C21   C65   A    
C30   C70   A    
C112  H90   S    
C118  H104  S    
C89   C90   S    
C96   H50   S    
C90   H34   S    
C45   C47   A    
C59   H31   S    
C46   C48   A    
C6    C84   A    
C105  H73   S    
C32   C88   A    
C42   O12   A    
C26   C66   A    
C94   H45   S    
C21   O17   S    
C112  H92   S    
C58   H8    S    
Cu1   O10   S    
C96   H49   S    
C10   C14   A    
C100  H59   S    
C70   C115  S    
C37   H11   S    
C34   C91   S    
Cu1   N1    S    
C44   C46   A    
C53   H5    S    
O19   C109  S    
C100  H58   S    
C24   C68   A    
C115  H102  S    
C76   H26   S    
Cu1   O2    S    
C93   H47   S    
C40   O10   A    
C102  H63   S    
C116  H99   S    
C114  H95   S    
C50   C58   A    
C37   C43   A    
C113  H96   S    
C43   H9    S    
C26   C64   A    
C38   C44   A    
C119  C120  S    
C48   N4    A    
C90   H35   S    
Cu2   Cu4   S    
C93   C94   S    
Cu3   O5    S    
C45   C49   A    
C25   H1    S    
C16   C20   A    
C74   H24   S    
C36   C95   S    
O18   C107  S    
Cu2   N2    S    
C61   C97   S    
C98   H54   S    
C2    O6    A    
C92   H40   S    
C35   N3    A    
C43   C45   A    
C98   H55   S    
C56   H14   S    
C101  H66   S    
C108  H80   S    
Cu3   N3    S    
C91   H42   S    
C39   O13   A    
Cu2   O3    S    
C117  H107  S    
C107  H79   S    
C72   C74   A    
C7    C81   A    
C80   H22   S    
C111  H88   S    
C111  H89   S    
C40   C65   S    
C79   H21   S    
C42   O16   A    
C95   C96   S    
C39   C66   S    
C3    O3    A    
C31   C87   A    
C30   C86   A    
C114  H93   S    
C70   C76   A    
C120  H108  S    
C107  C108  S    
C18   H28   S    
C96   H48   S    
C118  H103  S    
C109  C110  S    
C47   C55   A    
C90   H33   S    
C100  H60   S    
C7    C9    A    
C106  H75   S    
C91   H41   S    
C19   H29   S    
C69   C113  S    
C5    C83   A    
C35   C37   A    
C20   H30   S    
C8    C10   A    
C54   H6    S    
C76   C80   A    
C72   C119  S    
C110  H85   S    
C49   C57   A    
Cu2   O12   S    
C117  C118  S    
C79   C81   A    
C54   C56   A    
C41   O15   A    
C89   H37   S    
C33   C51   A    
C111  C112  S    
C46   C50   A    
C11   C63   A    
C73   H23   S    
C13   C17   A    
C109  H84   S    
C99   H62   S    
C116  H100  S    
C94   H43   S    
C104  H70   S    
C60   N2    A    
C113  H97   S    
C19   C87   A    
C101  C102  S    
C110  H86   S    
C82   C86   A    
C59   N1    A    
C36   C38   A    
C6    C12   A    
C23   O19   S    
C4    O4    A    
C15   H17   S    
C109  H83   S    
C115  H101  S    
C84   C88   A    
C119  H111  S    
C7    C23   A    
C20   C88   A    
C14   H16   S    
C115  C116  S    
C8    C24   A    
C80   C82   A    
C69   C75   A    
C3    O7    A    
C107  H78   S    
C3    C32   S    
Cu4   O16   S    
C35   C93   S    
C41   O11   A    
C64   C103  S    
C27   C67   A    
C99   H61   S    
C17   H27   S    
C51   C53   A    
C104  H68   S    
Cu4   O7    S    
C103  H71   S    
C78   C84   A    
C8    C82   A    
C5    C21   A    
C91   C92   S    
C73   C77   A    
C112  H91   S    
Cu1   Cu3   S    
C74   C78   A    
C71   C73   A    
C25   C65   A    
C77   C83   A    
C93   H46   S    
C29   C69   A    
C78   H20   S    
C58   N2    A    
C92   H38   S    
C106  H76   S    
C75   C79   A    
C81   C85   A    
C33   C89   S    
C94   H44   S    
C31   C71   A    
Cu3   O13   S    
C6    C22   A    
