data_mof_unit_33827.cif
_audit_creation_date              2012-12-10T17:15:12-0500
_audit_creation_method            fapswitch 2.2
_symmetry_space_group_name_H-M    P1
_symmetry_Int_Tables_number       1
_space_group_crystal_system       triclinic
_cell_length_a                    10.110892
_cell_length_b                    10.611702
_cell_length_c                    12.941124
_cell_angle_alpha                 90.574873
_cell_angle_beta                  92.078104
_cell_angle_gamma                 93.339997
_cell_volume                      1385.12919808

loop_
_atom_site_label
_atom_site_type_symbol
_atom_type_description
_atom_site_fract_x
_atom_site_fract_y
_atom_site_fract_z
_atom_type_partial_charge
C1    C     C_R   0.446818 0.266270 0.501888 0.931078
C2    C     C_R   0.551463 0.733694 0.511677 0.928753
C3    C     C_2   0.072202 0.490060 0.509108 -0.138092
C4    C     C_2   0.927894 0.510496 0.491391 -0.132039
C5    C     C_R   0.474252 0.500559 0.698657 0.873358
C6    C     C_R   0.526116 0.501085 0.301715 0.914897
C7    C     C_R   0.541959 0.501728 0.192048 -0.061133
C8    C     C_R   0.460112 0.504150 0.808962 -0.049726
C9    C     C_R   0.359274 0.595818 0.954737 -0.233812
C10   C     C_R   0.644574 0.413724 0.046290 -0.235070
C11   C     C_R   0.361759 0.574764 0.849500 -0.267289
C12   C     C_R   0.639338 0.430125 0.151432 -0.252983
C13   C     C_R   0.551931 0.446015 0.873889 0.036322
C14   C     C_R   0.453273 0.564898 0.127747 0.031294
C15   C     C_R   0.550735 0.467331 0.980234 0.122568
C16   C     C_R   0.454203 0.544108 0.021053 0.121709
C17   C     C_2   0.421466 0.133172 0.524848 -0.438535
C18   C     C_2   0.571828 0.867447 0.531888 -0.423815
C19   C     C_2   0.505715 0.068506 0.586114 0.114021
C20   C     C_2   0.483681 0.931796 0.584695 0.114055
H1    H     H_    0.708592 0.382602 0.201234 0.172220
H2    H     H_    0.289251 0.617068 0.799266 0.173204
H3    H     H_    0.282976 0.653209 0.982896 0.142506
H4    H     H_    0.720729 0.356055 0.018302 0.145961
H5    H     H_    0.659299 0.915827 0.500942 0.143576
H6    H     H_    0.332660 0.085284 0.489793 0.146106
H7    H     H_    0.897688 0.578181 0.434146 0.164113
H8    H     H_    0.102466 0.422737 0.566638 0.164637
H9    H     H_    0.869611 0.385986 0.596229 0.161634
H10   H     H_    0.130258 0.613594 0.403496 0.162558
N1    N     N_2   0.162330 0.550370 0.457540 -0.196013
N2    N     N_2   0.837670 0.449630 0.542460 -0.195851
O1    O     O_R   0.567930 0.307680 0.508550 -0.616349
O2    O     O_R   0.432070 0.692320 0.491450 -0.609887
O3    O     O_R   0.351090 0.340020 0.481290 -0.603995
O4    O     O_R   0.648910 0.659980 0.518710 -0.606622
O5    O     O_R   0.590490 0.486480 0.665020 -0.595273
O6    O     O_R   0.409510 0.513520 0.334980 -0.584302
O7    O     O_R   0.373660 0.518820 0.637760 -0.636555
O8    O     O_R   0.626340 0.481180 0.362240 -0.627521
Zn1   Zn    Zn3+2 0.644780 0.478400 0.518200 0.931094
Zn2   Zn    Zn3+2 0.355220 0.521600 0.481800 0.935626
N3    N     N_3   0.364174 0.649643 0.172043 -0.447138
H11   H     H_    0.266518 0.615437 0.155699 0.185839
H12   H     H_    0.379807 0.738829 0.139515 0.175061
N4    N     N_3   0.644266 0.364141 0.830872 -0.468443
H13   H     H_    0.740765 0.401498 0.847454 0.186498
H14   H     H_    0.630697 0.275049 0.863903 0.178910
C21   C     C_3   0.366635 0.869520 0.640672 -0.356582
C22   C     C_3   0.299354 0.959572 0.713811 -0.369374
C23   C     C_3   0.191497 0.890396 0.774585 -0.901528
H15   H     H_    0.120115 0.835830 0.721570 0.267140
H16   H     H_    0.236484 0.825897 0.830899 0.258324
H17   H     H_    0.136718 0.960011 0.818221 0.254239
H18   H     H_    0.374159 0.005086 0.769477 0.225808
H19   H     H_    0.252588 0.034395 0.668342 0.227441
H20   H     H_    0.290629 0.831320 0.582691 0.219387
H21   H     H_    0.403207 0.790355 0.687226 0.199854
C24   C     C_3   0.632962 0.125880 0.640073 -0.355858
C25   C     C_3   0.689013 0.046803 0.729219 -0.374883
C26   C     C_3   0.828135 0.097232 0.764538 -0.912510
H22   H     H_    0.898421 0.085530 0.701583 0.262274
H23   H     H_    0.829228 0.198573 0.786186 0.261433
H24   H     H_    0.862444 0.043578 0.832678 0.255191
H25   H     H_    0.622210 0.048813 0.795443 0.214377
H26   H     H_    0.696882 0.946918 0.705599 0.241701
H27   H     H_    0.709570 0.139989 0.581095 0.214409
H28   H     H_    0.612659 0.218568 0.673935 0.232002

loop_
_geom_bond_atom_site_label_1
_geom_bond_atom_site_label_2
_ccdc_geom_bond_type
C26   H24   S    
N2    Zn1   S    
C6    O6    A    
C19   C24   S    
C8    C13   A    
N1    Zn2   S    
C5    O5    A    
C24   H28   S    
C2    C18   S    
N3    H12   S    
C11   H2    S    
C1    C17   S    
C22   H18   S    
O2    Zn2   S    
N3    H11   S    
C23   H17   S    
O1    Zn1   S    
C2    O2    A    
C26   H22   S    
C22   C23   S    
C25   H26   S    
C24   C25   S    
C4    N2    D    
C22   H19   S    
C3    N1    D    
C9    C11   A    
O4    Zn1   S    
C20   C21   S    
C18   H5    S    
C10   C12   A    
C8    C11   A    
C17   H6    S    
O3    Zn2   S    
O8    Zn1   S    
C17   C19   D    
C9    C16   A    
C25   H25   S    
O6    Zn2   S    
C6    C7    S    
C18   C20   D    
C10   C15   A    
C13   C15   A    
O5    Zn1   S    
H10   N1    S    
C6    O8    A    
C7    C12   A    
C5    C8    S    
H9    N2    S    
C15   C16   A    
C1    O1    A    
C3    C4    S    
N4    H14   S    
C4    H7    S    
C23   H15   S    
C1    O3    A    
C14   N3    S    
C10   H4    S    
C21   C22   S    
C2    O4    A    
C13   N4    S    
C26   H23   S    
C5    O7    A    
O7    Zn2   S    
C3    H8    S    
C9    H3    S    
C24   H27   S    
C14   C16   A    
N4    H13   S    
C12   H1    S    
C7    C14   A    
C21   H20   S    
C21   H21   S    
C19   C20   S    
C25   C26   S    
C23   H16   S    
