data_mof_unit_30762.cif
_audit_creation_date              2012-12-10T16:58:31-0500
_audit_creation_method            fapswitch 2.2
_symmetry_space_group_name_H-M    P1
_symmetry_Int_Tables_number       1
_space_group_crystal_system       triclinic
_cell_length_a                    7.800083
_cell_length_b                    8.540328
_cell_length_c                    23.410903
_cell_angle_alpha                 92.963246
_cell_angle_beta                  85.527562
_cell_angle_gamma                 92.302136
_cell_volume                      1551.67272179

loop_
_atom_site_label
_atom_site_type_symbol
_atom_type_description
_atom_site_fract_x
_atom_site_fract_y
_atom_site_fract_z
_atom_type_partial_charge
C1    C     C_R   0.543374 0.794290 0.498567 0.896086
C2    C     C_R   0.615701 0.436904 0.289097 0.358487
C3    C     C_R   0.392831 0.554886 0.769427 -0.152373
C4    C     C_R   0.607183 0.445098 0.230573 -0.152378
C5    C     C_R   0.519607 0.470148 0.791090 0.098356
C6    C     C_R   0.480389 0.529839 0.208906 0.098378
C7    C     C_2   0.558080 0.952366 0.486661 -0.051457
C8    C     C_2   0.441919 0.047633 0.513340 -0.051457
C9    C     C_R   0.501089 0.496125 0.610636 0.957337
C10   C     C_R   0.498912 0.503878 0.389364 0.957317
C11   C     C_R   0.403181 0.399513 0.121356 0.574409
C12   C     C_R   0.456626 0.205710 0.501433 0.896092
C13   C     C_R   0.596837 0.600455 0.878640 0.574412
C14   C     C_R   0.552340 0.649530 0.119224 0.577148
C15   C     C_R   0.447666 0.350447 0.880772 0.577161
C16   C     C_R   0.562678 0.644023 0.058889 -0.091952
C17   C     C_R   0.437339 0.355947 0.941107 -0.091952
C18   C     C_R   0.493926 0.507558 0.030175 -0.038235
C19   C     C_R   0.506093 0.492410 0.969821 -0.038237
C20   C     C_R   0.413166 0.385546 0.061720 -0.056491
C21   C     C_R   0.586855 0.614420 0.938275 -0.056492
C22   C     C_R   0.640796 0.766535 0.026043 0.211320
C23   C     C_R   0.638328 0.387364 0.754509 0.206198
C24   C     C_R   0.359227 0.233431 0.973952 0.211322
C25   C     C_R   0.652724 0.749402 0.966514 -0.158987
C26   C     C_R   0.347302 0.250562 0.033482 -0.158987
C27   C     C_R   0.361649 0.612638 0.245484 0.206181
C28   C     C_R   0.629004 0.390645 0.695052 0.299814
C29   C     C_R   0.370978 0.609363 0.304942 0.299832
C30   C     C_R   0.504446 0.483163 0.672783 -0.270596
C31   C     C_R   0.495555 0.516837 0.327215 -0.270621
C32   C     C_R   0.384317 0.563087 0.710905 0.358489
Cl1   Cl    Cl    0.767989 0.270823 0.649862 -0.467164
Cl2   Cl    Cl    0.231984 0.729216 0.350128 -0.467137
Cl3   Cl    Cl    0.222942 0.679843 0.688759 -0.435646
Cl4   Cl    Cl    0.777107 0.320150 0.311248 -0.435613
Cl5   Cl    Cl    0.043106 0.327855 0.433733 -0.351529
Cl6   Cl    Cl    0.956894 0.672148 0.566265 -0.351535
H1    H     H_    0.712786 0.844116 0.942180 0.219199
H2    H     H_    0.287243 0.155845 0.057815 0.219199
H3    H     H_    0.301909 0.617251 0.798767 0.205417
H4    H     H_    0.698120 0.382724 0.201236 0.205414
I1    I     I_    0.742887 0.986515 0.058437 -0.193723
I2    I     I_    0.257153 0.013447 0.941557 -0.193725
I3    I     I_    0.832533 0.261835 0.790224 -0.043949
I4    I     I_    0.167420 0.738176 0.209760 -0.043946
I5    I     I_    0.722280 0.000438 0.411495 -0.003542
I6    I     I_    0.277712 0.999559 0.588503 -0.003540
N1    N     N_R   0.473737 0.528710 0.148383 -0.342694
N2    N     N_R   0.526269 0.471265 0.851612 -0.342692
N3    N     N_2   0.950330 0.457950 0.484560 0.145287
N4    N     N_2   0.049670 0.542050 0.515440 0.145284
O1    O     O_R   0.389250 0.738570 0.503790 -0.594346
O2    O     O_2   0.674194 0.715895 0.847524 -0.493178
O3    O     O_2   0.622089 0.771615 0.149155 -0.473368
O4    O     O_2   0.377902 0.228373 0.850841 -0.473372
O5    O     O_R   0.610750 0.261430 0.496210 -0.594340
O6    O     O_R   0.678390 0.711620 0.493890 -0.584835
O7    O     O_R   0.321610 0.288380 0.506110 -0.584836
O8    O     O_R   0.355400 0.513520 0.588790 -0.564002
O9    O     O_R   0.644600 0.486480 0.411210 -0.564002
O10   O     O_R   0.644550 0.486570 0.578900 -0.559101
O11   O     O_R   0.355450 0.513430 0.421100 -0.559112
O12   O     O_2   0.325830 0.284068 0.152471 -0.493176
Zn1   Zn    Zn3+2 0.306930 0.518000 0.506610 1.178086
Zn2   Zn    Zn3+2 0.693070 0.482000 0.493390 1.178090

loop_
_geom_bond_atom_site_label_1
_geom_bond_atom_site_label_2
_ccdc_geom_bond_type
C28   Cl1   S    
C2    C4    A    
N4    Zn1   S    
C8    I6    S    
C23   I3    S    
C27   C29   A    
O1    Zn1   S    
C22   I1    S    
C5    C23   A    
O5    Zn2   S    
C8    C12   S    
C9    O8    A    
C15   O4    S    
C3    C5    A    
C10   O11   A    
C28   C30   A    
C14   O3    S    
C13   C21   A    
C7    C8    D    
C29   C31   A    
C23   C28   A    
C25   H1    S    
C30   C32   A    
C26   H2    S    
C4    H4    S    
C9    C30   S    
C11   N1    A    
C12   O5    A    
O9    Zn2   S    
C27   I4    S    
C4    C6    A    
C13   N2    A    
C17   C19   A    
C24   I2    S    
C24   C26   A    
O8    Zn1   S    
C11   O12   S    
O7    Zn1   S    
C18   C20   A    
Cl5   N3    S    
C3    C32   A    
O11   Zn1   S    
C14   C16   A    
C11   C20   A    
C17   C24   A    
Cl6   N4    S    
O10   Zn2   S    
C7    I5    S    
C9    O10   A    
C10   O9    A    
C32   Cl3   S    
C1    O6    A    
C5    N2    S    
N3    N4    D    
C14   N1    A    
C22   C25   A    
C16   C18   A    
C13   O2    S    
C15   N2    A    
C2    Cl4   S    
C15   C17   A    
C1    O1    A    
C18   C19   A    
C21   C25   A    
C19   C21   A    
C1    C7    S    
C12   O7    A    
C29   Cl2   S    
O6    Zn2   S    
C3    H3    S    
C6    N1    S    
C6    C27   A    
C16   C22   A    
C2    C31   A    
C20   C26   A    
N3    Zn2   S    
C10   C31   S    
