data_mof_unit_22846.cif
_audit_creation_date              2012-12-10T16:44:41-0500
_audit_creation_method            fapswitch 2.2
_symmetry_space_group_name_H-M    P1
_symmetry_Int_Tables_number       1
_space_group_crystal_system       triclinic
_cell_length_a                    14.999935
_cell_length_b                    8.750041
_cell_length_c                    7.611749
_cell_angle_alpha                 103.752926
_cell_angle_beta                  95.393777
_cell_angle_gamma                 95.061007
_cell_volume                      959.767769128

loop_
_atom_site_label
_atom_site_type_symbol
_atom_type_description
_atom_site_fract_x
_atom_site_fract_y
_atom_site_fract_z
_atom_type_partial_charge
C1    C     C_R   0.495233 0.199988 0.453183 0.744520
C2    C     C_R   0.505104 0.800003 0.546951 0.742975
C3    C     C_R   0.026704 0.220557 0.350352 -0.131033
C4    C     C_R   0.973218 0.780991 0.646834 -0.170977
C5    C     C_2   0.483714 0.030229 0.431420 0.243712
C6    C     C_2   0.517038 0.969753 0.569237 0.230513
C7    C     C_R   0.329776 0.499562 0.500177 0.763382
C8    C     C_R   0.670255 0.500869 0.499873 0.760683
C9    C     C_R   0.823052 0.643941 0.562814 0.370979
C10   C     C_R   0.176861 0.357428 0.433893 0.441506
C11   C     C_R   0.766506 0.500473 0.499112 -0.227228
C12   C     C_R   0.233555 0.500355 0.500842 -0.225037
C13   C     C_R   0.801469 0.355720 0.434217 0.400936
C14   C     C_R   0.198768 0.644909 0.568035 0.378910
C15   C     C_R   0.894820 0.355280 0.420537 -0.048326
C16   C     C_R   0.105246 0.645681 0.579677 -0.037521
C17   C     C_R   0.952698 0.499272 0.496942 -0.081992
C18   C     C_R   0.047323 0.501972 0.501805 -0.083660
C19   C     C_R   0.916221 0.641411 0.568258 0.025959
C20   C     C_R   0.083734 0.360032 0.429158 0.013275
C21   C     C_R   0.933521 0.216055 0.339120 0.420798
C22   C     C_R   0.066477 0.785042 0.660499 0.352378
Cu1   Cu    Cu3+1 0.510010 0.517380 0.684380 1.174270
Cu2   Cu    Cu3+1 0.489990 0.482620 0.315620 1.170680
H1    H     H_    0.055171 0.113033 0.292719 0.255753
H2    H     H_    0.944681 0.888695 0.703642 0.257859
N1    N     N_2   0.474890 0.456420 0.038520 0.064426
N2    N     N_2   0.525110 0.543580 0.961480 0.092287
O1    O     O_R   0.506510 0.286130 0.619770 -0.513002
O2    O     O_R   0.493490 0.713870 0.380230 -0.512364
O3    O     O_R   0.489600 0.256770 0.308360 -0.598254
O4    O     O_R   0.510400 0.743230 0.691640 -0.572330
O5    O     O_R   0.378710 0.514640 0.655720 -0.518450
O6    O     O_R   0.621290 0.485360 0.344280 -0.510767
O7    O     O_R   0.361800 0.485290 0.344300 -0.528173
O8    O     O_R   0.638200 0.514710 0.655700 -0.548220
O9    O     O_3   0.790169 0.788191 0.624316 -0.676752
H3    H     H_    0.724433 0.779817 0.589931 0.352679
O10   O     O_3   0.209617 0.213666 0.368554 -0.653960
H4    H     H_    0.275099 0.220823 0.405236 0.349206
O11   O     O_3   0.745984 0.214025 0.390631 -0.610020
H5    H     H_    0.692294 0.223763 0.456826 0.322674
O12   O     O_3   0.254649 0.786241 0.615780 -0.618744
H6    H     H_    0.308721 0.777460 0.550694 0.317625
S1    S     S_3+6 0.871554 0.035524 0.207477 0.071395
O13   O     O_2   0.826668 0.950580 0.331329 -0.202667
O14   O     O_2   0.801531 0.070821 0.072396 -0.199706
O15   O     O_3   0.940051 0.916080 0.092986 -0.546886
H7    H     H_    0.901376 0.815672 0.034972 0.367731
S2    S     S_3+6 0.128647 0.964632 0.794964 0.102559
O16   O     O_2   0.175013 0.050374 0.673615 -0.165574
O17   O     O_2   0.067964 0.072469 0.897292 -0.256316
O18   O     O_3   0.206008 0.923234 0.946491 -0.445378
H8    H     H_    0.170646 0.872197 0.024887 0.364066
O19   O     O_3   0.433432 0.932865 0.276599 -0.696159
H9    H     H_    0.408380 0.997985 0.198575 0.349277
O20   O     O_3   0.567375 0.066599 0.724491 -0.693484
H10   H     H_    0.592348 0.000963 0.802478 0.382066
S3    S     S_3+6 0.368033 0.363627 0.942080 0.203922
O21   O     O_2   0.303537 0.485909 0.943388 -0.225495
O22   O     O_2   0.364960 0.260699 0.753322 -0.290785
O23   O     O_3   0.330679 0.243505 0.068256 -0.448062
H11   H     H_    0.348766 0.138821 0.011168 0.377440
S4    S     S_3+6 0.631591 0.637802 0.057647 0.193208
O24   O     O_2   0.634314 0.741848 0.245447 -0.253901
O25   O     O_2   0.696358 0.515841 0.056825 -0.275083
O26   O     O_3   0.667223 0.758305 0.930324 -0.481435
H12   H     H_    0.733741 0.763281 0.946313 0.388093

loop_
_geom_bond_atom_site_label_1
_geom_bond_atom_site_label_2
_ccdc_geom_bond_type
C4    H2    S    
O12   H6    S    
Cu1   N2    S    
O23   H11   S    
C4    C22   A    
O11   H5    S    
S2    O17   D    
Cu2   N1    S    
C15   C21   A    
Cu1   Cu2   S    
S4    O24   D    
O19   H9    S    
C3    C20   A    
C17   C18   A    
Cu2   O3    S    
S3    O21   D    
C16   C18   A    
N1    S3    S    
O18   H8    S    
Cu1   O4    S    
C11   C13   A    
C6    O20   S    
C9    C11   A    
O20   H10   S    
O9    H3    S    
C10   C12   A    
C8    C11   S    
C1    C5    S    
Cu1   O1    S    
C13   O11   S    
C9    O9    S    
O15   H7    S    
C17   C19   A    
C12   C14   A    
S2    O16   D    
C18   C20   A    
C13   C15   A    
C5    C6    D    
C14   C16   A    
C7    C12   S    
S3    O22   D    
Cu2   O7    S    
C3    C21   A    
C2    O2    A    
C7    O5    A    
Cu2   O2    S    
O26   H12   S    
S2    O18   S    
S4    O26   S    
N2    S4    S    
C22   S2    S    
C1    O3    A    
C3    H1    S    
C2    O4    A    
Cu1   O8    S    
C8    O8    A    
S1    O14   D    
C10   C20   A    
N1    N2    D    
C15   C17   A    
O10   H4    S    
C10   O10   S    
S3    O23   S    
C8    O6    A    
S4    O25   D    
C1    O1    A    
Cu1   O5    S    
S1    O13   D    
C4    C19   A    
C7    O7    A    
C5    O19   S    
Cu2   O6    S    
C2    C6    S    
C9    C19   A    
C16   C22   A    
C14   O12   S    
S1    O15   S    
C21   S1    S    
