data_mof_unit_36237.cif
_audit_creation_date              2012-12-10T16:52:09-0500
_audit_creation_method            fapswitch 2.2
_symmetry_space_group_name_H-M    P1
_symmetry_Int_Tables_number       1
_space_group_crystal_system       triclinic
_cell_length_a                    7.765671
_cell_length_b                    8.644823
_cell_length_c                    14.981446
_cell_angle_alpha                 92.000477
_cell_angle_beta                  85.247236
_cell_angle_gamma                 93.451697
_cell_volume                      1000.01805857

loop_
_atom_site_label
_atom_site_type_symbol
_atom_type_description
_atom_site_fract_x
_atom_site_fract_y
_atom_site_fract_z
_atom_type_partial_charge
C1    C     C_R   0.544986 0.793986 0.497145 0.813886
C2    C     C_R   0.636100 0.584749 0.809787 0.476683
C3    C     C_R   0.497398 0.498073 0.231568 -0.348528
C4    C     C_R   0.502602 0.501927 0.768431 -0.348527
C5    C     C_R   0.633302 0.576960 0.182449 0.588698
C6    C     C_R   0.366698 0.423040 0.817551 0.588699
C7    C     C_R   0.635544 0.579892 0.089721 -0.154055
C8    C     C_R   0.364455 0.420108 0.910279 -0.154055
C9    C     C_R   0.499315 0.499643 0.046717 -0.158712
C10   C     C_R   0.500684 0.500358 0.953283 -0.158712
C11   C     C_R   0.361286 0.419311 0.097183 -0.157720
C12   C     C_R   0.455014 0.206014 0.502855 0.813884
C13   C     C_R   0.638713 0.580690 0.902817 -0.157720
C14   C     C_R   0.770427 0.661886 0.039208 0.451674
C15   C     C_R   0.229573 0.338114 0.960792 0.451674
C16   C     C_3   0.293496 0.182146 0.253022 -0.112195
C17   C     C_3   0.706503 0.817855 0.746978 -0.112197
C18   C     C_3   0.862110 0.898344 0.092898 -0.162382
C19   C     C_3   0.137890 0.101657 0.907102 -0.162382
C20   C     C_3   0.757041 0.000065 0.366226 -0.118506
C21   C     C_3   0.242957 0.999937 0.633774 -0.118507
C22   C     C_R   0.774693 0.656844 0.946352 0.559393
C23   C     C_R   0.225306 0.343156 0.053648 0.559393
C24   C     C_2   0.568136 0.955509 0.488507 0.177305
C25   C     C_2   0.431864 0.044491 0.511493 0.177306
C26   C     C_R   0.501169 0.500400 0.672947 0.909292
C27   C     C_R   0.498831 0.499600 0.327053 0.909291
C28   C     C_R   0.363899 0.415252 0.190213 0.476683
F1    F     F_    0.762613 0.651051 0.226175 -0.629644
F2    F     F_    0.237387 0.348948 0.773825 -0.629645
F3    F     F_    0.913552 0.727327 0.899770 -0.635164
F4    F     F_    0.086448 0.272674 0.100230 -0.635164
F5    F     F_    0.029859 0.352479 0.422534 -0.523012
F6    F     F_    0.970141 0.647521 0.577466 -0.523013
H1    H     H_    0.189199 0.113228 0.291271 0.202028
H2    H     H_    0.258060 0.091040 0.861878 0.137522
H3    H     H_    0.031077 0.037000 0.874545 0.217632
H4    H     H_    0.152254 0.046118 0.971753 0.156162
H5    H     H_    0.655359 0.057007 0.333320 0.091040
H6    H     H_    0.760516 0.876305 0.344038 0.193295
H7    H     H_    0.883340 0.058342 0.343614 0.221856
H8    H     H_    0.239474 0.123697 0.655960 0.193301
H9    H     H_    0.344643 0.943003 0.666681 0.091036
H10   H     H_    0.116662 0.941654 0.656386 0.221856
H11   H     H_    0.408788 0.187737 0.292489 0.080487
H12   H     H_    0.322148 0.119890 0.187647 0.119870
H13   H     H_    0.677854 0.880111 0.812352 0.119872
H14   H     H_    0.591210 0.812264 0.707512 0.080487
H15   H     H_    0.810799 0.886772 0.708727 0.202029
H16   H     H_    0.968924 0.963000 0.125455 0.217631
H17   H     H_    0.741941 0.908960 0.138122 0.137521
H18   H     H_    0.847745 0.953882 0.028247 0.156162
N1    N     N_2   0.950330 0.457950 0.475660 0.277647
N2    N     N_2   0.049670 0.542050 0.524340 0.277646
O1    O     O_R   0.389250 0.738570 0.505970 -0.590739
O2    O     O_3   0.763902 0.668556 0.758720 -0.483162
O3    O     O_3   0.904177 0.742154 0.079579 -0.526391
O4    O     O_3   0.095823 0.257846 0.920421 -0.526391
O5    O     O_3   0.733229 0.015518 0.460444 -0.558084
O6    O     O_3   0.266771 0.984481 0.539556 -0.558085
O7    O     O_R   0.610750 0.261430 0.494030 -0.590739
O8    O     O_R   0.678390 0.711620 0.490370 -0.560420
O9    O     O_R   0.321610 0.288380 0.509630 -0.560422
O10   O     O_R   0.355420 0.513510 0.639950 -0.566953
O11   O     O_R   0.644580 0.486490 0.360050 -0.566952
O12   O     O_R   0.644560 0.486560 0.624350 -0.564256
O13   O     O_R   0.355440 0.513440 0.375650 -0.564255
O14   O     O_3   0.236097 0.331445 0.241279 -0.483162
Zn1   Zn    Zn3+2 0.306940 0.517990 0.510420 1.175454
Zn2   Zn    Zn3+2 0.693060 0.482010 0.489580 1.175454

loop_
_geom_bond_atom_site_label_1
_geom_bond_atom_site_label_2
_ccdc_geom_bond_type
C16   H11   S    
O7    Zn2   S    
C2    C4    A    
C3    C27   S    
C16   O14   S    
C25   O6    S    
C21   H10   S    
C5    C7    A    
C9    C10   A    
C18   O3    S    
C4    C26   S    
C17   H14   S    
C12   C25   S    
C3    C5    A    
C1    O8    A    
C14   C22   A    
C15   C23   A    
C20   H7    S    
C1    O1    A    
C18   H18   S    
C19   O4    S    
C2    O2    S    
O10   Zn1   S    
C23   F4    S    
C20   O5    S    
C12   O7    A    
C9    C11   A    
C17   O2    S    
C18   H16   S    
O1    Zn1   S    
O12   Zn2   S    
N2    Zn1   S    
C11   C28   A    
C1    C24   S    
C24   O5    S    
C27   O11   A    
N1    Zn2   S    
C11   C23   A    
C3    C28   A    
C6    F2    S    
C13   C22   A    
C18   H17   S    
F6    N2    S    
C8    C15   A    
C5    F1    S    
C19   H2    S    
C7    C14   A    
C16   H1    S    
F5    N1    S    
C20   H6    S    
C15   O4    S    
C27   O13   A    
C22   F3    S    
C14   O3    S    
C16   H12   S    
C21   H8    S    
C26   O12   A    
C7    C9    A    
C19   H4    S    
C24   C25   D    
O8    Zn2   S    
C21   O6    S    
C4    C6    A    
C17   H15   S    
C12   O9    A    
C20   H5    S    
C26   O10   A    
C6    C8    A    
C19   H3    S    
C28   O14   S    
O11   Zn2   S    
N1    N2    D    
C8    C10   A    
C21   H9    S    
O9    Zn1   S    
C17   H13   S    
C2    C13   A    
O13   Zn1   S    
C10   C13   A    
