data_mof_unit_22471.cif
_audit_creation_date              2013-03-05T15:52:32-0500
_audit_creation_method            fapswitch 2.2
_symmetry_space_group_name_H-M    P1
_symmetry_Int_Tables_number       1
_space_group_crystal_system       triclinic
_cell_length_a                    6.958533
_cell_length_b                    20.476263
_cell_length_c                    24.482587
_cell_angle_alpha                 89.673664
_cell_angle_beta                  90.094755
_cell_angle_gamma                 89.13196
_cell_volume                      3487.93314148

loop_
_atom_site_label
_atom_site_type_symbol
_atom_site_description
_atom_site_fract_x
_atom_site_fract_y
_atom_site_fract_z
_atom_type_partial_charge
O1    O     O_R   0.507310 0.423620 0.460450 -0.596374
O2    O     O_R   0.170760 0.556060 0.437190 -0.591687
O3    O     O_R   0.004040 0.576380 0.539550 -0.571924
C1    C     C_R   0.338948 0.576225 0.421299 0.967999
O4    O     O_R   0.177350 0.422870 0.454070 -0.595713
O5    O     O_R   0.010680 0.442240 0.556560 -0.576626
C2    C     C_R   0.347249 0.399003 0.443501 0.918531
O6    O     O_R   0.500670 0.557760 0.443440 -0.598074
O7    O     O_3   0.340380 0.506510 0.533610 -0.243256
V1    V     V_3+5 0.064130 0.498790 0.493770 1.217366
O8    O     O_R   0.681170 0.443940 0.562810 -0.590938
C3    C     C_R   0.850855 0.424211 0.578735 1.021499
O9    O     O_R   0.674570 0.577130 0.545930 -0.590893
C4    C     C_R   0.841560 0.601190 0.556540 1.055038
V2    V     V_3+5 0.564560 0.501210 0.506230 1.219173
O10   O     O_3   0.838170 0.493490 0.466390 -0.288822
C5    C     C_R   0.980541 0.838058 0.910615 -0.220707
C6    C     C_R   0.840734 0.662208 0.589202 -0.348491
C7    C     C_R   0.053477 0.722390 0.903787 -0.198313
C8    C     C_R   0.052518 0.779815 0.933913 0.037548
C9    C     C_R   0.918964 0.838623 0.855369 -0.049427
C10   C     C_R   0.948198 0.781925 0.821638 0.077466
C11   C     C_R   0.998853 0.722150 0.848377 0.075527
C12   C     C_R   0.925492 0.781234 0.763015 0.022628
C13   C     C_R   0.925067 0.720799 0.733997 0.093399
C14   C     C_R   0.940993 0.662633 0.764494 -0.116435
C15   C     C_R   0.988604 0.662744 0.819697 -0.062729
C16   C     C_R   0.916502 0.838972 0.731783 -0.280336
C17   C     C_R   0.862148 0.838847 0.676966 0.403131
C18   C     C_R   0.831001 0.779000 0.650112 -0.188015
C19   C     C_R   0.895368 0.720280 0.675745 -0.055506
C20   C     C_R   0.739483 0.776394 0.598389 0.363930
C21   C     C_R   0.739154 0.717462 0.569222 -0.165033
C22   C     C_R   0.924324 0.663961 0.641999 0.294121
H1    H     H_    0.099921 0.677644 0.924028 0.136821
H2    H     H_    0.913682 0.615921 0.746143 0.190968
H3    H     H_    0.958751 0.885104 0.748628 0.168964
C23   C     C_3   0.811977 0.269755 0.810035 0.066787
C24   C     C_3   0.152820 0.236259 0.775653 0.254254
C25   C     C_3   0.119936 0.294596 0.732825 -0.236110
H4    H     H_    0.139168 0.341505 0.754019 0.243422
C26   C     C_1   0.864191 0.380035 0.624976 -0.226624
C27   C     C_3   0.946866 0.210575 0.793642 -0.101719
C28   C     C_3   0.771621 0.316040 0.759284 0.073074
C29   C     C_3   0.907413 0.296328 0.710476 -0.014911
C30   C     C_3   0.848146 0.225894 0.692339 -0.227770
C31   C     C_3   0.844370 0.178606 0.743115 -0.293594
C32   C     C_1   0.880945 0.342797 0.663484 0.120099
C33   C     C_1   0.956133 0.162294 0.839794 0.150822
C34   C     C_1   0.963359 0.122838 0.876957 -0.209285
H5    H     H_    0.691380 0.172625 0.754331 0.145813
H6    H     H_    0.699394 0.228674 0.675726 0.135969
H7    H     H_    0.671001 0.248391 0.821019 0.149233
H8    H     H_    0.622879 0.306118 0.745186 0.091566
C35   C     C_3   0.596598 0.739423 0.292863 -0.211349
C36   C     C_3   0.371817 0.673823 0.235414 0.261034
C37   C     C_3   0.395300 0.723425 0.187042 -0.572667
H9    H     H_    0.742090 0.770522 0.217898 0.182694
H10   H     H_    0.705333 0.699377 0.288623 0.161780
H11   H     H_    0.492597 0.637584 0.232515 0.097807
H12   H     H_    0.516376 0.706951 0.160560 0.191076
H13   H     H_    0.265205 0.724693 0.160547 0.214422
C38   C     C_1   0.475131 0.878156 0.124308 -0.194267
C39   C     C_3   0.391155 0.708829 0.291964 0.097622
C40   C     C_3   0.621271 0.788138 0.243952 -0.372506
C41   C     C_3   0.435156 0.793049 0.208826 0.140143
C42   C     C_3   0.259566 0.813044 0.245374 0.235631
C43   C     C_3   0.240764 0.765790 0.295381 -0.461009
C44   C     C_1   0.459460 0.839906 0.162280 0.042779
C45   C     C_1   0.366087 0.661028 0.338091 0.022941
C46   C     C_1   0.349591 0.622192 0.375705 -0.242146
H14   H     H_    0.259695 0.792527 0.334365 0.209404
H15   H     H_    0.092610 0.746525 0.297277 0.185756
H16   H     H_    0.663943 0.837442 0.257829 0.223966
H17   H     H_    0.127438 0.807649 0.220057 0.088838
C47   C     C_R   0.465546 0.160140 0.090725 -0.284694
C48   C     C_R   0.358492 0.337936 0.412063 -0.103354
C49   C     C_R   0.453521 0.278359 0.092872 0.028343
C50   C     C_R   0.488761 0.220320 0.064914 -0.213523
C51   C     C_R   0.419981 0.157551 0.147067 0.260056
C52   C     C_R   0.413387 0.216706 0.178374 -0.024214
C53   C     C_R   0.409610 0.276886 0.149303 0.063020
C54   C     C_R   0.409222 0.218731 0.237167 0.059346
C55   C     C_R   0.362794 0.278442 0.264992 -0.005127
C56   C     C_R   0.310087 0.333456 0.232184 0.012554
C57   C     C_R   0.350436 0.333808 0.176437 -0.215490
C58   C     C_R   0.462157 0.163651 0.268717 -0.116645
C59   C     C_R   0.445140 0.162762 0.325292 -0.073633
C60   C     C_R   0.397960 0.220449 0.353532 0.102750
C61   C     C_R   0.370379 0.279974 0.323936 0.101458
C62   C     C_R   0.388729 0.220492 0.411168 -0.136893
C63   C     C_R   0.365866 0.278481 0.439864 -0.161373
C64   C     C_R   0.364790 0.338818 0.354745 -0.222018
H18   H     H_    0.322592 0.378382 0.153433 0.150275
H19   H     H_    0.376135 0.386072 0.335641 0.117211
H20   H     H_    0.360750 0.277121 0.484097 0.116135
H21   H     H_    0.523028 0.221873 0.021691 0.170803
H22   H     H_    0.523393 0.120588 0.249987 0.186427
H23   H     H_    0.402929 0.175725 0.434655 0.135715
O11   O     O_R   0.323590 0.942280 0.056590 -0.583002
O12   O     O_R   0.647030 0.077140 0.045940 -0.583052
O13   O     O_R   0.813570 0.057750 0.943430 -0.593240
C65   C     C_R   0.477106 0.100790 0.056816 1.062850
O14   O     O_R   0.653510 0.943950 0.062820 -0.586726
O15   O     O_R   0.820100 0.923600 0.960440 -0.598728
C66   C     C_R   0.485421 0.923635 0.078524 1.030535
O16   O     O_R   0.317060 0.076430 0.039590 -0.580719
O17   O     O_3   0.483830 0.993520 0.966410 -0.286911
V3    V     V_3+5 0.760140 0.001200 0.006230 1.230811
O18   O     O_R   0.149560 0.922820 0.954030 -0.599691
C67   C     C_R   0.982262 0.898898 0.943414 0.941744
O19   O     O_R   0.143080 0.056020 0.937150 -0.583691
C68   C     C_R   0.973714 0.076366 0.921661 0.970896
V4    V     V_3+5 0.259690 0.998730 0.993720 1.229057
O20   O     O_3   0.986120 0.006480 0.033580 -0.252599
C69   C     C_1   0.017718 0.600075 0.846374 0.187419
N1    N     N_1   0.040893 0.549912 0.867593 0.013240
N2    N     N_R   0.627055 0.831050 0.578364 0.254343
O21   O     O_R   0.651882 0.853149 0.528972 -0.325323
O22   O     O_R   0.490432 0.855924 0.608341 -0.330724
N3    N     N_R   0.771606 0.385988 0.773598 0.283086
O23   O     O_R   0.637726 0.408974 0.805520 -0.270974
O24   O     O_R   0.895880 0.426404 0.753430 -0.344522
N4    N     N_R   0.878506 0.303529 0.859397 0.290798
O25   O     O_R   0.802565 0.289080 0.906393 -0.338208
O26   O     O_R   0.999582 0.351208 0.856953 -0.273567
C70   C     C_1   0.265201 0.181957 0.750530 0.040912
N5    N     N_1   0.351527 0.139501 0.730805 -0.067230
N6    N     N_R   0.266288 0.257628 0.823443 0.244689
O27   O     O_R   0.351872 0.313692 0.823599 -0.335313
O28   O     O_R   0.310547 0.216219 0.862196 -0.395990
C71   C     C_1   0.264892 0.296761 0.688507 0.109920
N7    N     N_1   0.376789 0.298895 0.653652 -0.094183
C72   C     C_1   0.909647 0.110868 0.731380 0.210314
N8    N     N_1   0.961113 0.057999 0.722537 -0.011750
N9    N     N_R   0.054445 0.612202 0.658336 0.224614
O29   O     O_R   0.225220 0.625966 0.676243 -0.372712
O30   O     O_R   0.002475 0.551470 0.656293 -0.398047
C73   C     C_1   0.967775 0.201329 0.646575 0.169620
N10   N     N_1   0.060706 0.182115 0.610767 -0.062582
N11   N     N_R   0.191635 0.637822 0.230607 0.248755
O31   O     O_R   0.196579 0.574322 0.229171 -0.394986
O32   O     O_R   0.027737 0.668277 0.223897 -0.451919
C74   C     C_1   0.631867 0.713860 0.518554 0.211099
N12   N     N_1   0.545180 0.710808 0.478316 -0.078982
N13   N     N_R   0.267205 0.881449 0.262895 0.251295
O33   O     O_R   0.394716 0.900537 0.298063 -0.368406
O34   O     O_R   0.139320 0.923353 0.244929 -0.330407
C75   C     C_1   0.640144 0.772195 0.344917 0.184062
N14   N     N_1   0.675082 0.798295 0.385451 -0.013946
C76   C     C_1   0.489661 0.102056 0.353501 0.182725
N15   N     N_1   0.525263 0.053470 0.375967 0.002758
C77   C     C_1   0.464747 0.338867 0.062361 0.149722
N16   N     N_1   0.473804 0.387244 0.037891 -0.018864
N17   N     N_R   0.857916 0.899914 0.647965 0.259207
O35   O     O_R   0.958423 0.906925 0.603597 -0.303992
O36   O     O_R   0.771940 0.950587 0.669129 -0.357975
N18   N     N_R   0.352889 0.097014 0.169505 0.221154
O37   O     O_R   0.452843 0.043282 0.163736 -0.411627
O38   O     O_R   0.188480 0.095257 0.194691 -0.348986
C78   C     C_1   0.192817 0.387278 0.251742 0.102226
N19   N     N_1   0.097865 0.430283 0.267092 -0.030616
C79   C     C_1   0.117241 0.777073 0.990077 0.052423
N20   N     N_1   0.169030 0.774927 0.035010 -0.086735
C80   C     C_1   0.805975 0.894734 0.837183 0.055708
N21   N     N_1   0.715264 0.939620 0.823073 -0.053977

loop_
_geom_bond_atom_site_label_1
_geom_bond_atom_site_label_2
_geom_bond_distance
_ccdc_geom_bond_type
C13   C19   1.440829 A    
C54   C58   1.407438 A    
C58   C59   1.390382 A    
C48   C63   1.391597 A    
C80   N21   1.157830 T    
C35   H10   1.112694 S    
N17   O36   1.300513 A    
C56   C78   1.445621 S    
C4    C6    1.487167 S    
O2    C1    1.306085 A    
C7    C8    1.391537 A    
C47   C50   1.393323 A    
C37   C41   1.553693 S    
C1    O6    1.298441 A    
N2    O22   1.301446 A    
O14   C66   1.305121 A    
V4    O20   2.144794 S    
C75   N14   1.157033 T    
C37   H13   1.112695 S    
C56   C57   1.393854 A    
C36   C37   1.566126 S    
N6    O28   1.302289 A    
C14   C15   1.391010 A    
C39   C43   1.557874 S    
C16   C17   1.393782 A    
N6    O27   1.301273 A    
N11   O32   1.301251 A    
O5    C3    1.296172 A    
O14   V3    1.963552 S    
C41   C44   1.496951 S    
O12   V3    1.991296 S    
V2    O10   2.144778 S    
C30   H6    1.112050 S    
C28   N3    1.476450 S    
C63   H20   1.083783 S    
C5    C8    1.404172 A    
C9    C80   1.449878 S    
O17   V3    2.162565 S    
O17   V4    1.700080 S    
C7    H1    1.083892 S    
N2    O21   1.301419 A    
C3    C26   1.447039 S    
C57   H18   1.084513 S    
C35   C40   1.565467 S    
O18   C67   1.296323 A    
O8    V2    1.975193 S    
C38   C44   1.218278 T    
C71   N7    1.157214 T    
C76   N15   1.157353 T    
C36   C39   1.569189 S    
C35   C75   1.476763 S    
C45   C46   1.219998 T    
O1    V2    1.994252 S    
C39   C45   1.502322 S    
C60   C62   1.412638 A    
O7    V1    2.162485 S    
O18   V4    1.999586 S    
C17   N17   1.434319 S    
C58   H22   1.078535 S    
C15   C69   1.447908 S    
C47   C65   1.476926 S    
C41   C42   1.566463 S    
C25   C71   1.483623 S    
O12   C65   1.299494 A    
O9    C4    1.295478 A    
N18   O38   1.301416 A    
C55   C61   1.444509 A    
C5    C67   1.486196 S    
O19   V4    1.975261 S    
O19   C68   1.299295 A    
C52   C54   1.440569 A    
C78   N19   1.157655 T    
N13   O34   1.301115 A    
C21   C74   1.449564 S    
C25   C29   1.575801 S    
O15   C67   1.299827 A    
N4    O25   1.301336 A    
C24   C70   1.486350 S    
C42   C43   1.563048 S    
C12   C16   1.404842 A    
O11   V4    1.965932 S    
C55   C56   1.422982 A    
N9    O30   1.301538 A    
C24   C25   1.598542 S    
O4    C2    1.299403 A    
C49   C50   1.393560 A    
C27   C33   1.497770 S    
C24   C27   1.595851 S    
C24   N6    1.482249 S    
C43   H15   1.110349 S    
C53   C57   1.401622 A    
C8    C79   1.446720 S    
C52   C53   1.419392 A    
C40   H16   1.111528 S    
C36   H11   1.115310 S    
C7    C11   1.408261 A    
O16   V4    1.997487 S    
C23   C28   1.580589 S    
C17   C18   1.413378 A    
C28   H8    1.112510 S    
C49   C53   1.415702 A    
H9    C40   1.113109 S    
C51   N18   1.437673 S    
C54   C55   1.435824 A    
C22   N9    1.438037 S    
C43   H14   1.111632 S    
C35   C39   1.569655 S    
C42   N13   1.468929 S    
C19   C22   1.434379 A    
C26   C32   1.213475 T    
C12   C13   1.430466 A    
C38   C66   1.455749 S    
C6    C22   1.417442 A    
N3    O23   1.301370 A    
O3    C4    1.302296 A    
C36   N11   1.468948 S    
C14   H2    1.078412 S    
C25   H4    1.104105 S    
C40   C41   1.555086 S    
O6    V2    1.965578 S    
C11   C15   1.410670 A    
O9    V2    1.999541 S    
C31   C72   1.482771 S    
N18   O37   1.301190 A    
C59   C76   1.447723 S    
C10   C12   1.443829 A    
C42   H17   1.115201 S    
C70   N5    1.157459 T    
O2    V1    1.963625 S    
C62   C63   1.390314 A    
C28   C29   1.575227 S    
C61   C64   1.425227 A    
N4    O26   1.300374 A    
N13   O33   1.301223 A    
C29   C32   1.498155 S    
O15   V3    1.989320 S    
C30   C31   1.571873 S    
O1    C2    1.297939 A    
C50   H21   1.085513 S    
C47   C51   1.416775 A    
C20   N2    1.439048 S    
C51   C52   1.437278 A    
O5    V1    1.958820 S    
C31   H5    1.108277 S    
C73   N10   1.157418 T    
C49   C77   1.446306 S    
C37   H12   1.113404 S    
C72   N8    1.156813 T    
O11   C66   1.298020 A    
C2    C48   1.473196 S    
C74   N12   1.156772 T    
C34   C68   1.447170 S    
C20   C21   1.405679 A    
C13   C14   1.404967 A    
O4    V1    1.991154 S    
O13   C68   1.297578 A    
V1    O10   1.713455 S    
N11   O31   1.300845 A    
C18   C20   1.418133 A    
C18   C19   1.419250 A    
C23   H7    1.112902 S    
C16   H3    1.077612 S    
C48   C64   1.404076 A    
C69   N1    1.157389 T    
O7    V2    1.701110 S    
C6    C21   1.409723 A    
C5    C9    1.418053 A    
N3    O24   1.301894 A    
C79   N20   1.157432 T    
V3    O20   1.713263 S    
C29   C30   1.572256 S    
C23   C27   1.575702 S    
C59   C60   1.406917 A    
C64   H19   1.076340 S    
C33   C34   1.213803 T    
N17   O35   1.301318 A    
O3    V1    1.989194 S    
C10   C11   1.424054 A    
N9    O29   1.301402 A    
O13   V3    1.958986 S    
C65   O16   1.297939 A    
C62   H23   1.082474 S    
C60   C61   1.424724 A    
C9    C10   1.440684 A    
C27   C31   1.577317 S    
C1    C46   1.458717 S    
C23   N4    1.473250 S    
O8    C3    1.300635 A    
C30   C73   1.482593 S    
C77   N16   1.157313 T    
