data_mof_unit_38442.cif
_audit_creation_date              2013-03-05T16:22:06-0500
_audit_creation_method            fapswitch 2.2
_symmetry_space_group_name_H-M    P1
_symmetry_Int_Tables_number       1
_space_group_crystal_system       triclinic
_cell_length_a                    13.463664
_cell_length_b                    13.881329
_cell_length_c                    15.129117
_cell_angle_alpha                 89.758297
_cell_angle_beta                  91.216568
_cell_angle_gamma                 71.935953
_cell_volume                      2687.38709305

loop_
_atom_site_label
_atom_site_type_symbol
_atom_site_description
_atom_site_fract_x
_atom_site_fract_y
_atom_site_fract_z
_atom_type_partial_charge
O1    O     O_R   0.499990 0.418570 0.628550 -0.606329
O2    O     O_R   0.499990 0.581440 0.628540 -0.577257
C1    C     C_R   0.499742 0.499981 0.669935 0.766073
O3    O     O_R   0.650980 0.378820 0.499990 -0.605562
O4    O     O_R   0.650980 0.541690 0.499970 -0.564516
C2    C     C_R   0.700583 0.445748 0.504993 0.759034
Cu1   Cu    Cu3+1 0.500000 0.403570 0.500010 0.925470
Cu2   Cu    Cu3+1 0.500000 0.596430 0.499990 0.940937
O5    O     O_R   0.500010 0.418560 0.371460 -0.570158
O6    O     O_R   0.500010 0.581430 0.371450 -0.599228
O7    O     O_R   0.349020 0.458310 0.500030 -0.590039
O8    O     O_R   0.349020 0.621180 0.500010 -0.573203
C3    C     C_R   0.499835 0.500390 0.330018 0.805482
C4    C     C_R   0.299130 0.555164 0.498306 0.778226
C5    C     C_R   0.014824 0.714249 0.523183 -0.208974
H1    H     H_    0.834267 0.725821 0.592080 0.186183
H2    H     H_    0.967996 0.790893 0.538639 0.144743
C6    C     C_R   0.183453 0.589818 0.497833 -0.091895
C7    C     C_R   0.867199 0.319426 0.468347 -0.181174
C8    C     C_R   0.963687 0.302124 0.430202 -0.163993
C9    C     C_R   0.011893 0.378224 0.427809 0.166555
C10   C     C_R   0.972544 0.465448 0.482514 0.068407
C11   C     C_R   0.872687 0.483390 0.521389 -0.042194
C12   C     C_R   0.025141 0.538770 0.496320 0.081067
C13   C     C_R   0.968798 0.636812 0.523933 0.072120
C14   C     C_R   0.871722 0.653561 0.561343 -0.199194
C15   C     C_R   0.831279 0.573107 0.571962 -0.004664
C16   C     C_R   0.133659 0.514702 0.493544 -0.271413
C17   C     C_R   0.121159 0.693266 0.505487 0.144092
C18   C     C_R   0.816056 0.413653 0.504778 -0.126773
H3    H     H_    0.180191 0.436078 0.496009 0.164788
H4    H     H_    0.827122 0.263423 0.458871 0.180490
H5    H     H_    0.994851 0.232769 0.393571 0.153255
C19   C     C_R   0.577643 0.453655 0.909898 -0.169917
H6    H     H_    0.643986 0.410132 0.950362 0.188559
C20   C     C_R   0.581942 0.446817 0.818304 -0.048947
C21   C     C_R   0.493997 0.502169 0.766508 -0.122288
C22   C     C_R   0.401704 0.563320 0.807262 0.078610
C23   C     C_R   0.400770 0.572377 0.900738 0.011926
C24   C     C_R   0.489448 0.515474 0.951183 0.006670
C25   C     C_R   0.569423 0.538889 0.095315 -0.167709
H7    H     H_    0.626987 0.562417 0.059424 0.143055
C26   C     C_R   0.575099 0.532894 0.187605 0.116101
C27   C     C_R   0.498533 0.502206 0.233268 -0.084907
C28   C     C_R   0.419562 0.475483 0.185098 0.115881
C29   C     C_R   0.418069 0.480111 0.092864 -0.124773
H8    H     H_    0.358808 0.458674 0.055377 0.128683
C30   C     C_R   0.491167 0.513240 0.048238 0.101740
C31   C     C_R   0.481990 0.897064 0.419154 -0.199398
H9    H     H_    0.473203 0.936068 0.355952 0.137909
C32   C     C_R   0.486518 0.794416 0.421798 0.055417
H10   H     H_    0.478521 0.758380 0.360235 0.131181
N1    N     N_R   0.500000 0.741310 0.499980 -0.177665
C33   C     C_R   0.508499 0.789554 0.577017 0.099070
H11   H     H_    0.518868 0.749312 0.639344 0.165752
C34   C     C_R   0.503391 0.892392 0.577214 -0.264528
H12   H     H_    0.510237 0.928169 0.639532 0.151236
C35   C     C_R   0.488976 0.948386 0.497638 0.175151
C36   C     C_R   0.570122 0.080940 0.540854 -0.276032
H13   H     H_    0.630255 0.020662 0.574646 0.186256
C37   C     C_R   0.574976 0.180936 0.543232 0.179388
N2    N     N_R   0.500060 0.258650 0.499980 -0.205382
C38   C     C_R   0.420678 0.237079 0.454539 -0.028210
H14   H     H_    0.362133 0.297988 0.420459 0.130347
C39   C     C_R   0.410919 0.138205 0.453334 -0.063360
C40   C     C_R   0.488361 0.057431 0.496878 0.055956
C41   C     C_3   0.163054 0.782766 0.498810 -0.379652
C42   C     C_3   0.189939 0.800370 0.403656 -0.739110
H15   H     H_    0.223900 0.863725 0.401608 0.266951
H16   H     H_    0.247231 0.731961 0.376338 0.247159
H17   H     H_    0.118047 0.820762 0.361082 0.240554
H18   H     H_    0.103654 0.853572 0.520202 0.201904
H19   H     H_    0.230770 0.773973 0.544390 0.226971
C43   C     C_2   0.679974 0.382745 0.778312 0.389359
H20   H     H_    0.689464 0.382329 0.707773 0.023459
O9    O     O_2   0.752382 0.329827 0.824102 -0.525299
C44   C     C_3   0.304218 0.616882 0.751392 -0.412470
C45   C     C_3   0.289527 0.729891 0.739989 -0.779075
H21   H     H_    0.353981 0.741177 0.701114 0.255708
H22   H     H_    0.214419 0.766744 0.704165 0.232082
H23   H     H_    0.287571 0.767516 0.804705 0.256661
H24   H     H_    0.306461 0.583376 0.684867 0.203772
H25   H     H_    0.233929 0.605585 0.780956 0.182819
C46   C     C_2   0.308776 0.642517 0.945229 0.328317
H26   H     H_    0.230271 0.656035 0.918730 0.081237
O10   O     O_2   0.320057 0.688737 0.011230 -0.530053
C47   C     C_3   0.665486 0.556542 0.234513 -0.409627
C48   C     C_3   0.745598 0.460612 0.271695 -0.797154
H27   H     H_    0.708467 0.416620 0.313792 0.249464
H28   H     H_    0.785561 0.411828 0.216882 0.250704
H29   H     H_    0.804552 0.481885 0.312758 0.246757
H30   H     H_    0.706557 0.592904 0.188266 0.199993
H31   H     H_    0.637243 0.612241 0.287747 0.223542
C49   C     C_3   0.333688 0.444421 0.228499 -0.397308
C50   C     C_3   0.355298 0.330008 0.223028 -0.826628
H32   H     H_    0.430096 0.289606 0.258001 0.264720
H33   H     H_    0.291259 0.308723 0.254212 0.225468
H34   H     H_    0.359671 0.305672 0.153002 0.252934
H35   H     H_    0.323075 0.468092 0.298475 0.201648
H36   H     H_    0.258091 0.483475 0.194077 0.200310
C51   C     C_2   0.660789 0.199212 0.595600 0.375904
H37   H     H_    0.652436 0.272329 0.622285 0.112867
O11   O     O_2   0.742070 0.131125 0.611170 -0.557836
C52   C     C_2   0.316449 0.125244 0.409549 0.322143
H38   H     H_    0.274179 0.179436 0.359571 0.043866
O12   O     O_2   0.282157 0.057010 0.430902 -0.541068
C53   C     C_3   0.089986 0.370102 0.354304 -0.420200
C54   C     C_3   0.052809 0.457755 0.287723 -0.813262
H39   H     H_    0.105075 0.442506 0.230341 0.240798
H40   H     H_    0.972732 0.465167 0.262810 0.253346
H41   H     H_    0.053837 0.530285 0.317491 0.259636
H42   H     H_    0.169558 0.362716 0.378920 0.181090
H43   H     H_    0.099716 0.299600 0.316153 0.199961
C55   C     C_2   0.756474 0.579712 0.644191 0.448577
H44   H     H_    0.735712 0.513848 0.663344 0.024951
O13   O     O_2   0.719738 0.658027 0.684933 -0.573017

loop_
_geom_bond_atom_site_label_1
_geom_bond_atom_site_label_2
_geom_bond_distance
_ccdc_geom_bond_type
C47   C48   1.526517 S    
C38   C39   1.418909 A    
C51   H37   1.067884 S    
C25   H7    1.084209 S    
C4    C6    1.480523 S    
C7    C8    1.384857 A    
C52   O12   1.220498 D    
C55   H44   1.075972 S    
C50   H34   1.110544 S    
Cu1   Cu2   2.677152 S    
C28   C29   1.396048 A    
C34   H12   1.082906 S    
Cu1   O7    1.936896 S    
C14   C15   1.396020 A    
C21   C22   1.423935 A    
C43   O9    1.221816 D    
C19   C24   1.393051 A    
C44   H24   1.107583 S    
C20   C21   1.413414 A    
C46   O10   1.221139 D    
C23   C46   1.492714 S    
C19   H6    1.084715 S    
C36   C40   1.398004 A    
C22   C23   1.420286 A    
O7    C4    1.303204 A    
C45   H22   1.109782 S    
C5    C13   1.397452 A    
C28   C49   1.514208 S    
C54   H39   1.108503 S    
C24   C30   1.468095 S    
C41   H18   1.112020 S    
C53   H42   1.100718 S    
O5    C3    1.294474 A    
C53   H43   1.112006 S    
C17   C41   1.519142 S    
C35   C40   1.511146 S    
C50   H32   1.110527 S    
C34   C35   1.407065 A    
C42   H15   1.110502 S    
C31   C32   1.407532 A    
C53   C54   1.528470 S    
C41   H19   1.106903 S    
C11   C15   1.429271 A    
C48   H27   1.108170 S    
C36   H13   1.084282 S    
C51   O11   1.221512 D    
C47   H30   1.112034 S    
C25   C26   1.397445 A    
C49   C50   1.526258 S    
O3    Cu1   1.953715 S    
C7    H4    1.083439 S    
C52   H38   1.083025 S    
C5    C17   1.401612 A    
C29   C30   1.393625 A    
H1    C14   1.084849 S    
C33   C34   1.407738 A    
C36   C37   1.410293 A    
C43   H20   1.077345 S    
C32   H10   1.078142 S    
C11   C18   1.425928 A    
C6    C16   1.404686 A    
C12   C13   1.407185 A    
O3    C2    1.303112 A    
C23   C24   1.415350 A    
C45   H21   1.108468 S    
C13   C14   1.388056 A    
C44   C45   1.527610 S    
C31   C35   1.403647 A    
C41   C42   1.528788 S    
O1    C1    1.293395 A    
C37   C51   1.473613 S    
C26   C27   1.421795 A    
Cu1   N2    2.011432 S    
N2    C38   1.368781 A    
C48   H29   1.108653 S    
C49   H36   1.110844 S    
Cu2   O8    1.953716 S    
C6    C17   1.427429 A    
C29   H8    1.084556 S    
C46   H26   1.082352 S    
C9    C53   1.527105 S    
C20   C43   1.486476 S    
C8    H5    1.083469 S    
Cu2   O6    1.956682 S    
C2    C18   1.478583 S    
C48   H28   1.110629 S    
C39   C40   1.420528 A    
C10   C12   1.422503 A    
C27   C28   1.418860 A    
C5    H2    1.084661 S    
C33   H11   1.078096 S    
O1    Cu1   1.956684 S    
C16   H3    1.076876 S    
O2    Cu2   1.955083 S    
C12   C16   1.395733 A    
O8    C4    1.293376 A    
O6    C3    1.290716 A    
Cu2   N1    2.011128 S    
O4    Cu2   1.936896 S    
C55   O13   1.221278 D    
C50   H33   1.107854 S    
N1    C33   1.366908 A    
C22   C44   1.527223 S    
C54   H41   1.108555 S    
C26   C47   1.518350 S    
O2    C1    1.291230 A    
C45   H23   1.108587 S    
O4    C2    1.292633 A    
C49   H35   1.108789 S    
C42   H17   1.110847 S    
C47   H31   1.107691 S    
C25   C30   1.395377 A    
C54   H40   1.108440 S    
C19   C20   1.390585 A    
C37   N2    1.378595 A    
C38   H14   1.080639 S    
C15   C55   1.485665 S    
Cu1   O5    1.955082 S    
C8    C9    1.401546 A    
C1    C21   1.464707 S    
C42   H16   1.109123 S    
C31   H9    1.082842 S    
C44   H25   1.108888 S    
C10   C11   1.429200 A    
C39   C52   1.481922 S    
C32   N1    1.369678 A    
C9    C10   1.435598 A    
C7    C18   1.397290 A    
C3    C27   1.463488 S    
