data_mof_unit_35490.cif
_audit_creation_date              2012-10-26T18:50:24-0400
_audit_creation_method            fapswitch 2.2
_symmetry_space_group_name_H-M    P1
_symmetry_Int_Tables_number       1
_space_group_crystal_system       triclinic
_cell_length_a                    9.68539
_cell_length_b                    10.795102
_cell_length_c                    15.473209
_cell_angle_alpha                 84.927732
_cell_angle_beta                  73.826878
_cell_angle_gamma                 90.708227
_cell_volume                      1546.53084979

loop_
_atom_site_label
_atom_site_type_symbol
_atom_type_description
_atom_site_fract_x
_atom_site_fract_y
_atom_site_fract_z
_atom_type_partial_charge
Br1   Br    Br    0.760107 0.223357 0.697562 -0.514260
Br2   Br    Br    0.771989 0.792238 0.175658 -0.574196
Br3   Br    Br    0.275595 0.302738 0.643231 -0.505225
C1    C     C_R   0.995615 0.262191 0.506509 0.631575
C2    C     C_R   0.226036 0.527035 0.038951 0.039159
C3    C     C_R   0.321344 0.486331 0.089556 0.008185
C4    C     C_R   0.918049 0.498552 0.672040 0.562357
C5    C     C_R   0.080662 0.544522 0.084216 -0.104310
C6    C     C_R   0.031392 0.526861 0.177902 -0.123229
C7    C     C_R   0.271583 0.481117 0.184579 -0.122509
C8    C     C_R   0.888283 0.090046 0.678245 0.131949
C9    C     C_R   0.882655 0.013556 0.756867 0.003275
C10   C     C_R   0.923223 0.890984 0.752205 0.082587
C11   C     C_R   0.962916 0.842555 0.668469 -0.101202
C12   C     C_R   0.665051 0.464100 0.905975 0.040646
C13   C     C_R   0.973722 0.919465 0.587948 -0.012833
C14   C     C_R   0.950637 0.048262 0.591748 0.007615
C15   C     C_R   0.988735 0.127075 0.509008 0.071671
C16   C     C_R   0.001948 0.737106 0.498620 0.523555
C17   C     C_R   0.029045 0.075940 0.425525 0.071286
C18   C     C_R   0.031726 0.947512 0.423597 -0.143776
C19   C     C_R   0.003858 0.870027 0.503798 -0.000839
C20   C     C_R   0.698441 0.653103 0.355865 0.134110
C21   C     C_R   0.648375 0.702775 0.283114 0.129590
C22   C     C_R   0.503937 0.705605 0.292419 -0.151997
C23   C     C_R   0.751101 0.400649 0.955158 0.089112
C24   C     C_R   0.408764 0.652943 0.370463 -0.124193
C25   C     C_R   0.453094 0.575707 0.435130 0.094257
C26   C     C_R   0.603910 0.575091 0.431848 0.145569
C27   C     C_R   0.546285 0.427144 0.561014 0.032750
C28   C     C_R   0.082117 0.499284 0.327986 0.541432
C29   C     C_R   0.400307 0.424548 0.559909 0.253348
C30   C     C_R   0.870812 0.479079 0.771155 0.005168
C31   C     C_R   0.127919 0.501201 0.228841 -0.002893
C32   C     C_R   0.893230 0.373055 0.910475 -0.121246
C33   C     C_R   0.951180 0.409696 0.818820 -0.130846
C34   C     C_R   0.516209 0.480519 0.948554 0.041672
C35   C     C_R   0.732694 0.512222 0.816330 -0.095506
C36   C     C_R   0.464351 0.456357 0.044208 -0.015919
C37   C     C_R   0.554327 0.396258 0.091531 -0.110710
C38   C     C_R   0.694232 0.366169 0.047795 0.097057
C39   C     C_R   0.416177 0.514894 0.899114 0.139004
C40   C     C_R   0.276418 0.546191 0.944195 0.104278
Cu1   Cu    Cu3+1 0.140660 0.499990 0.500010 1.001797
Cu2   Cu    Cu3+1 0.859340 0.500010 0.499990 1.013749
H1    H     H_    0.002911 0.570411 0.048101 0.149370
H2    H     H_    0.960041 0.321979 0.945751 0.169361
H3    H     H_    0.058257 0.382820 0.785531 0.188287
H4    H     H_    0.681561 0.578147 0.780033 0.153756
H5    H     H_    0.516762 0.364811 0.162485 0.112860
H6    H     H_    0.786034 0.355866 0.150525 0.233749
H7    H     H_    0.725593 0.217813 0.128538 0.257297
H8    H     H_    0.169651 0.136606 0.305501 0.237689
H9    H     H_    0.995283 0.131651 0.305073 0.245703
H10   H     H_    0.014614 0.774528 0.826730 0.245486
H11   H     H_    0.838972 0.741799 0.839575 0.230896
H12   H     H_    0.837248 0.047011 0.822476 0.177807
H13   H     H_    0.816891 0.802117 0.365204 0.237505
H14   H     H_    0.910416 0.701566 0.296803 0.242580
H15   H     H_    0.096556 0.545319 0.901820 0.229106
H16   H     H_    0.159281 0.688235 0.913819 0.248099
H17   H     H_    0.435732 0.589160 0.770706 0.256039
H18   H     H_    0.375670 0.438342 0.793133 0.277449
H19   H     H_    0.987171 0.745321 0.667118 0.126778
H20   H     H_    0.058171 0.908149 0.359145 0.112865
H21   H     H_    0.578070 0.366800 0.610893 0.197054
H22   H     H_    0.344018 0.465342 0.225732 0.132733
H23   H     H_    0.464276 0.755653 0.240907 0.162166
H24   H     H_    0.300371 0.673980 0.375758 0.190538
H25   H     H_    0.918414 0.537493 0.210212 0.152719
N1    N     N_R   0.648320 0.501210 0.499140 -0.253893
N2    N     N_R   0.352470 0.501290 0.499110 -0.231250
N3    N     N_3   0.779386 0.302147 0.098705 -0.636141
N4    N     N_3   0.065139 0.155151 0.342332 -0.618888
N5    N     N_3   0.914720 0.813987 0.833659 -0.605958
N6    N     N_3   0.831607 0.707336 0.357777 -0.534031
N7    N     N_3   0.188881 0.601322 0.891344 -0.651958
N8    N     N_3   0.448806 0.503239 0.803831 -0.610848
O1    O     O_R   0.118810 0.319640 0.500010 -0.443662
O2    O     O_R   0.881240 0.319660 0.500000 -0.466243
O3    O     O_R   0.055570 0.499980 0.629840 -0.472552
O4    O     O_R   0.818000 0.500010 0.629830 -0.474958
O5    O     O_R   0.118760 0.680340 0.500000 -0.532097
O6    O     O_R   0.881190 0.680360 0.499990 -0.465185
O7    O     O_R   0.182000 0.499990 0.370170 -0.530770
O8    O     O_R   0.944430 0.500020 0.370160 -0.480521

loop_
_geom_bond_atom_site_label_1
_geom_bond_atom_site_label_2
_ccdc_geom_bond_type
C28   O7    A    
Cu2   N1    S    
Cu2   O4    S    
Br1   C8    S    
C20   N6    S    
Cu1   O5    S    
C32   H2    S    
C27   N1    A    
H13   N6    S    
C29   N2    A    
C35   H4    S    
C7    H22   S    
C9    C10   A    
C20   C26   A    
C25   C26   A    
C1    O2    A    
C2    C3    A    
C30   C33   A    
C34   C39   A    
C12   C34   A    
H9    N4    S    
C10   N5    S    
H16   N7    S    
C13   C14   A    
C20   C21   A    
C33   H3    S    
C24   H24   S    
H10   N5    S    
C2    C40   A    
H11   N5    S    
C10   C11   A    
C4    C30   S    
C25   N2    A    
C22   H23   S    
C16   O5    A    
H7    N3    S    
H15   N7    S    
C16   C19   S    
C21   C22   A    
C1    O1    A    
Cu1   O3    S    
C36   C37   A    
C5    C6    A    
C12   C23   A    
C32   C33   A    
C12   C35   A    
C11   H19   S    
C14   C15   A    
C28   C31   S    
C17   N4    S    
C7    C31   A    
C6    H25   S    
C27   H21   S    
C9    H12   S    
C37   C38   A    
C4    O3    A    
C39   N8    S    
Br2   C21   S    
C6    C31   A    
C11   C13   A    
Cu2   O6    S    
C22   C24   A    
C39   C40   A    
Cu1   O7    S    
Cu1   Cu2   S    
C8    C14   A    
C13   C19   A    
C18   H20   S    
H17   N8    S    
Cu1   O1    S    
H6    N3    S    
C3    C7    A    
C2    C5    A    
C8    C9    A    
C40   N7    S    
C30   C35   A    
Cu2   O8    S    
C1    C15   S    
C34   C36   A    
C27   C29   A    
C37   H5    S    
Cu1   N2    S    
Cu2   O2    S    
C15   C17   A    
Br3   C29   S    
C5    H1    S    
C38   N3    S    
C23   C32   A    
C4    O4    A    
C17   C18   A    
C24   C25   A    
C28   O8    A    
C3    C36   A    
C18   C19   A    
H14   N6    S    
H18   N8    S    
C16   O6    A    
C23   C38   A    
C26   N1    A    
H8    N4    S    
