data_mof_unit_56156.cif
_audit_creation_date              2013-03-05T15:55:27-0500
_audit_creation_method            fapswitch 2.2
_symmetry_space_group_name_H-M    P1
_symmetry_Int_Tables_number       1
_space_group_crystal_system       triclinic
_cell_length_a                    10.731661
_cell_length_b                    12.314684
_cell_length_c                    13.169483
_cell_angle_alpha                 116.591054
_cell_angle_beta                  77.498185
_cell_angle_gamma                 101.064035
_cell_volume                      1510.41619399

loop_
_atom_site_label
_atom_site_type_symbol
_atom_site_description
_atom_site_fract_x
_atom_site_fract_y
_atom_site_fract_z
_atom_type_partial_charge
O1    O     O_R   0.537340 0.972510 0.318130 -0.581300
O2    O     O_R   0.487200 0.806530 0.359650 -0.595658
C1    C     C_R   0.511495 0.854940 0.286523 0.780874
O3    O     O_R   0.707380 0.082980 0.479220 -0.589181
O4    O     O_R   0.657240 0.917000 0.520740 -0.603994
C2    C     C_R   0.740004 0.998618 0.498398 0.778436
Cu1   Cu    Cu3+1 0.529690 0.098270 0.475420 0.972460
Cu2   Cu    Cu3+1 0.470310 0.901730 0.524580 0.930863
O5    O     O_R   0.512800 0.193470 0.640350 -0.590827
O6    O     O_R   0.462660 0.027490 0.681870 -0.588433
O7    O     O_R   0.342760 0.083000 0.479260 -0.545106
O8    O     O_R   0.292620 0.917020 0.520780 -0.599451
C3    C     C_R   0.481279 0.145064 0.713561 0.827691
C4    C     C_R   0.260271 0.000519 0.499513 0.762031
C5    C     C_3   0.958823 0.094560 0.456479 -0.387007
H1    H     H_    0.926767 0.186639 0.512946 0.219657
H2    H     H_    0.942681 0.072124 0.368109 0.156554
C6    C     C_3   0.102223 0.096939 0.456216 0.240813
H3    H     H_    0.150372 0.067254 0.365371 0.125465
H4    H     H_    0.876019 0.125530 0.679400 0.187687
H5    H     H_    0.085497 0.112993 0.686392 0.206442
C7    C     C_3   0.902779 0.032140 0.620398 -0.362551
C8    C     C_3   0.923141 0.871444 0.415228 -0.341560
C9    C     C_3   0.878195 0.998634 0.497586 0.045817
H6    H     H_    0.868325 0.801011 0.443656 0.207002
H7    H     H_    0.904503 0.845172 0.326828 0.193628
C10   C     C_3   0.122658 0.001642 0.498462 0.006976
C11   C     C_3   0.045480 0.027153 0.619676 -0.339120
C12   C     C_3   0.067995 0.873678 0.413878 -0.429061
H8    H     H_    0.120104 0.851227 0.325252 0.167271
H9    H     H_    0.081821 0.801355 0.437944 0.213672
H10   H     H_    0.842197 0.967727 0.653984 0.173153
H11   H     H_    0.052987 0.952952 0.643718 0.167925
C13   C     C_R   0.338961 0.272909 0.026592 0.346101
H12   H     H_    0.343811 0.092478 0.888576 0.183799
H13   H     H_    0.250395 0.461939 0.221049 0.208881
C14   C     C_R   0.456472 0.227781 0.835328 -0.113249
C15   C     C_R   0.596363 0.814778 0.084691 -0.162591
C16   C     C_R   0.622470 0.735273 0.969869 -0.130175
C17   C     C_R   0.577992 0.611932 0.932815 -0.164790
C18   C     C_R   0.501217 0.565738 0.010166 0.125521
C19   C     C_R   0.462238 0.650111 0.124118 0.097156
C20   C     C_R   0.460943 0.439014 0.978116 0.048757
C21   C     C_R   0.375931 0.399374 0.057350 0.030131
C22   C     C_R   0.324568 0.487064 0.162873 -0.136022
C23   C     C_R   0.365573 0.610023 0.194949 -0.202447
C24   C     C_R   0.503104 0.350455 0.869268 -0.229992
C25   C     C_R   0.377241 0.188563 0.914405 -0.253076
C26   C     C_R   0.519266 0.773015 0.163389 -0.089578
H14   H     H_    0.571119 0.374287 0.807433 0.155454
H15   H     H_    0.639363 0.908679 0.112351 0.156324
H16   H     H_    0.603767 0.556292 0.842638 0.124702
H17   H     H_    0.681246 0.768698 0.909629 0.146011
H18   H     H_    0.317669 0.673281 0.275086 0.172415
C27   C     C_R   0.699191 0.340701 0.321219 -0.203058
H19   H     H_    0.717559 0.161295 0.300218 0.129402
H20   H     H_    0.772538 0.332749 0.248337 0.199072
N1    N     N_R   0.574690 0.246280 0.438200 -0.191012
C28   C     C_R   0.327100 0.760228 0.646826 0.080249
C29   C     C_R   0.292415 0.665032 0.680516 -0.234314
C30   C     C_R   0.359382 0.562360 0.626224 -0.105459
C31   C     C_R   0.462257 0.553183 0.536435 -0.004168
C32   C     C_R   0.494297 0.653242 0.505233 0.231778
C33   C     C_R   0.533609 0.448749 0.476242 -0.063293
C34   C     C_R   0.634424 0.445776 0.385103 0.041505
C35   C     C_R   0.667069 0.546642 0.357853 0.270903
C36   C     C_R   0.597438 0.647040 0.417283 -0.264497
C37   C     C_R   0.508454 0.345550 0.501728 0.127777
C38   C     C_R   0.667845 0.242050 0.349471 0.066142
N2    N     N_R   0.426100 0.754320 0.561190 -0.197372
H21   H     H_    0.436175 0.341370 0.571047 0.145493
H22   H     H_    0.275276 0.839987 0.689933 0.128850
H23   H     H_    0.328250 0.491799 0.656189 0.176764
H24   H     H_    0.213586 0.670965 0.749178 0.164252
H25   H     H_    0.629967 0.720042 0.392706 0.228509
N3    N     N_R   0.263256 0.228692 0.107562 0.112024
O9    O     O_R   0.295146 0.267777 0.209056 -0.333823
O10   O     O_R   0.177521 0.134593 0.073710 -0.371949
N4    N     N_R   0.772923 0.550495 0.270946 0.107090
O11   O     O_R   0.760281 0.591088 0.198299 -0.370766
O12   O     O_R   0.887229 0.535737 0.277759 -0.380034
N5    N     N_R   0.156962 0.222490 0.522246 0.127029
O13   O     O_R   0.117373 0.281202 0.631406 -0.404358
O14   O     O_R   0.228309 0.283007 0.467196 -0.337234

loop_
_geom_bond_atom_site_label_1
_geom_bond_atom_site_label_2
_geom_bond_distance
_ccdc_geom_bond_type
C5    C6    1.532849 S    
C10   C12   1.557207 S    
C18   C19   1.416244 A    
C1    C26   1.470890 S    
Cu1   Cu2   2.704704 S    
C15   C26   1.402083 A    
C16   H17   1.082909 S    
C22   C23   1.384557 A    
Cu1   O7    1.970288 S    
C35   N4    1.437943 S    
C31   C32   1.426486 A    
C7    H10   1.113186 S    
C33   C37   1.418295 A    
N3    O10   1.301529 A    
C15   C16   1.385692 A    
O7    C4    1.296799 A    
C5    H1    1.114089 S    
C5    H2    1.114356 S    
C6    H3    1.115931 S    
C19   C23   1.409517 A    
C8    H7    1.112997 S    
O5    C3    1.302035 A    
C31   C33   1.439163 A    
C8    C9    1.550798 S    
C4    C10   1.482642 S    
C14   C24   1.390900 A    
Cu1   N1    2.038435 S    
C3    C14   1.461820 S    
C28   H22   1.081723 S    
C35   C36   1.390919 A    
C28   C29   1.391530 A    
C7    C11   1.542195 S    
C18   C20   1.425040 A    
O3    Cu1   1.965152 S    
H12   C25   1.083549 S    
C27   C34   1.408090 A    
C24   H14   1.075388 S    
C32   C36   1.403838 A    
C13   C21   1.419354 A    
N3    O9    1.301624 A    
O3    C2    1.295550 A    
C16   C17   1.389991 A    
N4    O12   1.301405 A    
C15   H15   1.083362 S    
C28   N2    1.357728 A    
C30   H23   1.077439 S    
C17   H16   1.076299 S    
C29   C30   1.394034 A    
O1    C1    1.304890 A    
C20   C21   1.425611 A    
C12   H8    1.113237 S    
C32   N2    1.386736 A    
Cu2   O8    1.965151 S    
C2    C9    1.480704 S    
C23   H18   1.080622 S    
H13   C22   1.081665 S    
C14   C25   1.396438 A    
C27   C38   1.386014 A    
N1    C37   1.363863 A    
C17   C18   1.419740 A    
H5    C11   1.109720 S    
H4    C7    1.113119 S    
C11   H11   1.113560 S    
N5    O13   1.301100 A    
N5    O14   1.300616 A    
C27   H20   1.081099 S    
C7    C9    1.549602 S    
C13   C25   1.399163 A    
C34   C35   1.404296 A    
C8    C12   1.545855 S    
C21   C22   1.398052 A    
Cu1   O5    1.938171 S    
C5    C9    1.553906 S    
O1    Cu1   1.949166 S    
O2    Cu2   1.938173 S    
C6    C10   1.571924 S    
O8    C4    1.301238 A    
O6    C3    1.301761 A    
O4    Cu2   1.970290 S    
N1    C38   1.351779 A    
Cu2   N2    2.026530 S    
C33   C34   1.423427 A    
O2    C1    1.302484 A    
C12   H9    1.113311 S    
O4    C2    1.301788 A    
C37   H21   1.076048 S    
C29   H24   1.082604 S    
C6    N5    1.469930 S    
C8    H6    1.112676 S    
C30   C31   1.411716 A    
C19   C26   1.418988 A    
N4    O11   1.301547 A    
C36   H25   1.061103 S    
Cu2   O6    1.949166 S    
H19   C38   1.081981 S    
C10   C11   1.552874 S    
C20   C24   1.399271 A    
C13   N3    1.438261 S    
