data_mof_unit_60737.cif
_audit_creation_date              2012-12-10T16:43:20-0500
_audit_creation_method            fapswitch 2.2
_symmetry_space_group_name_H-M    P1
_symmetry_Int_Tables_number       1
_space_group_crystal_system       triclinic
_cell_length_a                    30.209845
_cell_length_b                    30.893913
_cell_length_c                    21.803992
_cell_angle_alpha                 90.000295
_cell_angle_beta                  134.402638
_cell_angle_gamma                 89.99959
_cell_volume                      14538.6296858

loop_
_atom_site_label
_atom_site_type_symbol
_atom_type_description
_atom_site_fract_x
_atom_site_fract_y
_atom_site_fract_z
_atom_type_partial_charge
C1    C     C_R   0.689696 0.808960 0.882884 0.765919
C2    C     C_R   0.310294 0.808960 0.117115 0.766019
C3    C     C_R   0.189697 0.308960 0.882884 0.765937
C4    C     C_R   0.810306 0.308960 0.117116 0.765936
C5    C     C_R   0.453132 0.788879 0.999326 0.054843
C6    C     C_R   0.546870 0.788879 0.000679 0.054824
C7    C     C_R   0.953131 0.288880 0.999324 0.055522
C8    C     C_R   0.046869 0.288880 0.000677 0.055529
C9    C     C_R   0.477307 0.670205 0.000774 0.594620
C10   C     C_R   0.522694 0.670205 0.999227 0.594622
C11   C     C_R   0.977309 0.170206 0.000776 0.594285
C12   C     C_R   0.022695 0.170206 0.999229 0.594289
C13   C     C_R   0.523305 0.828022 0.000533 -0.135991
C14   C     C_R   0.476697 0.828022 0.999474 -0.136014
C15   C     C_R   0.023303 0.328023 0.000530 -0.137313
C16   C     C_R   0.976695 0.328023 0.999470 -0.137303
C17   C     C_2   0.561159 0.870114 0.675030 0.199517
C18   C     C_2   0.438886 0.870158 0.324856 0.199510
C19   C     C_2   0.061163 0.370120 0.675041 0.199119
C20   C     C_2   0.938821 0.370105 0.324997 0.199123
C21   C     C_2   0.589433 0.903664 0.674367 -0.202946
C22   C     C_2   0.410606 0.903625 0.325710 -0.203198
C23   C     C_2   0.089437 0.403670 0.674378 -0.203212
C24   C     C_2   0.910551 0.403684 0.325595 -0.203124
C25   C     C_2   0.599606 0.835025 0.738289 -0.278741
C26   C     C_2   0.400453 0.835053 0.261638 -0.278807
C27   C     C_2   0.099608 0.335029 0.738294 -0.278740
C28   C     C_2   0.900372 0.335020 0.261731 -0.278716
C29   C     C_2   0.652707 0.843375 0.819637 0.459286
C30   C     C_2   0.347252 0.843380 0.180356 0.459442
C31   C     C_2   0.152710 0.343376 0.819641 0.458482
C32   C     C_2   0.847304 0.343374 0.180361 0.458437
C33   C     C_R   0.132472 0.749849 0.078396 0.567292
C34   C     C_R   0.867533 0.749741 0.921603 0.567287
C35   C     C_R   0.632470 0.249792 0.078399 0.568134
C36   C     C_R   0.367529 0.249794 0.921600 0.568143
C37   C     C_R   0.116343 0.750854 0.000621 -0.169663
C38   C     C_R   0.883657 0.750855 0.999372 -0.169775
C39   C     C_R   0.616344 0.250851 0.000626 -0.168236
C40   C     C_R   0.383655 0.250851 0.999373 -0.168233
C41   C     C_R   0.054144 0.752290 0.922671 -0.323695
C42   C     C_R   0.945854 0.752402 0.077314 -0.323635
C43   C     C_R   0.554147 0.252325 0.922678 -0.322133
C44   C     C_R   0.445852 0.252323 0.077321 -0.322134
C45   C     C_R   0.664256 0.749863 0.999822 0.921247
C46   C     C_R   0.335744 0.749863 0.000178 0.921210
C47   C     C_R   0.164256 0.249863 0.999822 0.920676
C48   C     C_R   0.835744 0.249863 0.000178 0.920686
C49   C     C_R   0.006728 0.751774 0.920812 0.121172
C50   C     C_R   0.993271 0.751889 0.079176 0.121129
C51   C     C_R   0.506730 0.251805 0.920817 0.121870
C52   C     C_R   0.493269 0.251802 0.079182 0.121871
C53   C     C_R   0.023205 0.751232 0.999788 -0.026225
C54   C     C_R   0.976796 0.751233 0.000203 -0.026217
C55   C     C_R   0.523205 0.251212 0.999792 -0.026257
C56   C     C_R   0.476795 0.251212 0.000207 -0.026259
C57   C     C_R   0.086204 0.750653 0.078508 -0.041930
C58   C     C_R   0.913799 0.750543 0.921486 -0.041943
C59   C     C_R   0.586202 0.250581 0.078513 -0.041806
C60   C     C_R   0.413797 0.250583 0.921486 -0.041808
C61   C     C_R   0.943424 0.751618 0.842293 0.159753
C62   C     C_R   0.056576 0.751847 0.157695 0.159739
C63   C     C_R   0.443427 0.251693 0.842296 0.162069
C64   C     C_R   0.556572 0.251689 0.157703 0.162072
C65   C     C_R   0.897826 0.750721 0.843736 -0.134329
C66   C     C_R   0.102176 0.750946 0.156256 -0.134291
C67   C     C_R   0.397826 0.250807 0.843736 -0.133410
C68   C     C_R   0.602173 0.250803 0.156263 -0.133416
C69   C     C_2   0.903213 0.590585 0.249171 -0.139168
C70   C     C_2   0.096788 0.590585 0.750829 -0.139179
C71   C     C_2   0.437821 0.125204 0.317149 -0.150654
C72   C     C_2   0.562178 0.125203 0.682854 -0.150635
C73   C     C_2   0.902628 0.588535 0.310019 -0.297700
C74   C     C_2   0.097371 0.588535 0.689980 -0.297694
C75   C     C_2   0.408889 0.094799 0.322289 -0.291363
C76   C     C_2   0.591110 0.094799 0.677710 -0.291372
C77   C     C_2   0.862311 0.620873 0.176285 -0.132845
C78   C     C_2   0.137690 0.620873 0.823716 -0.132873
C79   C     C_2   0.403086 0.161624 0.256391 -0.164495
C80   C     C_2   0.596913 0.161623 0.743612 -0.164498
C81   C     C_2   0.846976 0.659194 0.185871 -0.285293
C82   C     C_2   0.153023 0.659194 0.814129 -0.285304
C83   C     C_2   0.344558 0.156504 0.180459 -0.272622
C84   C     C_2   0.655443 0.156504 0.819541 -0.272625
C85   C     C_R   0.059989 0.557693 0.619388 0.850301
C86   C     C_R   0.940010 0.557693 0.380612 0.850286
C87   C     C_R   0.558056 0.059642 0.615569 0.847279
C88   C     C_R   0.441944 0.059642 0.384431 0.847327
C89   C     C_R   0.810091 0.691248 0.117540 0.834617
C90   C     C_R   0.189908 0.691248 0.882460 0.834606
C91   C     C_R   0.309906 0.191015 0.117059 0.833136
C92   C     C_R   0.690095 0.191015 0.882941 0.833135
C93   C     C_R   0.557316 0.939709 0.614099 0.814073
C94   C     C_R   0.442695 0.939699 0.385921 0.814172
C95   C     C_R   0.057317 0.439710 0.614102 0.809867
C96   C     C_R   0.942679 0.439714 0.385890 0.809830
C97   C     C_R   0.835497 0.750315 0.999684 0.852565
C98   C     C_R   0.164503 0.750314 0.000313 0.852700
C99   C     C_R   0.335496 0.250316 0.999683 0.853728
C100  C     C_R   0.664504 0.250316 0.000317 0.853717
C101  C     C_R   0.406469 0.788834 0.998573 0.485415
C102  C     C_R   0.593533 0.788834 0.001431 0.485466
C103  C     C_R   0.906467 0.288834 0.998571 0.484860
C104  C     C_R   0.093532 0.288834 0.001430 0.484842
C105  C     C_R   0.384213 0.749577 0.000446 -0.331951
C106  C     C_R   0.615788 0.749577 0.999556 -0.331968
C107  C     C_R   0.884213 0.249577 0.000445 -0.330612
C108  C     C_R   0.115788 0.249577 0.999556 -0.330607
C109  C     C_R   0.407954 0.710049 0.002256 0.590157
C110  C     C_R   0.592047 0.710049 0.997745 0.590151
C111  C     C_R   0.907955 0.210050 0.002256 0.589384
C112  C     C_R   0.092047 0.210050 0.997747 0.589390
C113  C     C_R   0.453863 0.709452 0.001153 -0.247362
C114  C     C_R   0.546138 0.709452 0.998849 -0.247354
C115  C     C_R   0.953863 0.209453 0.001153 -0.246613
C116  C     C_R   0.046139 0.209453 0.998850 -0.246617
C117  C     C_R   0.476734 0.749115 0.000123 -0.109965
C118  C     C_R   0.523267 0.749115 0.999880 -0.109968
C119  C     C_R   0.976734 0.249116 0.000122 -0.110088
C120  C     C_R   0.023267 0.249116 0.999880 -0.110087
Cu1   Cu    Cu3+1 0.719490 0.719480 0.938970 1.067021
Cu2   Cu    Cu3+1 0.280510 0.719480 0.061030 1.066949
Cu3   Cu    Cu3+1 0.219490 0.219480 0.938970 1.070751
Cu4   Cu    Cu3+1 0.780510 0.219480 0.061030 1.070749
Cu5   Cu    Cu3+1 0.780480 0.780500 0.060980 1.059398
Cu6   Cu    Cu3+1 0.219520 0.780500 0.939020 1.059443
Cu7   Cu    Cu3+1 0.280480 0.280500 0.060980 1.057346
Cu8   Cu    Cu3+1 0.719520 0.280500 0.939020 1.057348
Cu9   Cu    Cu3+1 0.455530 0.999980 0.499990 0.998151
Cu10  Cu    Cu3+1 0.544470 0.999980 0.500010 0.998024
Cu11  Cu    Cu3+1 0.955530 0.499980 0.499990 0.995872
Cu12  Cu    Cu3+1 0.044470 0.499980 0.500010 0.995919
H1    H     H_    0.043439 0.752848 0.863800 0.182706
H2    H     H_    0.956560 0.753044 0.136184 0.182807
H3    H     H_    0.543444 0.252916 0.863808 0.180217
H4    H     H_    0.456556 0.252912 0.136192 0.180216
H5    H     H_    0.849432 0.750322 0.783549 0.203483
H6    H     H_    0.150571 0.750634 0.216445 0.203479
H7    H     H_    0.349432 0.250449 0.783547 0.203497
H8    H     H_    0.650567 0.250443 0.216452 0.203496
H9    H     H_    0.931570 0.568306 0.250249 0.173665
H10   H     H_    0.068433 0.568306 0.749753 0.173658
H11   H     H_    0.487936 0.124798 0.361170 0.168850
H12   H     H_    0.512064 0.124796 0.638838 0.168856
H13   H     H_    0.869341 0.607369 0.303897 0.166112
H14   H     H_    0.130657 0.607370 0.696101 0.166117
H15   H     H_    0.359823 0.097807 0.284963 0.169979
H16   H     H_    0.640175 0.097809 0.715032 0.169970
H17   H     H_    0.847852 0.612659 0.115990 0.173082
H18   H     H_    0.152153 0.612658 0.884011 0.173082
H19   H     H_    0.427034 0.192120 0.272315 0.165009
H20   H     H_    0.572963 0.192118 0.727691 0.165007
H21   H     H_    0.867051 0.669415 0.248658 0.154428
H22   H     H_    0.132945 0.669415 0.751342 0.154436
H23   H     H_    0.322911 0.124770 0.160487 0.174784
H24   H     H_    0.677091 0.124771 0.839511 0.174777
H25   H     H_    0.540693 0.858804 0.000957 0.203387
H26   H     H_    0.459310 0.858804 0.999051 0.203377
H27   H     H_    0.040690 0.358805 0.000953 0.202309
H28   H     H_    0.959307 0.358805 0.999046 0.202314
H29   H     H_    0.639239 0.902671 0.715453 0.178266
H30   H     H_    0.360827 0.902541 0.284814 0.178313
H31   H     H_    0.139242 0.402679 0.715466 0.178972
H32   H     H_    0.860737 0.402724 0.284442 0.178958
H33   H     H_    0.582493 0.802018 0.718527 0.142774
H34   H     H_    0.417664 0.802063 0.281346 0.142667
H35   H     H_    0.082496 0.302024 0.718529 0.142965
H36   H     H_    0.917450 0.302008 0.281515 0.143000
O1    O     O_R   0.679710 0.768740 0.859430 -0.615930
O2    O     O_R   0.320290 0.768740 0.140570 -0.615890
O3    O     O_R   0.179710 0.268740 0.859430 -0.615868
O4    O     O_R   0.820290 0.268740 0.140570 -0.615878
O5    O     O_R   0.082020 0.544510 0.588970 -0.574428
O6    O     O_R   0.917980 0.544510 0.411030 -0.574438
O7    O     O_R   0.582020 0.044510 0.588970 -0.579842
O8    O     O_R   0.417980 0.044510 0.411030 -0.579818
O9    O     O_R   0.506970 0.955460 0.589020 -0.569053
O10   O     O_R   0.493030 0.955460 0.410980 -0.569143
O11   O     O_R   0.006970 0.455460 0.589020 -0.573753
O12   O     O_R   0.993030 0.455460 0.410980 -0.573723
O13   O     O_R   0.582050 0.955480 0.588990 -0.587433
O14   O     O_R   0.417950 0.955480 0.411010 -0.587358
O15   O     O_R   0.082050 0.455480 0.588990 -0.586601
O16   O     O_R   0.917950 0.455480 0.411010 -0.586624
O17   O     O_R   0.731220 0.820270 0.962460 -0.518666
O18   O     O_R   0.268780 0.820270 0.037540 -0.518688
O19   O     O_R   0.231220 0.320270 0.962460 -0.519260
O20   O     O_R   0.768780 0.320270 0.037540 -0.519251
O21   O     O_R   0.659370 0.724200 0.948480 -0.549636
O22   O     O_R   0.340630 0.724200 0.051520 -0.549651
O23   O     O_R   0.159370 0.224200 0.948480 -0.550710
O24   O     O_R   0.840630 0.224200 0.051520 -0.550707
O25   O     O_R   0.710880 0.775730 0.051510 -0.544004
O26   O     O_R   0.289120 0.775730 0.948490 -0.544018
O27   O     O_R   0.210880 0.275730 0.051510 -0.543344
O28   O     O_R   0.789120 0.275730 0.948490 -0.543339
O29   O     O_R   0.768760 0.679710 0.037490 -0.563640
O30   O     O_R   0.231240 0.679710 0.962510 -0.563646
O31   O     O_R   0.268760 0.179710 0.037490 -0.568444
O32   O     O_R   0.731240 0.179710 0.962510 -0.568446
O33   O     O_R   0.820270 0.731240 0.140520 -0.601196
O34   O     O_R   0.179730 0.731240 0.859480 -0.601197
O35   O     O_R   0.320270 0.231240 0.140520 -0.594832
O36   O     O_R   0.679730 0.231240 0.859480 -0.594831
O37   O     O_R   0.789100 0.724240 0.948440 -0.540341
O38   O     O_R   0.210900 0.724240 0.051560 -0.540507
O39   O     O_R   0.289100 0.224240 0.948440 -0.536542
O40   O     O_R   0.710900 0.224240 0.051560 -0.536534
O41   O     O_R   0.840600 0.775770 0.051470 -0.597910
O42   O     O_R   0.159400 0.775770 0.948530 -0.597831
O43   O     O_R   0.340600 0.275770 0.051470 -0.600938
O44   O     O_R   0.659400 0.275770 0.948530 -0.600947
O45   O     O_R   0.006940 0.544490 0.589000 -0.578673
O46   O     O_R   0.993060 0.544490 0.411000 -0.578668
O47   O     O_R   0.506940 0.044490 0.589000 -0.575140
O48   O     O_R   0.493060 0.044490 0.411000 -0.575145
F1    F     F_    0.383746 0.826931 0.998311 -0.640571
F2    F     F_    0.616256 0.826931 0.001695 -0.640494
F3    F     F_    0.883744 0.326932 0.998307 -0.641656
F4    F     F_    0.116254 0.326932 0.001692 -0.641684
C121  C     C_3   0.923315 0.752090 0.756492 -0.845476
H37   H     H_    0.941588 0.723027 0.750321 0.234372
H38   H     H_    0.872067 0.751842 0.702121 0.238310
H39   H     H_    0.940895 0.781776 0.750707 0.243066
C122  C     C_3   0.076683 0.752450 0.243494 -0.845440
H40   H     H_    0.059018 0.782146 0.249103 0.243084
H41   H     H_    0.058496 0.723398 0.249837 0.234367
H42   H     H_    0.127931 0.752281 0.297864 0.238315
C123  C     C_3   0.423324 0.252202 0.756498 -0.849291
H43   H     H_    0.440932 0.281890 0.750767 0.242232
H44   H     H_    0.441575 0.223142 0.750280 0.233358
H45   H     H_    0.372076 0.251977 0.702123 0.238728
C124  C     C_3   0.576675 0.252195 0.243502 -0.849303
H46   H     H_    0.559070 0.281884 0.249236 0.242232
H47   H     H_    0.558423 0.223136 0.249718 0.233359
H48   H     H_    0.627923 0.251969 0.297875 0.238727
F5    F     F_    0.384793 0.672410 0.002613 -0.575137
F6    F     F_    0.615207 0.672410 0.997386 -0.575140
F7    F     F_    0.884794 0.172411 0.002614 -0.578124
F8    F     F_    0.115209 0.172411 0.997390 -0.578118
F9    F     F_    0.456359 0.631512 0.001546 -0.537762
F10   F     F_    0.543642 0.631512 0.998453 -0.537763
F11   F     F_    0.956361 0.131513 0.001549 -0.539039
F12   F     F_    0.043644 0.131513 0.998457 -0.539032
C125  C     C_3   0.491633 0.865192 0.609067 -0.772476
H49   H     H_    0.478096 0.833596 0.616217 0.226930
H50   H     H_    0.470746 0.891086 0.617390 0.255839
H51   H     H_    0.472606 0.866788 0.543329 0.212204
C126  C     C_3   0.508422 0.865352 0.390520 -0.772163
H52   H     H_    0.521977 0.833807 0.383240 0.226839
H53   H     H_    0.529096 0.891319 0.381970 0.255852
H54   H     H_    0.527651 0.866913 0.456377 0.212360
C127  C     C_3   0.991638 0.365201 0.609083 -0.772831
H55   H     H_    0.978100 0.333605 0.616234 0.226816
H56   H     H_    0.970756 0.391096 0.617411 0.254837
H57   H     H_    0.972608 0.366798 0.543343 0.213154
C128  C     C_3   0.008342 0.365146 0.391055 -0.772938
H58   H     H_    0.021873 0.333533 0.383947 0.226847
H59   H     H_    0.029298 0.391016 0.382806 0.254837
H60   H     H_    0.027304 0.366755 0.456754 0.213099
F13   F     F_    0.670391 0.884914 0.848429 -0.632744
F14   F     F_    0.329436 0.884916 0.151598 -0.632752
F15   F     F_    0.170393 0.384915 0.848437 -0.634269
F16   F     F_    0.829668 0.384915 0.151553 -0.634262
F17   F     F_    0.193257 0.749310 0.153831 -0.663808
F18   F     F_    0.806751 0.749099 0.846167 -0.663763
F19   F     F_    0.693254 0.249211 0.153836 -0.663432
F20   F     F_    0.306746 0.249214 0.846163 -0.663425

loop_
_geom_bond_atom_site_label_1
_geom_bond_atom_site_label_2
_ccdc_geom_bond_type
C44   H4    S    
Cu1   O1    S    
C55   C56   A    
Cu9   O47   S    
C55   C59   A    
Cu11  O45   S    
C11   F11   S    
Cu2   O38   S    
C69   C77   S    
C18   C26   S    
Cu4   O24   S    
C57   C66   A    
C72   C76   D    
C3    O3    A    
C40   C99   S    
C71   C79   S    
C100  O40   A    
C71   C75   D    
C99   O43   A    
C53   C54   A    
Cu6   O34   S    
C31   F15   S    
Cu1   Cu5   S    
C98   O42   A    
C91   O35   A    
Cu5   O33   S    
C126  H52   S    
C50   C54   A    
C97   O41   A    
C14   H26   S    
C37   C41   A    
C64   C68   A    
Cu3   O31   S    
C56   C60   A    
C46   O22   A    
C38   C42   A    
C121  H39   S    
Cu7   O27   S    
C24   C96   S    
Cu12  O15   S    
Cu1   O21   S    
C127  H55   S    
C22   H30   S    
C48   C107  S    
C70   C78   S    
C18   C126  S    
C69   H9    S    
C15   C16   A    
C46   C105  S    
C122  H42   S    
C81   H21   S    
C27   H35   S    
C35   C59   A    
C128  H58   S    
C94   O10   A    
C41   C49   A    
C87   O7    A    
C32   F16   S    
C78   C82   D    
C104  F4    S    
Cu10  O10   S    
C93   O13   A    
C19   C127  S    
C20   C24   D    
C60   C67   A    
C23   C95   S    
Cu2   O2    S    
C61   C121  S    
C10   F10   S    
C70   C74   D    
Cu7   O19   S    
C84   C92   S    
Cu9   O8    S    
Cu10  O48   S    
Cu5   O25   S    
C19   C27   S    
C124  H46   S    
C110  C114  A    
C40   C44   A    
C29   F13   S    
C10   C114  A    
C80   C84   D    
C20   C128  S    
C63   C123  S    
Cu6   O18   S    
C81   C89   S    
C97   O37   A    
C44   C52   A    
C104  C108  A    
C9    F9    S    
C121  H38   S    
C7    C103  A    
C125  H49   S    
C48   O28   A    
C101  C105  A    
C36   F20   S    
C24   H32   S    
C2    O18   A    
C107  C111  A    
C65   H5    S    
C96   O16   A    
C38   C97   S    
C101  F1    S    
C28   C32   D    
C13   H25   S    
C37   C98   S    
C72   C80   S    
C34   F18   S    
C92   O36   A    
C46   O26   A    
C23   H31   S    
C25   C29   D    
C73   C86   S    
Cu2   O22   S    
C5    C101  A    
C70   H10   S    
C21   H29   S    
C62   C66   A    
C27   C31   D    
C84   H24   S    
C7    C119  A    
C11   C115  A    
C36   C40   A    
C51   C63   A    
C52   C64   A    
C77   H17   S    
C127  H56   S    
Cu5   O41   S    
C19   C23   D    
C71   H11   S    
C39   C43   A    
C20   C28   S    
C112  F8    S    
Cu9   O9    S    
C100  O44   A    
C22   C94   S    
C111  F7    S    
C108  C112  A    
Cu5   O17   S    
C73   H13   S    
C86   O6    A    
C45   O25   A    
C34   C38   A    
Cu2   Cu6   S    
C76   H16   S    
C35   C39   A    
C86   O46   A    
C63   C67   A    
C15   H27   S    
C123  H43   S    
C43   H3    S    
C85   O45   A    
C59   C68   A    
C121  H37   S    
C124  H47   S    
Cu11  O16   S    
Cu6   O26   S    
C58   C65   A    
C85   O5    A    
C90   O34   A    
Cu4   O4    S    
C123  H44   S    
C17   C125  S    
C119  C120  A    
Cu9   O14   S    
C54   C58   A    
C122  H40   S    
Cu3   O39   S    
C4    C32   S    
C82   C90   S    
C96   O12   A    
C69   C73   D    
C109  C113  A    
C8    C104  A    
C76   C87   S    
Cu1   O29   S    
C5    C14   A    
C114  C118  A    
C126  H53   S    
C42   C50   A    
C113  C117  A    
C41   H1    S    
C111  C115  A    
Cu7   O43   S    
C7    C16   A    
C33   F17   S    
C26   C30   D    
C8    C15   A    
C115  C119  A    
C125  H50   S    
C99   O39   A    
Cu6   O42   S    
C77   C81   D    
C50   C62   A    
C80   H20   S    
C68   H8    S    
Cu12  O46   S    
C2    C30   S    
Cu3   O23   S    
Cu11  Cu12  S    
Cu11  O11   S    
Cu3   Cu7   S    
C112  C116  A    
C67   H7    S    
C45   C106  S    
C78   H18   S    
C79   H19   S    
Cu9   Cu10  S    
C9    C10   A    
C95   O11   A    
C12   F12   S    
C72   H12   S    
C8    C120  A    
C105  C109  A    
C26   H34   S    
C126  H54   S    
C33   C57   A    
C4    O4    A    
C95   O15   A    
C25   H33   S    
Cu8   O20   S    
Cu1   O37   S    
C88   O48   A    
C30   F14   S    
C74   H14   S    
Cu8   O28   S    
C17   C25   S    
C36   C60   A    
Cu10  O13   S    
C3    O19   A    
C127  H57   S    
C61   C65   A    
C11   C12   A    
C110  F6    S    
C90   O30   A    
C109  F5    S    
Cu10  O7    S    
C123  H45   S    
C62   C122  S    
C89   O29   A    
C89   O33   A    
Cu4   O32   S    
Cu11  O6    S    
C88   O8    A    
Cu4   Cu8   S    
Cu12  O12   S    
C42   H2    S    
C128  H60   S    
C75   H15   S    
C1    O17   A    
C4    O20   A    
C18   C22   D    
C93   O9    A    
C91   O31   A    
C64   C124  S    
C2    O2    A    
C92   O32   A    
C117  C118  A    
Cu8   O44   S    
C3    C31   S    
C79   C83   D    
Cu2   O30   S    
C49   C61   A    
C43   C51   A    
C1    C29   S    
C47   O27   A    
C35   F19   S    
C21   C93   S    
C49   C53   A    
C83   C91   S    
C1    O1    A    
C122  H41   S    
C53   C57   A    
C102  C106  A    
Cu8   O36   S    
C51   C55   A    
Cu12  O5    S    
C6    C102  A    
C74   C85   S    
C47   O23   A    
C124  H48   S    
C33   C37   A    
C9    C113  A    
C48   O24   A    
C102  F2    S    
C66   H6    S    
C82   H22   S    
C116  C120  A    
C75   C88   S    
Cu4   O40   S    
C83   H23   S    
C16   H28   S    
C39   C100  S    
C6    C13   A    
C106  C110  A    
C47   C108  S    
C125  H51   S    
C5    C117  A    
C34   C58   A    
C45   O21   A    
C87   O47   A    
C98   O38   A    
C103  C107  A    
C94   O14   A    
C128  H59   S    
C13   C14   A    
Cu7   O35   S    
C6    C118  A    
C28   H36   S    
Cu3   O3    S    
C52   C56   A    
C103  F3    S    
C12   C116  A    
C17   C21   D    
