data_mof_unit_42735.cif
_audit_creation_date              2012-12-10T18:58:11-0500
_audit_creation_method            fapswitch 2.2
_symmetry_space_group_name_H-M    P1
_symmetry_Int_Tables_number       1
_space_group_crystal_system       triclinic
_cell_length_a                    11.008864
_cell_length_b                    11.012992
_cell_length_c                    9.6041
_cell_angle_alpha                 92.18835
_cell_angle_beta                  102.149121
_cell_angle_gamma                 92.334801
_cell_volume                      1136.07828713

loop_
_atom_site_label
_atom_site_type_symbol
_atom_type_description
_atom_site_fract_x
_atom_site_fract_y
_atom_site_fract_z
_atom_type_partial_charge
C1    C     C_R   0.497209 0.262669 0.496503 0.875070
C2    C     C_R   0.490540 0.129670 0.489454 -0.178927
C3    C     C_R   0.466486 0.056272 0.360490 0.242104
C4    C     C_R   0.451650 0.927929 0.364293 0.247434
C5    C     C_R   0.484469 0.869559 0.496456 -0.189347
C6    C     C_R   0.509050 0.945834 0.619235 -0.080463
C7    C     C_3   0.538613 0.953341 0.779580 0.194197
C8    C     C_3   0.524607 0.092260 0.771346 0.523333
C9    C     C_R   0.602307 0.540772 0.100635 0.154219
C10   C     C_R   0.401429 0.450384 0.045179 0.275306
C11   C     C_R   0.400871 0.454890 0.898129 0.048665
C12   C     C_R   0.262854 0.496366 0.442561 0.858566
C13   C     C_R   0.605962 0.532287 0.953877 0.268539
C14   C     C_3   0.674370 0.651958 0.964642 -0.133582
C15   C     C_3   0.655566 0.668933 0.116654 -0.145319
C16   C     C_R   0.494467 0.737083 0.500216 0.850968
C17   C     C_R   0.737744 0.495826 0.556696 0.785895
C18   C     C_2   0.128075 0.501453 0.412885 0.026335
C19   C     C_2   0.058847 0.434175 0.484987 0.261609
C20   C     C_2   0.873396 0.481017 0.582404 0.163756
C21   C     C_2   0.925625 0.451701 0.470881 -0.199607
C22   C     C_R   0.505462 0.068650 0.614698 -0.051262
Cu1   Cu    Cu3+1 0.499990 0.499980 0.640670 1.022405
Cu2   Cu    Cu3+1 0.500010 0.500020 0.359330 1.004744
H1    H     H_    0.869074 0.437565 0.364063 0.160191
H2    H     H_    0.319657 0.420380 0.820954 0.218286
H3    H     H_    0.622872 0.710702 0.887565 0.161595
H4    H     H_    0.586028 0.737342 0.126075 0.209937
N1    N     N_R   0.500780 0.500930 0.148120 -0.211895
N2    N     N_R   0.500790 0.500890 0.852210 -0.247840
O1    O     O_R   0.500000 0.319640 0.618810 -0.538091
O2    O     O_R   0.500010 0.319680 0.381230 -0.566516
O3    O     O_R   0.320680 0.500000 0.575130 -0.575298
O4    O     O_R   0.320690 0.500040 0.337550 -0.583633
O5    O     O_R   0.499990 0.680320 0.618770 -0.610751
O6    O     O_R   0.500000 0.680360 0.381190 -0.552617
O7    O     O_R   0.679310 0.499960 0.662450 -0.517053
O8    O     O_R   0.679320 0.500000 0.424870 -0.617454
Br1   Br    Br    0.673416 0.195164 0.853841 -0.362723
N3    N     N_3   0.294637 0.391312 0.080042 -0.498445
H5    H     H_    0.320623 0.338405 0.167967 0.289820
H6    H     H_    0.232168 0.456606 0.096072 0.277488
N4    N     N_3   0.803292 0.640892 0.950745 -0.477654
H7    H     H_    0.851690 0.724226 0.983577 0.290020
H8    H     H_    0.845883 0.574566 0.016848 0.294118
N5    N     N_3   0.769892 0.688588 0.225689 -0.500100
H9    H     H_    0.745925 0.723505 0.318510 0.252078
H10   H     H_    0.807616 0.605078 0.250756 0.257346
Br2   Br    Br    0.123827 0.296334 0.588333 -0.384603
Br3   Br    Br    0.972296 0.503428 0.772823 -0.391620
Br4   Br    Br    0.061861 0.623240 0.284864 -0.479600
Br5   Br    Br    0.459801 0.123359 0.177457 -0.363239
Br6   Br    Br    0.366964 0.839625 0.189866 -0.373888
N6    N     N_3   0.446052 0.889366 0.844532 -0.498164
H11   H     H_    0.451525 0.795975 0.829078 0.226086
H12   H     H_    0.356425 0.906229 0.789090 0.273680
N7    N     N_3   0.667569 0.925853 0.840160 -0.524152
H13   H     H_    0.695920 0.854028 0.782257 0.230902
H14   H     H_    0.677693 0.907629 0.947913 0.269372
Br7   Br    Br    0.374468 0.154565 0.817664 -0.360223

loop_
_geom_bond_atom_site_label_1
_geom_bond_atom_site_label_2
_ccdc_geom_bond_type
C2    C22   A    
C8    C22   S    
C3    Br5   S    
Cu2   O2    S    
C6    C7    S    
C15   N5    S    
C8    Br1   S    
C14   H3    S    
C19   Br2   S    
Cu2   O8    S    
C7    N6    S    
C9    N1    A    
Cu1   Cu2   S    
N3    H6    S    
C2    C3    A    
N7    H13   S    
C7    C8    S    
C16   O5    A    
C17   O7    A    
C13   C14   S    
C8    Br7   S    
Cu2   N1    S    
N4    H8    S    
C10   N1    A    
C15   H4    S    
Cu2   O6    S    
C20   Br3   S    
N3    H5    S    
C19   C21   S    
C18   Br4   S    
C18   C19   D    
Cu1   O5    S    
C17   O8    A    
N4    H7    S    
C9    C15   S    
C5    C6    A    
C4    Br6   S    
N6    H12   S    
N7    H14   S    
N5    H10   S    
C10   C11   A    
C12   O4    A    
C3    C4    A    
C6    C22   A    
Cu1   N2    S    
C13   N2    A    
C1    O1    A    
C17   C20   S    
C20   C21   D    
C10   N3    S    
C1    C2    S    
N5    H9    S    
C12   C18   S    
C21   H1    S    
N6    H11   S    
C14   N4    S    
C5    C16   S    
C9    C13   A    
C11   H2    S    
C12   O3    A    
Cu1   O7    S    
C7    N7    S    
C1    O2    A    
C16   O6    A    
C14   C15   S    
C11   N2    A    
Cu1   O1    S    
C4    C5    A    
Cu1   O3    S    
Cu2   O4    S    
