data_mof_unit_8539.cif
_audit_creation_date              2013-03-05T15:40:08-0500
_audit_creation_method            fapswitch 2.2
_symmetry_space_group_name_H-M    P1
_symmetry_Int_Tables_number       1
_space_group_crystal_system       triclinic
_cell_length_a                    27.979042
_cell_length_b                    18.724452
_cell_length_c                    16.891
_cell_angle_alpha                 90.210034
_cell_angle_beta                  63.074198
_cell_angle_gamma                 90.29231
_cell_volume                      7889.65754528

loop_
_atom_site_label
_atom_site_type_symbol
_atom_site_description
_atom_site_fract_x
_atom_site_fract_y
_atom_site_fract_z
_atom_type_partial_charge
O1    O     O_R   0.255040 0.869590 0.478480 -0.567603
O2    O     O_R   0.744960 0.130410 0.521520 -0.567293
O3    O     O_R   0.744960 0.869590 0.521520 -0.568960
O4    O     O_R   0.255040 0.130410 0.478480 -0.569021
O5    O     O_R   0.755040 0.369590 0.478480 -0.565990
O6    O     O_R   0.244960 0.630410 0.521520 -0.565730
O7    O     O_R   0.244960 0.369590 0.521520 -0.568600
O8    O     O_R   0.755040 0.630410 0.478480 -0.567335
O9    O     O_R   0.182050 0.796550 0.624440 -0.529782
O10   O     O_R   0.817950 0.203450 0.375560 -0.532035
O11   O     O_R   0.817950 0.796550 0.375560 -0.533640
O12   O     O_R   0.182050 0.203450 0.624440 -0.525508
O13   O     O_R   0.682050 0.296550 0.624440 -0.530211
O14   O     O_R   0.317950 0.703450 0.375560 -0.530583
O15   O     O_R   0.317950 0.296550 0.375560 -0.524925
O16   O     O_R   0.682050 0.703450 0.624440 -0.522404
Cu1   Cu    Cu3+1 0.209920 0.785290 0.495070 1.106082
Cu2   Cu    Cu3+1 0.790080 0.214710 0.504930 1.109459
Cu3   Cu    Cu3+1 0.790080 0.785290 0.504930 1.099792
Cu4   Cu    Cu3+1 0.209920 0.214710 0.495070 1.103876
Cu5   Cu    Cu3+1 0.709920 0.285290 0.495070 1.115191
Cu6   Cu    Cu3+1 0.290080 0.714710 0.504930 1.115207
Cu7   Cu    Cu3+1 0.290080 0.285290 0.504930 1.109132
Cu8   Cu    Cu3+1 0.709920 0.714710 0.495070 1.110355
C1    C     C_R   0.295898 0.730598 0.329061 0.830934
C2    C     C_R   0.704064 0.269328 0.670954 0.832522
C3    C     C_R   0.704026 0.730772 0.671027 0.852563
C4    C     C_R   0.295840 0.269498 0.329024 0.835458
C5    C     C_R   0.795925 0.230649 0.329051 0.831489
C6    C     C_R   0.204082 0.769366 0.670943 0.835547
C7    C     C_R   0.204142 0.230537 0.670982 0.834868
C8    C     C_R   0.795841 0.769489 0.329016 0.822531
O17   O     O_R   0.250530 0.763330 0.367210 -0.531966
O18   O     O_R   0.749470 0.236670 0.632790 -0.530444
O19   O     O_R   0.749470 0.763330 0.632790 -0.532166
O20   O     O_R   0.250530 0.236670 0.367210 -0.546853
O21   O     O_R   0.750530 0.263330 0.367210 -0.530305
O22   O     O_R   0.249470 0.736670 0.632790 -0.530133
O23   O     O_R   0.249470 0.263330 0.632790 -0.545692
O24   O     O_R   0.750530 0.736670 0.367210 -0.547046
O25   O     O_R   0.177260 0.690030 0.513710 -0.599614
O26   O     O_R   0.822740 0.309970 0.486290 -0.596010
O27   O     O_R   0.822740 0.690030 0.486290 -0.607284
O28   O     O_R   0.177260 0.309970 0.513710 -0.595869
O29   O     O_R   0.677260 0.190030 0.513710 -0.591903
O30   O     O_R   0.322740 0.809970 0.486290 -0.591834
O31   O     O_R   0.322740 0.190030 0.486290 -0.591408
O32   O     O_R   0.677260 0.809970 0.513710 -0.591850
C9    C     C_R   0.196976 0.631477 0.525848 0.784637
C10   C     C_R   0.803746 0.368147 0.471188 0.780496
C11   C     C_R   0.803060 0.631620 0.473658 0.792359
C12   C     C_R   0.200615 0.368912 0.513851 0.793466
C13   C     C_R   0.696642 0.131770 0.527712 0.781647
C14   C     C_R   0.303359 0.868230 0.472286 0.781854
C15   C     C_R   0.299350 0.130901 0.486202 0.791339
C16   C     C_R   0.700651 0.869099 0.513795 0.791639
H1    H     H_    0.581426 0.777539 0.377816 0.185566
H2    H     H_    0.418574 0.222457 0.622182 0.185205
H3    H     H_    0.496665 0.776317 0.368317 0.179208
H4    H     H_    0.503337 0.223681 0.631678 0.179231
H5    H     H_    0.077547 0.266143 0.393135 0.180396
H6    H     H_    0.956364 0.743069 0.501618 0.165114
H7    H     H_    0.992702 0.264033 0.383382 0.176419
H8    H     H_    0.027334 0.739407 0.548520 0.167731
C17   C     C_R   0.041204 0.625767 0.525440 0.083533
C18   C     C_R   0.972748 0.374115 0.424427 0.085520
C19   C     C_R   0.957172 0.628990 0.478612 0.076069
C20   C     C_R   0.069490 0.375806 0.438860 0.086003
C21   C     C_R   0.528724 0.119589 0.571161 0.088567
C22   C     C_R   0.471279 0.880410 0.428828 0.088571
C23   C     C_R   0.431271 0.118413 0.559481 0.088704
C24   C     C_R   0.568733 0.881587 0.440507 0.088534
C25   C     C_R   0.015195 0.690278 0.528503 -0.146532
C26   C     C_R   0.004950 0.312858 0.403819 -0.156430
C27   C     C_R   0.974943 0.692391 0.501472 -0.146213
C28   C     C_R   0.053360 0.314057 0.409568 -0.147174
C29   C     C_R   0.493375 0.177528 0.603077 -0.159039
C30   C     C_R   0.506627 0.822471 0.396915 -0.159171
C31   C     C_R   0.444963 0.176804 0.597666 -0.154205
C32   C     C_R   0.555039 0.823194 0.402326 -0.153864
C33   C     C_R   0.981079 0.563962 0.479633 0.034950
C34   C     C_R   0.037781 0.437268 0.459146 0.033821
C35   C     C_R   0.025505 0.563014 0.497577 0.033419
C36   C     C_R   0.990276 0.436999 0.449059 0.033589
C37   C     C_R   0.465920 0.059523 0.528647 0.034691
C38   C     C_R   0.534085 0.940478 0.471338 0.034651
C39   C     C_R   0.514594 0.059904 0.535068 0.033365
C40   C     C_R   0.485411 0.940097 0.464918 0.033379
C41   C     C_R   0.451348 0.999730 0.493299 -0.034596
C42   C     C_R   0.548657 0.000271 0.506686 -0.034565
C43   C     C_R   0.961585 0.500418 0.460001 -0.035278
C44   C     C_R   0.054265 0.499667 0.487036 -0.034921
C45   C     C_R   0.386080 0.937238 0.457838 0.044190
C46   C     C_R   0.613923 0.062761 0.542153 0.044201
C47   C     C_R   0.629376 0.938359 0.491243 0.040533
C48   C     C_R   0.370628 0.061641 0.508747 0.040798
C49   C     C_R   0.890570 0.435212 0.442785 0.043254
C50   C     C_R   0.116853 0.563071 0.528216 0.045871
C51   C     C_R   0.130754 0.436350 0.486167 0.039337
C52   C     C_R   0.887759 0.566277 0.454752 0.045322
C53   C     C_R   0.333809 0.935482 0.462916 -0.104184
C54   C     C_R   0.666192 0.064518 0.537079 -0.104167
C55   C     C_R   0.673810 0.936295 0.511083 -0.107152
C56   C     C_R   0.326192 0.063705 0.488911 -0.107220
C57   C     C_R   0.836668 0.434716 0.453998 -0.101524
C58   C     C_R   0.166851 0.564263 0.531874 -0.103093
C59   C     C_R   0.174027 0.435516 0.509224 -0.103698
C60   C     C_R   0.835584 0.565701 0.458599 -0.099910
C61   C     C_R   0.307009 0.999837 0.470945 -0.231565
C62   C     C_R   0.692992 0.000162 0.529052 -0.231118
C63   C     C_R   0.811124 0.500048 0.459151 -0.235281
C64   C     C_R   0.192411 0.499704 0.528242 -0.235400
H9    H     H_    0.269770 0.999888 0.465870 0.207023
H10   H     H_    0.730229 0.000111 0.534131 0.207229
H11   H     H_    0.770401 0.499761 0.467436 0.205118
H12   H     H_    0.228210 0.499716 0.537716 0.206441
C65   C     C_R   0.402799 0.999640 0.486202 0.073756
C66   C     C_R   0.597204 0.000360 0.513786 0.073704
C67   C     C_R   0.913116 0.500564 0.452517 0.069023
C68   C     C_R   0.100460 0.499505 0.501199 0.071877
C69   C     C_R   0.616332 0.881518 0.448761 -0.201594
C70   C     C_R   0.383671 0.118482 0.551230 -0.201911
C71   C     C_R   0.422055 0.879265 0.425520 -0.192267
C72   C     C_R   0.577947 0.120734 0.574472 -0.192235
C73   C     C_R   0.116926 0.377048 0.447558 -0.199705
C74   C     C_R   0.915750 0.629846 0.454870 -0.191905
C75   C     C_R   0.923376 0.373455 0.421235 -0.190357
C76   C     C_R   0.083524 0.623739 0.547461 -0.192611
H13   H     H_    0.643612 0.837794 0.418341 0.185771
H14   H     H_    0.356391 0.162204 0.581653 0.185158
H15   H     H_    0.413234 0.833928 0.394421 0.188813
H16   H     H_    0.586766 0.166070 0.605574 0.188795
H17   H     H_    0.143125 0.331909 0.420471 0.189830
H18   H     H_    0.908017 0.681180 0.435196 0.199720
H19   H     H_    0.912321 0.325041 0.398630 0.194265
H20   H     H_    0.089097 0.670028 0.580608 0.192389
H21   H     H_    0.241767 0.877054 0.967485 0.141896
H22   H     H_    0.758009 0.122641 0.032844 0.141896
H23   H     H_    0.757898 0.878384 0.034310 0.141919
H24   H     H_    0.241291 0.122798 0.966833 0.142056
H25   H     H_    0.741902 0.377195 0.967236 0.142465
H26   H     H_    0.257953 0.622436 0.032767 0.141725
H27   H     H_    0.258556 0.377492 0.033298 0.142033
H28   H     H_    0.740912 0.623900 0.966717 0.142974
C77   C     C_R   0.219450 0.768189 0.955988 0.142834
C78   C     C_R   0.780377 0.231515 0.044168 0.142981
C79   C     C_R   0.779466 0.769404 0.045213 0.146837
C80   C     C_R   0.219898 0.231742 0.955326 0.146153
C81   C     C_R   0.719534 0.268322 0.955906 0.142816
C82   C     C_R   0.280271 0.731304 0.044247 0.143698
C83   C     C_R   0.279945 0.268546 0.044801 0.146012
C84   C     C_R   0.719333 0.732869 0.955757 0.143555
C85   C     C_R   0.224512 0.696361 0.974636 -0.072878
C86   C     C_R   0.775333 0.303322 0.025429 -0.071354
C87   C     C_R   0.774252 0.697642 0.026003 -0.072908
C88   C     C_R   0.225169 0.303572 0.974236 -0.074629
C89   C     C_R   0.724578 0.196514 0.974645 -0.071698
C90   C     C_R   0.275200 0.803128 0.025611 -0.071947
C91   C     C_R   0.274670 0.196718 0.025897 -0.075445
C92   C     C_R   0.724508 0.804644 0.975026 -0.076237
H29   H     H_    0.205046 0.654570 0.955174 0.162322
H30   H     H_    0.794825 0.345131 0.044810 0.162635
H31   H     H_    0.793417 0.655842 0.045417 0.162741
H32   H     H_    0.206094 0.345307 0.954547 0.162691
H33   H     H_    0.705087 0.154705 0.955260 0.162471
H34   H     H_    0.294668 0.844922 0.045066 0.162366
H35   H     H_    0.293747 0.154983 0.045583 0.162736
H36   H     H_    0.705345 0.846436 0.955597 0.162691
C93   C     C_R   0.254919 0.678018 0.018120 -0.144642
C94   C     C_R   0.744916 0.321625 0.981951 -0.143718
C95   C     C_R   0.744157 0.679448 0.981849 -0.148144
C96   C     C_R   0.255233 0.321905 0.018412 -0.149932
C97   C     C_R   0.754994 0.178210 0.018127 -0.144235
C98   C     C_R   0.244795 0.821470 0.982131 -0.144961
C99   C     C_R   0.244609 0.178386 0.981722 -0.150754
C100  C     C_R   0.754623 0.822844 0.019183 -0.148825
C101  C     C_R   0.146640 0.833385 0.941278 -0.284489
C102  C     C_R   0.853241 0.166414 0.058842 -0.283561
C103  C     C_R   0.852952 0.833626 0.059133 -0.287739
C104  C     C_R   0.146635 0.167116 0.941245 -0.288711
C105  C     C_R   0.646703 0.333481 0.941200 -0.283134
C106  C     C_R   0.353195 0.666303 0.058860 -0.283727
C107  C     C_R   0.353277 0.333054 0.058819 -0.289154
C108  C     C_R   0.646374 0.667703 0.941368 -0.287777
H37   H     H_    0.135145 0.855077 0.006975 0.201256
H38   H     H_    0.864686 0.144627 0.993206 0.202057
H39   H     H_    0.864499 0.855145 0.993451 0.201658
H40   H     H_    0.134973 0.145841 0.007076 0.200407
H41   H     H_    0.635257 0.355261 0.006841 0.202017
H42   H     H_    0.364665 0.644545 0.993202 0.202133
H43   H     H_    0.364937 0.354343 0.992995 0.200430
H44   H     H_    0.634816 0.646314 0.007114 0.200032
C109  C     C_R   0.117388 0.850768 0.894913 -0.156528
C110  C     C_R   0.882588 0.149207 0.105108 -0.156947
C111  C     C_R   0.882559 0.850644 0.105039 -0.157168
C112  C     C_R   0.117297 0.149563 0.895062 -0.155773
C113  C     C_R   0.617383 0.350746 0.894908 -0.156993
C114  C     C_R   0.382564 0.649164 0.105111 -0.157161
C115  C     C_R   0.382665 0.350494 0.104953 -0.155686
C116  C     C_R   0.617171 0.649781 0.895078 -0.154827
C117  C     C_R   0.132512 0.821551 0.810004 0.265294
C118  C     C_R   0.867529 0.178559 0.189939 0.267933
C119  C     C_R   0.867492 0.821416 0.189808 0.265872
C120  C     C_R   0.132518 0.178432 0.810084 0.261004
C121  C     C_R   0.632442 0.321395 0.810073 0.267291
C122  C     C_R   0.367503 0.678543 0.189927 0.267134
C123  C     C_R   0.367461 0.321571 0.189899 0.260634
C124  C     C_R   0.632374 0.678570 0.810053 0.260156
C125  C     C_R   0.180286 0.782039 0.768010 -0.269904
C126  C     C_R   0.819710 0.217974 0.231985 -0.269220
C127  C     C_R   0.819275 0.782472 0.232216 -0.268056
C128  C     C_R   0.180614 0.217651 0.767811 -0.271345
C129  C     C_R   0.680251 0.281954 0.768039 -0.269363
C130  C     C_R   0.319631 0.717846 0.232022 -0.269305
C131  C     C_R   0.319321 0.282450 0.232219 -0.271264
C132  C     C_R   0.680239 0.718294 0.768000 -0.273697
C133  C     C_R   0.207665 0.761409 0.817574 0.283845
C134  C     C_R   0.792261 0.238477 0.182485 0.283619
C135  C     C_R   0.791174 0.762677 0.183302 0.284140
C136  C     C_R   0.208469 0.237928 0.816952 0.284678
C137  C     C_R   0.707667 0.261392 0.817568 0.284079
C138  C     C_R   0.292096 0.738172 0.182595 0.284427
C139  C     C_R   0.291385 0.262335 0.183151 0.285343
C140  C     C_R   0.707696 0.739374 0.817484 0.285724
C141  C     C_R   0.190417 0.787248 0.904468 -0.040998
C142  C     C_R   0.809449 0.212525 0.095653 -0.041405
C143  C     C_R   0.808631 0.788231 0.096470 -0.040712
C144  C     C_R   0.190863 0.212675 0.903951 -0.039640
C145  C     C_R   0.690471 0.287327 0.904410 -0.041290
C146  C     C_R   0.309337 0.712298 0.095727 -0.041672
C147  C     C_R   0.308997 0.287587 0.096155 -0.039631
C148  C     C_R   0.690293 0.713827 0.904348 -0.039599
O33   O     O_R   0.051640 0.926880 0.885090 -0.520210
O34   O     O_R   0.948360 0.073120 0.114910 -0.520825
O35   O     O_R   0.948360 0.926880 0.114910 -0.520718
O36   O     O_R   0.051640 0.073120 0.885090 -0.520096
O37   O     O_R   0.551640 0.426880 0.885090 -0.520640
O38   O     O_R   0.448360 0.573120 0.114910 -0.520819
O39   O     O_R   0.448360 0.426880 0.114910 -0.520220
O40   O     O_R   0.551640 0.573120 0.885090 -0.519950
Cu9   Cu    Cu3+1 0.495240 0.500000 0.924150 1.110551
Cu10  Cu    Cu3+1 0.504760 0.500000 0.075850 1.110362
Cu11  Cu    Cu3+1 0.995240 1.000000 0.924150 1.111680
Cu12  Cu    Cu3+1 0.004760 0.000000 0.075850 1.106865
C149  C     C_R   0.926767 0.902613 0.066363 0.814805
C150  C     C_R   0.073204 0.097422 0.933663 0.814585
C151  C     C_R   0.073303 0.902768 0.933477 0.814400
C152  C     C_R   0.926695 0.097234 0.066526 0.814608
C153  C     C_R   0.426790 0.402585 0.066339 0.814075
C154  C     C_R   0.573201 0.597435 0.933651 0.813883
C155  C     C_R   0.573297 0.402754 0.933478 0.814458
C156  C     C_R   0.426695 0.597232 0.066524 0.814106
O41   O     O_R   0.940620 0.926560 0.986760 -0.594935
O42   O     O_R   0.059380 0.073440 0.013240 -0.596048
O43   O     O_R   0.059380 0.926560 0.013240 -0.594776
O44   O     O_R   0.940620 0.073440 0.986760 -0.593823
O45   O     O_R   0.440620 0.426560 0.986760 -0.595960
O46   O     O_R   0.559380 0.573440 0.013240 -0.595893
O47   O     O_R   0.559380 0.426560 0.013240 -0.593732
O48   O     O_R   0.440620 0.573440 0.986760 -0.593874
N1    N     N_R   0.098480 0.829785 0.767595 0.149280
O49   O     O_R   0.103060 0.885811 0.719133 -0.306487
O50   O     O_R   0.067298 0.777444 0.769244 -0.357852
N2    N     N_R   0.901692 0.170647 0.232159 0.148417
O51   O     O_R   0.897307 0.114743 0.280700 -0.307989
O52   O     O_R   0.932837 0.223144 0.230201 -0.369408
N3    N     N_R   0.901982 0.829002 0.231576 0.150014
O53   O     O_R   0.898135 0.884694 0.280524 -0.307631
O54   O     O_R   0.932933 0.776423 0.228701 -0.352823
N4    N     N_R   0.098323 0.170070 0.767888 0.152419
O55   O     O_R   0.102696 0.114221 0.718883 -0.304477
O56   O     O_R   0.066177 0.221498 0.772095 -0.334299
N5    N     N_R   0.598294 0.329343 0.767828 0.148812
O57   O     O_R   0.602679 0.385304 0.719375 -0.305272
O58   O     O_R   0.567465 0.276654 0.769154 -0.370316
N6    N     N_R   0.401712 0.670765 0.232084 0.148887
O59   O     O_R   0.397420 0.614873 0.280591 -0.305773
O60   O     O_R   0.432564 0.723504 0.230520 -0.370225
N7    N     N_R   0.401721 0.329761 0.231999 0.152404
O61   O     O_R   0.397455 0.385558 0.281023 -0.303501
O62   O     O_R   0.433740 0.278176 0.227827 -0.334242
N8    N     N_R   0.598394 0.669603 0.767549 0.151758
O63   O     O_R   0.603101 0.613511 0.718737 -0.302629
O64   O     O_R   0.566365 0.720884 0.770832 -0.334858
N9    N     N_R   0.253340 0.715092 0.780086 0.133396
O65   O     O_R   0.247295 0.648530 0.763954 -0.336531
O66   O     O_R   0.300031 0.737699 0.768916 -0.337397
N10   N     N_R   0.746602 0.284823 0.219958 0.133461
O67   O     O_R   0.699901 0.262247 0.231137 -0.337462
O68   O     O_R   0.752676 0.351386 0.236048 -0.336564
N11   N     N_R   0.744478 0.717726 0.221386 0.131307
O69   O     O_R   0.749208 0.650649 0.236356 -0.334204
O70   O     O_R   0.698143 0.742074 0.233676 -0.376914
N12   N     N_R   0.255083 0.283027 0.778916 0.130981
O71   O     O_R   0.301427 0.258917 0.766897 -0.376537
O72   O     O_R   0.250266 0.350003 0.763629 -0.332525
N13   N     N_R   0.753312 0.215020 0.780104 0.133345
O73   O     O_R   0.747228 0.148478 0.763944 -0.336752
O74   O     O_R   0.800017 0.237562 0.768941 -0.337552
N14   N     N_R   0.246255 0.784199 0.220197 0.133188
O75   O     O_R   0.199602 0.761189 0.231641 -0.342513
O76   O     O_R   0.252100 0.850891 0.236077 -0.337945
N15   N     N_R   0.244672 0.217418 0.221260 0.130391
O77   O     O_R   0.249363 0.150364 0.236378 -0.333720
O78   O     O_R   0.198353 0.241782 0.233484 -0.374858
N16   N     N_R   0.753593 0.785764 0.779966 0.132298
O79   O     O_R   0.800180 0.763341 0.768802 -0.345579
O80   O     O_R   0.747869 0.852221 0.763763 -0.334482

loop_
_geom_bond_atom_site_label_1
_geom_bond_atom_site_label_2
_geom_bond_distance
_ccdc_geom_bond_type
O39   C153  1.298878 A    
Cu2   Cu5   2.678544 S    
C59   C64   1.397420 A    
C23   C70   1.400452 A    
N11   O69   1.301247 A    
C5    C126  1.482531 S    
N15   O78   1.301260 A    
C103  C111  1.402226 A    
N8    O63   1.302669 A    
C101  C109  1.405061 A    
C38   C40   1.414252 A    
C111  C119  1.408580 A    
Cu6   O22   1.974883 S    
C109  C117  1.407914 A    
C6    O22   1.290981 A    
C130  C138  1.422418 A    
Cu4   O28   1.966632 S    
O33   Cu11  1.967859 S    
O3    Cu3   1.964812 S    
C36   C43   1.400858 A    
C112  C120  1.408393 A    
C79   C87   1.403475 A    
C104  C112  1.401992 A    
C49   C57   1.432327 A    
C122  C130  1.408846 A    
C116  C124  1.408584 A    
Cu12  O42   1.967312 S    
C25   C27   1.394527 A    
O25   C9    1.287864 A    
C29   C31   1.398279 A    
O36   C150  1.298846 A    
C38   C42   1.409648 A    
C45   C53   1.425905 A    
C79   C100  1.401736 A    
C128  C136  1.421626 A    
C3    O19   1.287125 A    
C149  O41   1.299930 A    
C85   H29   1.083029 S    
C132  C140  1.421473 A    
N15   O77   1.301237 A    
C78   C86   1.404777 A    
C13   C54   1.484925 S    
C120  C128  1.408372 A    
N16   O79   1.301228 A    
O13   Cu5   1.970438 S    
C133  N9    1.435488 S    
H2    C31   1.083659 S    
C34   C36   1.414455 A    
C48   C56   1.427348 A    
C3    C132  1.481364 S    
N4    O56   1.300667 A    
H6    C27   1.083739 S    
C89   H33   1.083026 S    
N14   O75   1.301221 A    
C156  O48   1.299004 A    
O38   C156  1.301316 A    
C45   C71   1.413741 A    
C16   C55   1.479991 S    
O2    C13   1.308247 A    
Cu11  O41   1.967311 S    
C50   C68   1.419601 A    
C9    C58   1.489008 S    
H7    C26   1.083520 S    
C48   C70   1.417205 A    
C82   C146  1.479806 S    
C60   C63   1.401923 A    
C125  C133  1.422381 A    
N9    O66   1.301213 A    
Cu3   O19   1.975765 S    
O10   Cu2   1.970438 S    
C91   H35   1.083079 S    
N7    O62   1.300626 A    
C102  H38   1.083783 S    
C136  N12   1.435511 S    
O5    Cu5   1.956097 S    
C40   C41   1.406435 A    
C46   C54   1.425898 A    
C106  H42   1.083782 S    
C134  C142  1.406014 A    
C83   C91   1.403603 A    
C120  N4    1.436348 S    
C14   C53   1.484925 S    
C21   C29   1.403395 A    
C80   C144  1.474355 S    
C105  C113  1.405123 A    
C23   C31   1.404450 A    
C101  H37   1.083788 S    
C111  C149  1.471108 S    
H28   C95   1.083281 S    
C86   C94   1.397104 A    
C26   C28   1.401173 A    
C55   C62   1.395935 A    
C52   C74   1.421994 A    
N11   O70   1.301246 A    
O7    C12   1.304510 A    
Cu2   O26   1.960259 S    
N1    O49   1.302670 A    
C30   C32   1.398280 A    
C113  C155  1.474469 S    
C18   C26   1.404328 A    
C72   H16   1.081432 S    
Cu9   Cu10  2.693474 S    
C106  C146  1.396439 A    
C83   C147  1.474320 S    
N2    O51   1.302652 A    
C108  C116  1.401949 A    
C10   C57   1.495059 S    
H8    C25   1.083723 S    
C62   H10   1.083424 S    
C155  O47   1.299093 A    
O28   C12   1.280271 A    
O16   C3    1.300395 A    
C92   H36   1.083068 S    
O29   C13   1.290014 A    
N13   O74   1.301210 A    
H1    C32   1.083652 S    
C119  C127  1.408332 A    
H23   C100  1.083259 S    
C45   C65   1.416657 A    
H3    C30   1.083662 S    
C117  C125  1.408813 A    
C33   C35   1.406655 A    
C47   C55   1.427351 A    
Cu5   O29   1.960258 S    
H5    C28   1.083590 S    
C52   C60   1.431522 A    
Cu7   O31   1.966632 S    
Cu8   O32   1.966632 S    
C48   C65   1.414212 A    
C129  C137  1.422382 A    
C8    C127  1.480781 S    
C79   C143  1.474568 S    
O33   C151  1.301299 A    
C87   H31   1.083092 S    
C15   C56   1.479998 S    
C88   C96   1.394905 A    
N10   O68   1.301291 A    
C49   C67   1.416654 A    
Cu4   Cu7   2.666624 S    
C52   C67   1.415288 A    
C74   H18   1.072713 S    
O9    C6    1.304129 A    
O26   C10   1.290295 A    
C41   C65   1.416649 A    
O11   C8    1.300699 A    
C19   C33   1.396146 A    
O12   C7    1.300499 A    
C43   C67   1.417873 A    
O13   C2    1.304178 A    
C19   C27   1.403592 A    
C85   C93   1.397149 A    
C107  C147  1.393887 A    
C64   H12   1.083527 S    
C69   H13   1.079324 S    
C86   H30   1.083021 S    
O35   C149  1.298855 A    
C90   C98   1.397013 A    
N3    O53   1.302626 A    
C20   C28   1.406420 A    
C127  C135  1.421717 A    
O1    Cu1   1.956097 S    
O37   Cu9   1.967859 S    
C20   C34   1.400407 A    
O14   Cu6   1.970438 S    
C44   C68   1.416983 A    
C24   C32   1.404452 A    
C46   C66   1.416657 A    
C135  N11   1.435538 S    
O7    Cu7   1.964812 S    
O40   Cu9   1.960005 S    
N5    O58   1.300701 A    
C103  C143  1.393862 A    
C101  C141  1.396513 A    
C114  C156  1.474356 S    
C77   C98   1.402283 A    
C138  C146  1.405868 A    
O34   Cu12  1.967856 S    
C7    O23   1.286708 A    
C110  C152  1.474418 S    
C20   C73   1.399951 A    
C133  C141  1.406013 A    
C84   C148  1.474823 S    
O40   C154  1.298704 A    
Cu9   O48   1.972782 S    
C24   C69   1.400459 A    
Cu10  O46   1.967312 S    
Cu10  O47   1.972785 S    
C113  C121  1.408072 A    
C6    C125  1.482509 S    
C107  H43   1.083936 S    
C102  C110  1.405129 A    
O11   Cu3   1.971301 S    
C42   C66   1.416649 A    
O36   Cu11  1.960005 S    
O31   C15   1.283578 A    
C75   H19   1.079261 S    
C76   H20   1.078499 S    
N12   O71   1.301248 A    
C103  H39   1.083929 S    
C53   C61   1.395934 A    
Cu11  Cu12  2.693474 S    
O6    Cu6   1.956095 S    
C121  N5    1.436602 S    
C34   C44   1.409624 A    
C136  C144  1.404567 A    
C104  H40   1.083940 S    
C116  C154  1.471427 S    
C105  H41   1.083786 S    
C7    C128  1.480770 S    
C12   C59   1.475690 S    
C139  C147  1.404492 A    
N16   O80   1.301251 A    
N7    O61   1.302655 A    
C108  H44   1.083944 S    
C21   C39   1.409160 A    
C47   C69   1.417207 A    
C4    C131  1.480703 S    
C50   C76   1.413951 A    
C57   C63   1.402366 A    
C121  C129  1.408860 A    
Cu1   O17   1.974881 S    
Cu3   O27   1.966632 S    
C134  N10   1.435512 S    
C17   C76   1.393296 A    
C19   C74   1.387612 A    
C37   C41   1.409650 A    
C150  O42   1.299908 A    
C21   C72   1.403482 A    
C71   H15   1.081432 S    
C104  C144  1.393925 A    
Cu11  O44   1.972782 S    
C131  C139  1.421658 A    
N9    O65   1.301266 A    
O30   C14   1.290013 A    
H22   C97   1.083209 S    
C123  C131  1.408371 A    
H26   C93   1.083217 S    
Cu6   O30   1.960259 S    
C2    C129  1.482629 S    
O4    C15   1.303986 A    
O5    C10   1.311991 A    
C54   C62   1.395933 A    
C90   H34   1.083034 S    
C139  N15   1.435519 S    
C82   C90   1.404766 A    
C138  N14   1.435502 S    
N8    O64   1.300595 A    
C153  O45   1.299869 A    
H27   C96   1.083269 S    
C24   C38   1.405844 A    
C124  N8    1.436373 S    
C51   C59   1.430053 A    
Cu1   Cu6   2.678544 S    
C122  N6    1.436593 S    
Cu3   Cu8   2.666624 S    
C81   C145  1.479944 S    
H21   C98   1.083223 S    
C119  N3    1.436514 S    
O34   C152  1.301296 A    
N3    O54   1.300691 A    
O10   C5    1.304166 A    
O27   C11   1.281950 A    
O15   C4    1.300532 A    
C77   C141  1.479846 S    
H24   C99   1.083271 S    
H25   C94   1.083207 S    
C115  C153  1.471072 S    
O14   C1    1.304195 A    
O35   Cu12  1.960004 S    
C33   C43   1.406216 A    
Cu5   O21   1.974881 S    
C4    O20   1.286626 A    
N2    O52   1.300820 A    
C39   C42   1.406437 A    
C137  C145  1.406037 A    
N4    O55   1.302666 A    
C80   C88   1.403640 A    
C135  C143  1.404504 A    
C81   C89   1.404803 A    
C89   C97   1.397145 A    
C151  O43   1.298996 A    
C84   C92   1.403781 A    
C22   C30   1.403396 A    
N13   O73   1.301270 A    
C106  C114  1.405140 A    
C49   C75   1.420314 A    
C22   C40   1.409160 A    
C51   C73   1.423670 A    
C58   C64   1.394640 A    
C35   C44   1.401637 A    
C137  N13   1.435510 S    
Cu9   O45   1.967311 S    
C1    C130  1.482429 S    
C117  N1    1.436510 S    
C140  C148  1.405126 A    
C56   C61   1.395935 A    
C17   C35   1.404635 A    
C82   C93   1.402308 A    
C78   C97   1.402328 A    
C17   C25   1.402040 A    
C18   C75   1.406630 A    
O8    Cu8   1.964814 S    
C51   C68   1.412238 A    
C23   C37   1.405841 A    
C22   C71   1.403486 A    
C2    O18   1.291032 A    
C105  C145  1.396541 A    
C11   C60   1.488565 S    
Cu12  O43   1.972785 S    
C50   C58   1.427978 A    
N14   O76   1.301264 A    
C61   H9    1.083425 S    
C77   C85   1.404832 A    
O15   Cu7   1.971301 S    
O16   Cu8   1.971301 S    
C91   C99   1.394839 A    
C92   C100  1.395265 A    
O12   Cu4   1.971301 S    
C118  C126  1.408818 A    
C37   C39   1.414249 A    
C47   C66   1.414210 A    
H4    C29   1.083662 S    
C80   C99   1.401573 A    
C81   C94   1.402316 A    
C108  C148  1.394290 A    
N1    O50   1.300739 A    
C84   C95   1.401695 A    
Cu4   O20   1.975764 S    
C107  C115  1.402032 A    
C83   C96   1.401580 A    
O1    C14   1.308245 A    
C114  C122  1.408004 A    
O3    C16   1.303989 A    
C115  C123  1.408376 A    
N5    O57   1.302640 A    
C109  C151  1.474347 S    
N6    O59   1.302635 A    
Cu2   O18   1.974883 S    
O8    C11   1.308782 A    
O9    Cu1   1.970438 S    
N6    O60   1.300700 A    
C5    O21   1.290999 A    
C123  N7    1.436351 S    
C73   H17   1.077387 S    
O32   C16   1.283580 A    
C112  C150  1.471100 S    
O2    Cu2   1.956095 S    
C118  N2    1.436573 S    
C152  O44   1.299052 A    
O4    Cu4   1.964814 S    
O38   Cu10  1.967856 S    
C126  C134  1.422392 A    
N10   O67   1.301209 A    
N12   O72   1.301238 A    
Cu7   O23   1.975765 S    
Cu8   O24   1.975764 S    
C70   H14   1.079325 S    
O39   Cu10  1.960004 S    
C8    O24   1.286571 A    
O6    C9    1.311329 A    
Cu1   O25   1.960258 S    
C102  C142  1.396514 A    
C18   C36   1.405475 A    
C87   C95   1.394731 A    
C88   H32   1.083077 S    
C110  C118  1.408033 A    
C124  C132  1.408350 A    
C1    O17   1.290892 A    
O37   C155  1.301279 A    
C63   H11   1.083212 S    
C140  N16   1.435564 S    
C78   C142  1.479926 S    
C154  O46   1.300184 A    
C46   C72   1.413737 A    
