data_mof_unit_17630.cif
_audit_creation_date              2012-12-10T17:12:03-0500
_audit_creation_method            fapswitch 2.2
_symmetry_space_group_name_H-M    P1
_symmetry_Int_Tables_number       1
_space_group_crystal_system       triclinic
_cell_length_a                    11.898506
_cell_length_b                    12.943691
_cell_length_c                    15.898208
_cell_angle_alpha                 97.128466
_cell_angle_beta                  73.328373
_cell_angle_gamma                 100.99111
_cell_volume                      2296.26555306

loop_
_atom_site_label
_atom_site_type_symbol
_atom_type_description
_atom_site_fract_x
_atom_site_fract_y
_atom_site_fract_z
_atom_type_partial_charge
C1    C     C_R   0.521856 0.700569 0.501335 0.806109
C2    C     C_R   0.478144 0.299431 0.498666 0.806104
C3    C     C_R   0.357324 0.500496 0.087967 -0.207317
C4    C     C_R   0.642683 0.499519 0.912033 -0.207313
C5    C     C_R   0.275525 0.490630 0.039283 -0.213228
C6    C     C_R   0.724483 0.509395 0.960719 -0.213229
C7    C     C_R   0.464977 0.184927 0.496302 -0.112266
C8    C     C_R   0.535025 0.815073 0.503696 -0.112254
C9    C     C_R   0.590966 0.984975 0.574697 0.387926
C10   C     C_R   0.409044 0.015027 0.425295 0.387934
C11   C     C_R   0.585723 0.876500 0.565840 -0.256667
C12   C     C_R   0.414278 0.123501 0.434158 -0.256654
C13   C     C_R   0.497796 0.863556 0.444096 0.140254
C14   C     C_R   0.502213 0.136444 0.555899 0.140262
C15   C     C_R   0.476397 0.968991 0.466452 -0.038863
C16   C     C_R   0.523611 0.031010 0.533541 -0.038850
C17   C     C_R   0.958119 0.629387 0.545955 0.295454
C18   C     C_R   0.041880 0.370613 0.454048 0.295443
C19   C     C_R   0.833526 0.606653 0.559824 0.240817
C20   C     C_R   0.166473 0.393346 0.440177 0.240824
C21   C     C_R   0.856160 0.446317 0.470321 0.301381
C22   C     C_R   0.143840 0.553684 0.529679 0.301365
C23   C     C_R   0.427396 0.495426 0.667821 0.780532
C24   C     C_R   0.572604 0.504572 0.332179 0.780540
C25   C     C_R   0.973217 0.452617 0.482057 -0.122215
C26   C     C_R   0.026783 0.547384 0.517945 -0.122206
C27   C     C_R   0.385439 0.491194 0.764153 -0.050817
C28   C     C_R   0.614561 0.508805 0.235847 -0.050819
C29   C     C_R   0.228500 0.478175 0.900078 -0.186315
C30   C     C_R   0.771505 0.521855 0.099925 -0.186317
C31   C     C_R   0.264516 0.479050 0.808689 -0.194196
C32   C     C_R   0.735486 0.520973 0.191314 -0.194201
C33   C     C_R   0.469540 0.498638 0.811882 -0.245732
C34   C     C_R   0.530460 0.501343 0.188115 -0.245732
C35   C     C_R   0.435611 0.493977 0.903813 0.085644
C36   C     C_R   0.564393 0.506023 0.096187 0.085647
C37   C     C_R   0.312897 0.486816 0.947876 0.162555
C38   C     C_R   0.687108 0.513201 0.052126 0.162555
C39   C     C_R   0.519968 0.498554 0.953157 0.068397
C40   C     C_R   0.480036 0.501448 0.046842 0.068396
Cu1   Cu    Cu3+1 0.386820 0.492450 0.493500 0.921427
Cu2   Cu    Cu3+1 0.613180 0.507550 0.506500 0.921425
H1    H     H_    0.182199 0.488214 0.073754 0.145594
H2    H     H_    0.817811 0.511824 0.926249 0.145591
H3    H     H_    0.438362 0.489641 0.224270 0.163292
H4    H     H_    0.561636 0.510310 0.775723 0.163297
H5    H     H_    0.801973 0.529052 0.226857 0.165997
H6    H     H_    0.198029 0.470987 0.773147 0.165996
H7    H     H_    0.134459 0.471183 0.933548 0.133670
H8    H     H_    0.865548 0.528864 0.066457 0.133672
H9    H     H_    0.320712 0.508855 0.158111 0.142872
H10   H     H_    0.679301 0.491170 0.841890 0.142864
H11   H     H_    0.375367 0.159505 0.393980 0.169372
H12   H     H_    0.624632 0.840497 0.606021 0.169367
N1    N     N_R   0.216750 0.481110 0.483710 -0.239603
N2    N     N_R   0.783250 0.518890 0.516290 -0.239601
O1    O     O_R   0.419950 0.645670 0.495380 -0.596659
O2    O     O_R   0.580050 0.354330 0.504620 -0.596656
O3    O     O_R   0.611110 0.658410 0.506370 -0.594111
O4    O     O_R   0.388890 0.341590 0.493630 -0.594108
O5    O     O_R   0.350820 0.490050 0.621260 -0.592303
O6    O     O_R   0.649180 0.509950 0.378740 -0.592302
O7    O     O_R   0.541970 0.502800 0.632250 -0.594569
O8    O     O_R   0.458030 0.497200 0.367750 -0.594562
C41   C     C_3   0.239469 0.316257 0.378649 -0.315083
C42   C     C_3   0.220847 0.303667 0.286387 -0.863187
H13   H     H_    0.134418 0.253637 0.285652 0.296768
H14   H     H_    0.224370 0.381900 0.263222 0.233348
H15   H     H_    0.291906 0.264435 0.239655 0.254880
H16   H     H_    0.334795 0.341150 0.368290 0.240076
H17   H     H_    0.215825 0.238211 0.406677 0.247795
C43   C     C_3   0.760528 0.683742 0.621352 -0.315073
C44   C     C_3   0.779147 0.696331 0.713614 -0.863186
H18   H     H_    0.775642 0.618100 0.736774 0.233351
H19   H     H_    0.865567 0.746376 0.714354 0.296766
H20   H     H_    0.708076 0.735548 0.760348 0.254873
H21   H     H_    0.784172 0.761789 0.593324 0.247793
H22   H     H_    0.665202 0.658849 0.631709 0.240079
Cl1   Cl    Cl    0.025440 0.763920 0.546069 -0.574740
Cl2   Cl    Cl    0.974557 0.236081 0.453940 -0.574717
C45   C     C_3   0.497209 0.191309 0.647576 -0.355033
C46   C     C_3   0.372327 0.214357 0.696078 -0.821366
H23   H     H_    0.371166 0.249309 0.763709 0.250752
H24   H     H_    0.344273 0.270806 0.662369 0.255730
H25   H     H_    0.306977 0.140049 0.701008 0.270547
H26   H     H_    0.516205 0.141099 0.691335 0.250198
H27   H     H_    0.562783 0.265337 0.643309 0.240818
C47   C     C_3   0.502802 0.808689 0.352421 -0.355026
C48   C     C_3   0.627677 0.785620 0.303925 -0.821379
H28   H     H_    0.693031 0.859924 0.298985 0.270548
H29   H     H_    0.655732 0.729179 0.337642 0.255734
H30   H     H_    0.628828 0.750652 0.236301 0.250755
H31   H     H_    0.437216 0.734670 0.356688 0.240829
H32   H     H_    0.483827 0.858907 0.308657 0.250202
Cl3   Cl    Cl    0.699530 0.058027 0.624462 -0.563698
Cl4   Cl    Cl    0.300504 0.941978 0.375504 -0.563736
C49   C     C_3   0.177043 0.628181 0.604277 -0.286827
C50   C     C_3   0.088338 0.606026 0.693741 -0.883338
H33   H     H_    0.068775 0.520079 0.702558 0.251032
H34   H     H_    0.126011 0.647870 0.747403 0.246721
H35   H     H_    0.004089 0.633986 0.700038 0.271347
H36   H     H_    0.261865 0.621018 0.612763 0.242583
H37   H     H_    0.190537 0.711937 0.591302 0.244231
C51   C     C_3   0.822964 0.371827 0.395717 -0.286850
C52   C     C_3   0.911667 0.394004 0.306257 -0.883347
H38   H     H_    0.874005 0.352160 0.252590 0.246729
H39   H     H_    0.931207 0.479954 0.297450 0.251040
H40   H     H_    0.995926 0.366063 0.299960 0.271331
H41   H     H_    0.809489 0.288069 0.408679 0.244233
H42   H     H_    0.738137 0.378980 0.387236 0.242587

loop_
_geom_bond_atom_site_label_1
_geom_bond_atom_site_label_2
_ccdc_geom_bond_type
C19   N2    A    
C42   H14   S    
C8    C13   A    
C5    C37   A    
C1    C8    S    
C44   H18   S    
C2    C7    S    
Cu1   O5    S    
Cu2   O2    S    
C49   C50   S    
C29   H7    S    
C27   C33   A    
C52   H39   S    
C21   C25   A    
C4    H10   S    
C17   C26   A    
C32   H5    S    
C35   C37   A    
C9    C16   A    
C10   C15   A    
C1    O3    A    
C51   H41   S    
C33   C35   A    
C2    O4    A    
C42   H15   S    
C15   C16   A    
C17   Cl1   S    
C30   C38   A    
Cu1   Cu2   S    
Cu1   N1    S    
C36   C40   A    
C43   H22   S    
Cu2   N2    S    
C21   C51   S    
C7    C14   A    
C6    C38   A    
C23   C27   S    
C48   H29   S    
C9    Cl3   S    
C18   C20   A    
C49   H36   S    
C23   O7    A    
C42   H13   S    
C5    H1    S    
C28   C34   A    
C24   O8    A    
C22   C49   S    
C6    H2    S    
C33   H4    S    
C44   H19   S    
C19   C43   S    
C18   C25   A    
C20   N1    A    
C51   C52   S    
C45   C46   S    
C7    C12   A    
C52   H40   S    
C47   H32   S    
C27   C31   A    
C30   C32   A    
C24   C28   S    
C20   C41   S    
C28   C32   A    
C4    C6    A    
C39   C40   A    
C3    H9    S    
C25   C26   A    
C41   H17   S    
C35   C39   A    
C43   H21   S    
C1    O1    A    
C4    C39   A    
C10   Cl4   S    
C45   H26   S    
C34   H3    S    
C49   H37   S    
C48   H30   S    
C9    C11   A    
C45   H27   S    
C11   H12   S    
C10   C12   A    
C3    C40   A    
C46   H23   S    
C46   H24   S    
C31   H6    S    
C13   C15   A    
C44   H20   S    
C14   C16   A    
C50   H35   S    
Cu2   O6    S    
C47   H31   S    
C24   O6    A    
C12   H11   S    
Cu1   O4    S    
C43   C44   S    
C3    C5    A    
Cu2   O3    S    
C21   N2    A    
C2    O2    A    
C22   N1    A    
C46   H25   S    
C52   H38   S    
C50   H34   S    
C14   C45   S    
C36   C38   A    
Cu1   O1    S    
C29   C31   A    
C51   H42   S    
C8    C11   A    
C13   C47   S    
C17   C19   A    
C34   C36   A    
C41   C42   S    
C30   H8    S    
C23   O5    A    
C47   C48   S    
C18   Cl2   S    
C50   H33   S    
C22   C26   A    
C29   C37   A    
Cu1   O8    S    
C48   H28   S    
Cu2   O7    S    
C41   H16   S    
