data_mof_unit_41892.cif
_audit_creation_date              2012-12-10T20:47:08-0500
_audit_creation_method            fapswitch 2.2
_symmetry_space_group_name_H-M    P1
_symmetry_Int_Tables_number       1
_space_group_crystal_system       triclinic
_cell_length_a                    10.691785
_cell_length_b                    8.917056
_cell_length_c                    8.197886
_cell_angle_alpha                 89.99332
_cell_angle_beta                  88.61962
_cell_angle_gamma                 89.950312
_cell_volume                      781.353152741

loop_
_atom_site_label
_atom_site_type_symbol
_atom_type_description
_atom_site_fract_x
_atom_site_fract_y
_atom_site_fract_z
_atom_type_partial_charge
C1    C     C_R   0.499961 0.218401 0.499996 0.930698
C2    C     C_R   0.055429 0.508224 0.651233 -0.090795
C3    C     C_R   0.125958 0.523586 0.505997 -0.080870
C4    C     C_R   0.873519 0.468729 0.495421 -0.085347
C5    C     C_R   0.066298 0.528367 0.357851 -0.212850
C6    C     C_R   0.938460 0.515353 0.355335 -0.227655
C7    C     C_1   0.500027 0.065315 0.500042 -0.194661
C8    C     C_1   0.500071 0.934693 0.500034 -0.197719
C9    C     C_3   0.133375 0.820996 0.767330 -0.339039
C10   C     C_3   0.825098 0.146469 0.690221 -0.320797
C11   C     C_R   0.500099 0.781601 0.499983 0.927078
C12   C     C_R   0.259705 0.512222 0.502279 0.892107
C13   C     C_R   0.739960 0.485557 0.498456 0.887341
C14   C     C_R   0.087036 0.574234 0.801163 0.580658
C15   C     C_R   0.882882 0.377825 0.783036 0.567962
C16   C     C_R   0.011183 0.544962 0.938114 -0.348917
C17   C     C_R   0.917278 0.436123 0.932530 -0.287622
C18   C     C_R   0.937889 0.441885 0.640324 -0.102605
H1    H     H_    0.119818 0.548002 0.247314 0.182664
H2    H     H_    0.828439 0.170476 0.557248 0.153128
H3    H     H_    0.889623 0.547521 0.247837 0.167813
H4    H     H_    0.022913 0.612477 0.044230 0.172983
H5    H     H_    0.865667 0.401837 0.040858 0.187354
H6    H     H_    0.054763 0.856090 0.850343 0.160365
H7    H     H_    0.103038 0.821428 0.638429 0.155029
H8    H     H_    0.208855 0.905507 0.777635 0.202513
H9    H     H_    0.755217 0.056159 0.711003 0.198959
H10   H     H_    0.917106 0.103046 0.730528 0.145379
N1    N     N_1   0.500000 0.500000 0.073640 -0.024802
N2    N     N_1   0.500000 0.500000 0.926360 -0.003804
O1    O     O_R   0.500000 0.285350 0.636850 -0.594261
O2    O     O_3   0.786568 0.273765 0.780607 -0.584047
O3    O     O_R   0.500000 0.714650 0.636850 -0.604861
O4    O     O_R   0.500000 0.285360 0.363100 -0.616549
O5    O     O_R   0.500000 0.714640 0.363100 -0.615681
O6    O     O_R   0.316770 0.500000 0.636900 -0.578767
O7    O     O_R   0.683230 0.500000 0.636900 -0.583753
O8    O     O_R   0.316780 0.500000 0.363150 -0.633343
O9    O     O_R   0.683220 0.500000 0.363150 -0.641426
O10   O     O_3   0.181188 0.679826 0.812309 -0.582464
Zn1   Zn    Zn3+2 0.500000 0.500000 0.682780 1.046753
Zn2   Zn    Zn3+2 0.500000 0.500000 0.317220 0.993850

loop_
_geom_bond_atom_site_label_1
_geom_bond_atom_site_label_2
_ccdc_geom_bond_type
C10   H9    S    
C9    H8    S    
C15   C18   A    
N2    Zn1   S    
N1    N2    T    
C5    H1    S    
N1    Zn2   S    
C12   O6    A    
C13   O7    A    
O4    Zn2   S    
C11   O3    A    
C4    C18   A    
C11   O5    A    
C2    C3    A    
C9    H7    S    
C15   O2    S    
C9    H6    S    
C12   O8    A    
O6    Zn1   S    
C17   H5    S    
C8    C11   S    
C1    O4    A    
O8    Zn2   S    
O9    Zn2   S    
O7    Zn1   S    
C5    C6    A    
C2    C14   A    
C14   C16   A    
C13   O9    A    
C2    C18   A    
C14   O10   S    
C10   O2    S    
C1    O1    A    
O3    Zn1   S    
C4    C6    A    
C7    C8    T    
C10   H10   S    
C4    C13   S    
C15   C17   A    
O5    Zn2   S    
C16   H4    S    
C3    C12   S    
O1    Zn1   S    
C1    C7    S    
C6    H3    S    
C9    O10   S    
C10   H2    S    
C16   C17   A    
C3    C5    A    
