data_mof_unit_9195.cif
_audit_creation_date              2012-12-11T15:53:53-0500
_audit_creation_method            fapswitch 2.2
_symmetry_space_group_name_H-M    P1
_symmetry_Int_Tables_number       1
_space_group_crystal_system       triclinic
_cell_length_a                    10.715757
_cell_length_b                    10.721477
_cell_length_c                    16.963408
_cell_angle_alpha                 80.439727
_cell_angle_beta                  99.323832
_cell_angle_gamma                 118.930622
_cell_volume                      1674.45559281

loop_
_atom_site_label
_atom_site_type_symbol
_atom_type_description
_atom_site_fract_x
_atom_site_fract_y
_atom_site_fract_z
_atom_type_partial_charge
C1    C     C_R   0.358014 0.222867 0.626002 0.543811
C2    C     C_R   0.511985 0.703567 0.736860 -0.164741
C3    C     C_R   0.489471 0.718841 0.812850 -0.144855
C4    C     C_3   0.091695 0.527346 0.762775 -0.223054
C5    C     C_3   0.116481 0.508445 0.680803 0.023042
C6    C     C_R   0.395292 0.618737 0.685137 -0.007571
C7    C     C_1   0.822936 0.656876 0.705926 -0.061334
C8    C     C_1   0.850013 0.684578 0.773853 -0.063245
C9    C     C_1   0.329045 0.155752 0.705290 -0.050784
C10   C     C_1   0.293312 0.109417 0.771898 -0.057540
C11   C     C_1   0.318925 0.684261 0.280561 -0.080213
C12   C     C_R   0.413152 0.620119 0.601811 0.568714
C13   C     C_1   0.297180 0.707477 0.209804 -0.069676
C14   C     C_R   0.789351 0.645519 0.147329 0.001812
C15   C     C_R   0.762886 0.517160 0.195222 0.006566
C16   C     C_R   0.725638 0.492842 0.272563 0.072951
C17   C     C_R   0.707085 0.711939 0.251018 -0.164936
C18   C     C_R   0.747091 0.736735 0.172546 -0.159992
C19   C     C_3   0.862628 0.454990 0.218552 -0.250078
C20   C     C_3   0.826573 0.431966 0.304003 0.017325
C21   C     C_R   0.710743 0.596669 0.303876 -0.017211
C22   C     C_R   0.315413 0.146011 0.166168 0.007299
C23   C     C_R   0.777503 0.619321 0.626614 0.549259
C24   C     C_R   0.214459 0.166598 0.196072 -0.004455
C25   C     C_R   0.215488 0.163777 0.276248 0.045636
C26   C     C_R   0.422887 0.130001 0.303105 -0.146517
C27   C     C_R   0.422731 0.129463 0.220421 -0.152537
C28   C     C_3   0.053219 0.090662 0.185405 -0.207685
C29   C     C_3   0.056976 0.091856 0.275055 0.000419
C30   C     C_R   0.318784 0.149927 0.331344 -0.009847
C31   C     C_R   0.890747 0.701553 0.856143 0.546033
C32   C     C_R   0.315741 0.705857 0.898667 0.550560
C33   C     C_R   0.252341 0.058316 0.851501 0.558482
C34   C     C_R   0.348264 0.218949 0.403207 0.543973
C35   C     C_R   0.880913 0.688008 0.081869 0.535947
C36   C     C_R   0.284731 0.738721 0.125484 0.565387
C37   C     C_R   0.283652 0.103521 0.086480 0.554320
C38   C     C_R   0.362479 0.657613 0.361959 0.546318
C39   C     C_R   0.700356 0.582805 0.389820 0.578646
C40   C     C_R   0.349536 0.650948 0.836742 0.010432
C41   C     C_R   0.239767 0.547787 0.790482 -0.011065
C42   C     C_R   0.262834 0.530626 0.715979 0.055219
Cr1   Cr    Cr6+3 0.608440 0.389080 0.519680 0.989855
Cr2   Cr    Cr6+3 0.288640 0.400090 0.490760 1.000576
Cr3   Cr    Cr6+3 0.602940 0.710800 0.489510 0.994220
Cr4   Cr    Cr6+3 0.052530 0.947560 0.964210 0.995566
Cr5   Cr    Cr6+3 0.059970 0.626800 0.992920 1.004311
Cr6   Cr    Cr6+3 0.373320 0.938440 0.995370 1.015127
H1    H     H_    0.617804 0.766516 0.716316 0.135857
H2    H     H_    0.918810 0.501118 0.344717 0.147121
H3    H     H_    0.501753 0.113769 0.345205 0.168047
H4    H     H_    0.500448 0.108154 0.199830 0.138930
H5    H     H_    0.010194 0.980743 0.168363 0.134796
H6    H     H_    0.010690 0.983177 0.308609 0.127603
H7    H     H_    0.578544 0.795006 0.848849 0.144262
H8    H     H_    0.686271 0.789393 0.272188 0.156488
H9    H     H_    0.757987 0.833158 0.135296 0.136062
H10   H     H_    0.976037 0.536288 0.211877 0.121163
O1    O     O_R   0.754020 0.497590 0.609930 -0.515411
O2    O     O_R   0.295080 0.533620 0.397890 -0.512925
O3    O     O_R   0.485280 0.746620 0.388440 -0.517308
O4    O     O_R   0.720550 0.696220 0.420010 -0.508974
O5    O     O_3   0.500010 0.499990 0.499980 -0.288671
O6    O     O_R   0.163320 0.092900 0.874450 -0.512226
O7    O     O_R   0.934650 0.822080 0.882840 -0.511807
O8    O     O_R   0.915520 0.604140 0.893670 -0.509849
O9    O     O_R   0.191760 0.638110 0.923230 -0.496621
O10   O     O_R   0.406180 0.826930 0.920660 -0.521817
O11   O     O_R   0.358620 0.062870 0.901950 -0.481435
O12   O     O_R   0.481420 0.271390 0.600630 -0.493728
O13   O     O_R   0.163910 0.085460 0.050210 -0.514997
O14   O     O_R   0.935200 0.815170 0.045770 -0.511673
O15   O     O_R   0.916120 0.596690 0.069430 -0.524025
O16   O     O_R   0.192310 0.631200 0.086170 -0.501338
O17   O     O_R   0.406770 0.819480 0.096420 -0.506428
O18   O     O_R   0.359170 0.055960 0.064880 -0.517638
O19   O     O_3   0.161940 0.837600 0.984160 -0.287472
O20   O     O_R   0.263810 0.254550 0.589590 -0.515648
O21   O     O_R   0.300820 0.531200 0.560890 -0.477287
O22   O     O_R   0.491480 0.744020 0.564270 -0.519242
O23   O     O_R   0.726290 0.693800 0.583010 -0.514870
O24   O     O_R   0.747830 0.500190 0.434090 -0.521782
O25   O     O_R   0.475680 0.273800 0.437630 -0.510495
O26   O     O_R   0.257620 0.257160 0.413750 -0.518320
H11   H     H_    0.824809 0.356775 0.188290 0.145377
N1    N     N_2   0.754569 0.281322 0.334564 -0.512015
H12   H     H_    0.736366 0.208710 0.295559 0.257061
C43   C     C_3   0.800961 0.243671 0.415895 -0.284714
H13   H     H_    0.759309 0.276441 0.459787 0.195256
H14   H     H_    0.919634 0.294749 0.425932 0.131919
H15   H     H_    0.757654 0.125591 0.427158 0.120248
H16   H     H_    0.007892 0.156149 0.146713 0.150501
N2    N     N_2   0.005222 0.183737 0.296135 -0.512305
H17   H     H_    0.985989 0.163480 0.355677 0.265534
C44   C     C_3   0.078914 0.335788 0.269153 -0.247565
H18   H     H_    0.053709 0.395186 0.305634 0.144394
H19   H     H_    0.048112 0.354844 0.204525 0.142946
H20   H     H_    0.196800 0.381644 0.277976 0.183247
H21   H     H_    0.083591 0.626845 0.762589 0.118649
H22   H     H_    0.008237 0.430914 0.794254 0.158623
N3    N     N_2   0.022249 0.366731 0.653954 -0.498488
H23   H     H_    0.923244 0.354417 0.628662 0.258782
C45   C     C_3   0.015603 0.239722 0.703252 -0.251535
H24   H     H_    0.959778 0.146973 0.667033 0.138565
H25   H     H_    0.954698 0.215253 0.755676 0.132902
H26   H     H_    0.124283 0.252865 0.724057 0.188249
H27   H     H_    0.120229 0.595698 0.633773 0.141557

loop_
_geom_bond_atom_site_label_1
_geom_bond_atom_site_label_2
_ccdc_geom_bond_type
C31   O8    A    
C5    C42   S    
N2    H17   S    
Cr1   O25   S    
C41   C42   A    
C14   C18   A    
C19   C20   S    
Cr6   O11   S    
C39   O24   A    
C44   H20   S    
Cr1   O5    S    
C7    C8    T    
C23   O1    A    
C26   C27   A    
C16   C21   A    
C28   C29   S    
C36   O17   A    
C6    C12   S    
N1    C43   S    
C4    C41   S    
C15   C16   A    
C12   O21   A    
Cr3   O4    S    
Cr3   O3    S    
Cr6   O18   S    
C20   H2    S    
C3    H7    S    
C44   H18   S    
C20   N1    S    
C10   C33   S    
C9    C10   T    
Cr5   O8    S    
Cr4   O14   S    
Cr1   O1    S    
C32   O10   A    
C38   O3    A    
N3    C45   S    
C1    O20   A    
Cr6   O17   S    
C2    C6    A    
C34   O26   A    
Cr5   O9    S    
Cr2   O5    S    
C25   C29   S    
C5    N3    S    
C30   C34   S    
N3    H23   S    
C1    C9    S    
C24   C25   A    
Cr5   O15   S    
C13   C36   S    
C45   H25   S    
C14   C35   S    
N1    H12   S    
C19   H11   S    
C22   C37   S    
Cr3   O5    S    
C17   C21   A    
Cr4   O6    S    
Cr6   O19   S    
C11   C38   S    
C15   C19   S    
C2    H1    S    
C18   H9    S    
C21   C39   S    
C43   H15   S    
C16   C20   S    
C17   C18   A    
C28   H16   S    
Cr6   O10   S    
C17   H8    S    
Cr4   O13   S    
C36   O16   A    
Cr4   O7    S    
C32   O9    A    
C38   O2    A    
C40   C41   A    
C37   O18   A    
C43   H14   S    
C3    C40   A    
C26   C30   A    
Cr1   O12   S    
C22   C27   A    
C4    H22   S    
C22   C24   A    
C34   O25   A    
Cr5   O19   S    
C45   H26   S    
C27   H4    S    
C5    H27   S    
C25   C30   A    
C31   O7    A    
C39   O4    A    
C35   O15   A    
C23   O23   A    
C8    C31   S    
Cr2   O21   S    
Cr3   O23   S    
C24   C28   S    
Cr5   O16   S    
C4    C5    S    
Cr2   O26   S    
C35   O14   A    
Cr4   O19   S    
C28   H5    S    
C44   H19   S    
C29   H6    S    
C33   O11   A    
C19   H10   S    
C1    O12   A    
C37   O13   A    
C2    C3    A    
C26   H3    S    
C29   N2    S    
C11   C13   T    
Cr2   O2    S    
C33   O6    A    
C7    C23   S    
C12   O22   A    
Cr2   O20   S    
Cr3   O22   S    
C32   C40   S    
C43   H13   S    
N2    C44   S    
C6    C42   A    
C4    H21   S    
C45   H24   S    
Cr1   O24   S    
C14   C15   A    
