data_mof_unit_12270.cif
_audit_creation_date              2012-12-11T16:48:28-0500
_audit_creation_method            fapswitch 2.2
_symmetry_space_group_name_H-M    P1
_symmetry_Int_Tables_number       1
_space_group_crystal_system       triclinic
_cell_length_a                    17.336469
_cell_length_b                    24.261986
_cell_length_c                    15.128852
_cell_angle_alpha                 90.227673
_cell_angle_beta                  125.78766
_cell_angle_gamma                 89.710462
_cell_volume                      5161.89961965

loop_
_atom_site_label
_atom_site_type_symbol
_atom_type_description
_atom_site_fract_x
_atom_site_fract_y
_atom_site_fract_z
_atom_type_partial_charge
C1    C     C_R   0.312632 0.373188 0.908951 -0.086370
C2    C     C_R   0.456102 0.500122 0.647693 -0.138745
C3    C     C_R   0.097786 0.874154 0.908722 -0.074894
C4    C     C_R   0.316962 0.355446 0.997982 0.069089
C5    C     C_R   0.688164 0.361583 0.001706 0.086546
C6    C     C_R   0.816825 0.855398 0.997608 0.066890
C7    C     C_R   0.188030 0.861803 0.001006 0.090797
C8    C     C_2   0.219626 0.401399 0.651272 0.955981
C9    C     C_2   0.758035 0.397854 0.343666 0.928435
C10   C     C_2   0.719106 0.901303 0.651343 0.952384
C11   C     C_2   0.258286 0.897809 0.343584 0.929444
C12   C     C_R   0.971972 0.998561 0.298431 -0.147787
C13   C     C_R   0.937697 0.998523 0.636520 -0.083365
C14   C     C_R   0.177786 0.500248 0.665681 0.039092
C15   C     C_R   0.798308 0.501350 0.368153 0.070981
C16   C     C_R   0.677795 0.000331 0.665599 0.041340
C17   C     C_R   0.298342 0.001338 0.368120 0.067419
C18   C     C_2   0.923895 0.466550 0.550241 -0.072962
C19   C     C_2   0.027663 0.469265 0.622344 -0.061693
C20   C     C_2   0.423942 0.966531 0.550184 -0.070740
C21   C     C_R   0.690050 0.376851 0.091033 -0.134108
C22   C     C_2   0.527700 0.969317 0.622327 -0.064417
C23   C     C_2   0.875271 0.508419 0.483262 -0.218157
C24   C     C_2   0.075577 0.500110 0.595773 -0.110090
C25   C     C_2   0.375261 0.008400 0.483242 -0.205188
C26   C     C_2   0.575579 0.000235 0.595804 -0.110747
C27   C     C_R   0.390179 0.766246 0.101306 0.075874
C28   C     C_R   0.613117 0.762820 0.895796 0.101986
C29   C     C_R   0.889340 0.265430 0.102843 0.093267
C30   C     C_R   0.112178 0.263387 0.895995 0.102505
C31   C     C_R   0.363519 0.743068 0.002176 -0.168404
C32   C     C_R   0.812381 0.873489 0.908837 -0.085859
C33   C     C_R   0.638031 0.740992 0.995029 -0.177564
C34   C     C_R   0.863171 0.242576 0.003687 -0.169784
C35   C     C_R   0.137594 0.241102 0.995142 -0.186772
C36   C     C_R   0.305797 0.775354 0.907249 0.748950
C37   C     C_R   0.695033 0.773603 0.089572 0.758356
C38   C     C_R   0.806734 0.275283 0.909144 0.757245
C39   C     C_R   0.195578 0.273230 0.090094 0.754354
C40   C     C_R   0.757630 0.320887 0.910933 -0.340058
C41   C     C_R   0.248095 0.316423 0.089154 -0.251589
C42   C     C_R   0.256451 0.820833 0.909121 -0.328554
C43   C     C_R   0.190033 0.876845 0.090668 -0.134700
C44   C     C_R   0.746883 0.817221 0.088376 -0.327909
C45   C     C_R   0.765545 0.333720 0.006716 -0.043817
C46   C     C_R   0.240332 0.328101 0.993392 -0.060507
C47   C     C_R   0.265236 0.833991 0.005341 -0.043482
C48   C     C_R   0.740128 0.828160 0.992904 -0.054211
C49   C     C_R   0.445509 0.652728 0.088310 -0.020348
C50   C     C_R   0.556548 0.651223 0.910100 -0.112789
C51   C     C_R   0.944305 0.152089 0.089207 -0.054252
C52   C     C_R   0.056492 0.151194 0.909967 -0.099846
C53   C     C_R   0.841247 0.310342 0.104465 0.162995
C54   C     C_R   0.382625 0.684455 0.998204 0.066205
C55   C     C_R   0.162743 0.306619 0.895121 0.143685
C56   C     C_R   0.341761 0.810997 0.102987 0.151497
C57   C     C_R   0.663420 0.806095 0.894738 0.142421
C58   C     C_3   0.847130 0.288619 0.200883 -0.468121
C59   C     C_3   0.155348 0.284409 0.797936 -0.485841
C60   C     C_3   0.349065 0.789503 0.200393 -0.461682
C61   C     C_3   0.657481 0.783447 0.798708 -0.484805
C62   C     C_3   0.402147 0.740709 0.198639 -0.393146
C63   C     C_3   0.602565 0.735933 0.799778 -0.413039
C64   C     C_3   0.899891 0.239637 0.199197 -0.410349
C65   C     C_R   0.618892 0.683037 0.000151 0.092585
C66   C     C_3   0.100198 0.236986 0.798834 -0.410318
C67   C     C_R   0.377793 0.473887 0.455725 -0.136732
C68   C     C_R   0.376073 0.476638 0.364016 -0.017392
C69   C     C_R   0.923250 0.945565 0.489739 -0.117335
C70   C     C_R   0.932637 0.945373 0.405826 -0.051372
C71   C     C_R   0.446303 0.503349 0.548570 0.191376
C72   C     C_R   0.445692 0.506896 0.367182 0.082795
C73   C     C_R   0.908435 0.995017 0.525431 0.139352
C74   C     C_R   0.930046 0.995201 0.357719 0.089036
C75   C     C_R   0.504608 0.541167 0.544469 -0.139339
C76   C     C_R   0.881819 0.184003 0.999178 0.073028
C77   C     C_R   0.505057 0.542584 0.454380 -0.101209
C78   C     C_R   0.880267 0.041740 0.458453 -0.161246
C79   C     C_R   0.891187 0.041827 0.373989 -0.125850
C80   C     C_3   0.343930 0.418435 0.332752 0.504014
C81   C     C_3   0.348789 0.414553 0.436060 0.471610
C82   C     C_3   0.006018 0.900323 0.457762 0.476594
C83   C     C_3   0.996711 0.901164 0.550536 0.468397
C84   C     C_R   0.493881 0.454849 0.263993 -0.202393
C85   C     C_R   0.460721 0.453724 0.702330 -0.195798
C86   C     C_R   0.998708 0.953385 0.266750 -0.208696
C87   C     C_R   0.118633 0.183076 0.000018 0.089998
C88   C     C_R   0.950272 0.953379 0.698297 -0.128407
C89   C     C_R   0.232949 0.546157 0.717735 -0.111284
C90   C     C_R   0.752957 0.546045 0.301717 -0.140272
C91   C     C_R   0.733000 0.046202 0.717714 -0.125581
C92   C     C_R   0.252967 0.046039 0.301713 -0.137557
C93   C     C_R   0.483186 0.546363 0.249713 0.709626
C94   C     C_R   0.464815 0.545644 0.706444 0.692622
C95   C     C_R   0.992040 0.045011 0.261865 0.722011
C96   C     C_R   0.954692 0.044737 0.699300 0.704736
C97   C     C_R   0.235908 0.454208 0.708925 -0.104368
C98   C     C_R   0.462607 0.501684 0.286823 -0.126363
C99   C     C_R   0.751761 0.454463 0.305140 -0.044951
C100  C     C_R   0.735858 0.954264 0.708806 -0.107238
C101  C     C_R   0.251819 0.954452 0.305094 -0.048739
C102  C     C_R   0.350351 0.651591 0.907836 -0.095450
C103  C     C_R   0.650342 0.651177 0.091521 -0.091695
C104  C     C_R   0.850176 0.151552 0.908329 -0.094935
C105  C     C_R   0.150165 0.151197 0.091433 -0.093903
C106  C     C_R   0.406691 0.367659 0.089966 -0.080169
C107  C     C_R   0.597918 0.373688 0.909225 -0.090109
C108  C     C_R   0.906850 0.866868 0.089369 -0.095730
F1    F     F_    0.287954 0.760132 0.810637 -0.701060
F2    F     F_    0.443846 0.598441 0.670473 -0.723424
F3    F     F_    0.986104 0.098344 0.283881 -0.750483
F4    F     F_    0.933860 0.097695 0.664814 -0.742633
F5    F     F_    0.710031 0.760091 0.185345 -0.701134
F6    F     F_    0.789842 0.260402 0.812847 -0.706561
F7    F     F_    0.211241 0.259472 0.186104 -0.698793
F8    F     F_    0.251454 0.415956 0.239770 -0.681488
F9    F     F_    0.421358 0.379499 0.510650 -0.703882
F10   F     F_    0.971895 0.851660 0.398941 -0.694451
F11   F     F_    0.079194 0.920000 0.645761 -0.707777
F12   F     F_    0.474951 0.600044 0.267884 -0.747278
H1    H     H_    0.251942 0.371044 0.826247 0.103973
H2    H     H_    0.301955 0.335815 0.165461 0.185262
H3    H     H_    0.203855 0.841065 0.832984 0.212084
H4    H     H_    0.799256 0.837775 0.164271 0.209838
H5    H     H_    0.892276 0.314831 0.274416 0.244018
H6    H     H_    0.111486 0.311287 0.725176 0.214458
H7    H     H_    0.394288 0.816043 0.273392 0.241155
H8    H     H_    0.613745 0.809907 0.725273 0.213602
H9    H     H_    0.776939 0.277102 0.182036 0.202421
H10   H     H_    0.224925 0.271319 0.816335 0.208485
H11   H     H_    0.279390 0.777667 0.182644 0.205972
H12   H     H_    0.750867 0.376419 0.174344 0.127565
H13   H     H_    0.727602 0.770616 0.818349 0.208415
H14   H     H_    0.477797 0.739325 0.270583 0.218297
H15   H     H_    0.527379 0.735038 0.726709 0.226074
H16   H     H_    0.975267 0.237847 0.271715 0.225883
H17   H     H_    0.024731 0.236551 0.726357 0.223224
H18   H     H_    0.362396 0.701470 0.179777 0.231063
H19   H     H_    0.641601 0.696143 0.819926 0.200645
H20   H     H_    0.859505 0.200564 0.179293 0.217053
H21   H     H_    0.138647 0.197063 0.817661 0.204828
H22   H     H_    0.555807 0.566142 0.614381 0.146637
H23   H     H_    0.751370 0.871706 0.826304 0.105831
H24   H     H_    0.558343 0.567666 0.457941 0.163737
H25   H     H_    0.859607 0.079620 0.477164 0.199510
H26   H     H_    0.877870 0.079672 0.329675 0.189043
H27   H     H_    0.394435 0.390873 0.331354 0.044860
H28   H     H_    0.279486 0.406970 0.422652 0.103179
H29   H     H_    0.077448 0.912507 0.481027 0.091239
H30   H     H_    0.968141 0.862494 0.560084 0.083005
H31   H     H_    0.498051 0.668200 0.169244 0.162683
H32   H     H_    0.506162 0.665581 0.827790 0.182540
H33   H     H_    0.995804 0.167032 0.170865 0.171180
H34   H     H_    0.250923 0.876311 0.173940 0.127049
H35   H     H_    0.006207 0.165381 0.827492 0.177990
H36   H     H_    0.503076 0.414405 0.297884 0.156144
H37   H     H_    0.445747 0.411744 0.673709 0.228818
H38   H     H_    0.001569 0.911458 0.289094 0.199044
H39   H     H_    0.928826 0.911523 0.669974 0.151918
H40   H     H_    0.211448 0.588940 0.700622 0.126206
H41   H     H_    0.762514 0.588640 0.327595 0.122112
H42   H     H_    0.711570 0.088999 0.700674 0.126811
H43   H     H_    0.262516 0.088630 0.327613 0.124522
H44   H     H_    0.310716 0.664527 0.823936 0.184731
H45   H     H_    0.906673 0.549330 0.505540 0.147226
H46   H     H_    0.690494 0.664457 0.175352 0.177704
H47   H     H_    0.810776 0.164771 0.824615 0.183611
H48   H     H_    0.190215 0.164426 0.175271 0.178395
H49   H     H_    0.436292 0.354997 0.172024 0.106931
H50   H     H_    0.571680 0.367103 0.825493 0.127030
H51   H     H_    0.936866 0.851952 0.170143 0.149659
H52   H     H_    0.071352 0.868463 0.824619 0.135925
H53   H     H_    0.891122 0.427597 0.543266 0.170640
H54   H     H_    0.065401 0.441868 0.692340 0.122277
H55   H     H_    0.391256 0.927524 0.543087 0.171461
H56   H     H_    0.040632 0.527129 0.525418 0.139924
H57   H     H_    0.565468 0.941877 0.692256 0.120567
H58   H     H_    0.276378 0.330643 0.642370 0.337346
H59   H     H_    0.688336 0.332905 0.348173 0.330760
H60   H     H_    0.774740 0.829733 0.643765 0.328597
H61   H     H_    0.188938 0.832827 0.348648 0.340377
H62   H     H_    0.406577 0.049331 0.505589 0.145893
H63   H     H_    0.540608 0.027296 0.525511 0.135602
H64   H     H_    0.705794 0.341496 0.834949 0.184827
N1    N     N_R   0.395410 0.396350 0.944340 -0.037025
N2    N     N_R   0.474920 0.471030 0.794350 -0.080009
N3    N     N_R   0.025080 0.971030 0.205650 -0.062451
N4    N     N_R   0.974920 0.971030 0.794350 -0.080650
N5    N     N_R   0.320260 0.527820 0.794570 -0.055946
N6    N     N_R   0.679740 0.527820 0.205430 -0.057905
N7    N     N_R   0.820260 0.027820 0.794570 -0.058299
N8    N     N_R   0.179740 0.027820 0.205430 -0.057315
N9    N     N_R   0.524590 0.527840 0.205200 -0.116066
N10   N     N_R   0.475410 0.527840 0.794800 -0.109648
N11   N     N_R   0.024590 0.027840 0.205200 -0.111846
N12   N     N_R   0.604590 0.396350 0.055660 -0.042496
N13   N     N_R   0.975410 0.027840 0.794800 -0.110528
N14   N     N_R   0.320750 0.471000 0.795020 -0.061045
N15   N     N_R   0.679250 0.471000 0.204980 -0.070745
N16   N     N_R   0.820750 0.971000 0.795020 -0.064676
N17   N     N_R   0.179250 0.971000 0.204980 -0.069980
N18   N     N_R   0.393620 0.602490 0.942710 -0.065519
N19   N     N_R   0.606380 0.602490 0.057290 -0.064222
N20   N     N_R   0.893620 0.102490 0.942710 -0.064748
N21   N     N_R   0.106380 0.102490 0.057290 -0.062364
N22   N     N_R   0.451720 0.396350 0.057510 -0.036058
N23   N     N_R   0.895410 0.896350 0.944340 -0.035734
N24   N     N_R   0.548280 0.396350 0.942490 -0.035854
N25   N     N_R   0.951720 0.896350 0.057510 -0.037856
N26   N     N_R   0.048280 0.896350 0.942490 -0.039472
N27   N     N_R   0.104590 0.896350 0.055660 -0.041956
N28   N     N_R   0.449930 0.602500 0.055880 -0.059154
N29   N     N_R   0.550070 0.602500 0.944120 -0.054398
N30   N     N_R   0.949930 0.102500 0.055880 -0.060100
N31   N     N_R   0.050070 0.102500 0.944120 -0.051307
N32   N     N_R   0.525080 0.471030 0.205650 -0.057093
Ni1   Ni    Ni4+2 0.435420 0.434270 0.870230 0.262947
Ni2   Ni    Ni4+2 0.564580 0.434270 0.129770 0.259907
Ni3   Ni    Ni4+2 0.935420 0.934270 0.870230 0.255941
Ni4   Ni    Ni4+2 0.064580 0.934270 0.129770 0.262850
Ni5   Ni    Ni4+2 0.563430 0.564580 0.128740 0.225591
Ni6   Ni    Ni4+2 0.436570 0.564580 0.871260 0.249587
Ni7   Ni    Ni4+2 0.063430 0.064580 0.128740 0.232332
Ni8   Ni    Ni4+2 0.936570 0.064580 0.871260 0.247685
O1    O     O_2   0.140537 0.389775 0.570478 -0.616656
O2    O     O_R   0.295833 0.365252 0.688420 -0.811716
O3    O     O_2   0.832605 0.372057 0.387978 -0.649930
O4    O     O_R   0.676215 0.372302 0.320923 -0.807253
O5    O     O_2   0.640188 0.890145 0.569758 -0.616803
O6    O     O_R   0.794571 0.864411 0.689682 -0.825888
O7    O     O_2   0.332873 0.872055 0.387597 -0.648292
O8    O     O_R   0.176659 0.872206 0.321280 -0.801134

loop_
_geom_bond_atom_site_label_1
_geom_bond_atom_site_label_2
_ccdc_geom_bond_type
N5    N14   A    
C76   C104  A    
C6    C32   A    
C64   H16   S    
C59   H10   S    
C68   C80   S    
C11   O8    S    
C55   C59   S    
N6    N15   A    
N18   Ni6   S    
C36   C42   A    
N13   Ni8   S    
N31   Ni8   S    
C27   C56   A    
C108  N25   A    
C61   H13   S    
C48   C57   A    
C39   C41   A    
C66   H21   S    
C72   C98   S    
C28   C57   A    
N22   Ni2   S    
C59   H6    S    
N27   Ni4   S    
C96   F4    S    
H60   O6    S    
C6    C48   S    
C30   C35   A    
N9    N32   A    
C104  N20   A    
C38   C40   A    
N32   Ni2   S    
C12   C74   S    
C69   C70   A    
C59   C66   S    
C90   N6    A    
C38   F6    S    
C3    H52   S    
C20   H55   S    
C37   F5    S    
C20   C25   D    
H61   O8    S    
C83   F11   S    
C49   C54   A    
C81   F9    S    
C10   O6    S    
N19   Ni5   S    
C2    C85   A    
C60   C62   S    
C18   C19   S    
C88   H39   S    
C14   C24   S    
H59   O4    S    
C61   C63   S    
C17   C101  A    
C32   H23   S    
C78   H25   S    
C17   C25   S    
C23   H45   S    
C35   C87   S    
C80   H27   S    
C57   C61   S    
C85   N2    A    
C46   C55   A    
C70   C74   A    
C11   O7    D    
C41   C46   A    
C12   C95   A    
C69   C73   A    
C13   C73   S    
C93   F12   S    
C7    C43   A    
C91   H42   S    
C43   H34   S    
C43   N27   A    
N10   Ni6   S    
C83   H30   S    
C40   H64   S    
C26   H63   S    
C3    N26   A    
C15   C23   S    
C29   C64   S    
C45   C53   A    
C86   N3    A    
C9    C99   S    
C34   C38   A    
N20   Ni8   S    
C58   C64   S    
C8    O1    D    
C40   C45   A    
C17   C92   A    
C85   H37   S    
C22   H57   S    
C97   N14   A    
C60   H11   S    
N23   Ni3   S    
C50   C65   A    
N19   N29   A    
C42   H3    S    
C29   C53   A    
C79   H26   S    
C103  N19   A    
N28   Ni5   S    
C52   C87   A    
C16   C26   S    
C96   N13   A    
N2    Ni1   S    
C71   C75   A    
H58   O2    S    
C49   H31   S    
C90   H41   S    
C33   C65   S    
C18   C23   D    
C80   F8    S    
C2    C94   A    
C13   C88   A    
N7    N16   A    
N8    Ni7   S    
C11   C101  S    
N6    Ni5   S    
C15   C99   A    
N15   Ni2   S    
C8    O2    S    
C78   C79   A    
C16   C100  A    
C4    C46   S    
C13   C96   A    
C50   N29   A    
C73   C78   A    
C27   C31   A    
C29   C34   A    
C44   H4    S    
C10   O5    D    
C33   C37   A    
N26   Ni3   S    
C56   C60   S    
C52   H35   S    
C63   H15   S    
C41   H2    S    
N12   N24   A    
C35   C39   A    
C8    C97   S    
C18   H53   S    
C21   H12   S    
C72   C77   A    
C69   C83   S    
C75   H22   S    
C50   H32   S    
C75   C77   A    
N29   Ni6   S    
C87   C105  A    
C68   C72   A    
C81   H28   S    
C9    O4    S    
C9    O3    D    
C62   H18   S    
C32   N23   A    
C10   C100  S    
C86   H38   S    
C5    C107  A    
C107  N24   A    
C30   C66   S    
N1    Ni1   S    
C16   C91   A    
C100  N16   A    
C51   N30   A    
C67   C68   A    
C20   C22   S    
C28   C33   A    
C67   C81   S    
C103  H46   S    
C39   F7    S    
C74   C79   A    
C106  H49   S    
C94   F2    S    
N5    Ni6   S    
N8    N17   A    
C65   C103  A    
C2    C71   S    
C24   H56   S    
C25   H62   S    
C92   H43   S    
C89   H40   S    
C64   H20   S    
N4    Ni3   S    
N24   Ni1   S    
C51   H33   S    
C95   N11   A    
N3    N11   A    
C94   N10   A    
N25   Ni4   S    
C63   H19   S    
N1    N22   A    
N2    N10   A    
C60   H7    S    
C93   N9    A    
N17   Ni4   S    
N18   N28   A    
C80   C81   S    
C14   C97   A    
C106  N22   A    
N12   Ni2   S    
C53   C58   S    
C105  N21   A    
C21   N12   A    
C84   N32   A    
C27   C62   S    
C1    N1    A    
C7    C47   S    
C30   C55   A    
C3    C7    A    
C105  H48   S    
C12   C86   A    
C5    C45   S    
C1    C4    A    
C54   C102  A    
C62   H14   S    
C37   C44   A    
C19   C24   D    
C102  N18   A    
C19   H54   S    
C84   C98   A    
C101  N17   A    
C89   N5    A    
C104  H47   S    
N11   Ni7   S    
C84   H36   S    
C82   F10   S    
C66   H17   S    
C4    C106  A    
N4    N13   A    
C93   C98   A    
C49   N28   A    
N9    Ni5   S    
N21   Ni7   S    
C61   H8    S    
C67   C71   A    
C42   C47   A    
C52   N31   A    
C31   C54   S    
C91   N7    A    
C14   C89   A    
C70   C82   S    
N20   N30   A    
C1    H1    S    
C77   H24   S    
C82   H29   S    
N30   Ni7   S    
N3    Ni4   S    
N14   Ni1   S    
C28   C63   S    
C44   C48   A    
C88   N4    A    
C5    C21   A    
N21   N31   A    
C58   H5    S    
C102  H44   S    
N26   N27   A    
C22   C26   D    
C108  H51   S    
C99   N15   A    
C36   F1    S    
N23   N25   A    
N16   Ni3   S    
C6    C108  A    
C31   C36   A    
C95   F3    S    
C58   H9    S    
C82   C83   S    
C51   C76   A    
N7    Ni8   S    
C92   N8    A    
C34   C76   S    
C47   C56   A    
C15   C90   A    
C107  H50   S    
