data_mof_unit_60181.cif
_audit_creation_date              2012-12-10T16:55:29-0500
_audit_creation_method            fapswitch 2.2
_symmetry_space_group_name_H-M    P1
_symmetry_Int_Tables_number       1
_space_group_crystal_system       triclinic
_cell_length_a                    21.681303
_cell_length_b                    21.676828
_cell_length_c                    22.068081
_cell_angle_alpha                 119.570253
_cell_angle_beta                  118.747242
_cell_angle_gamma                 90.089484
_cell_volume                      7510.74052148

loop_
_atom_site_label
_atom_site_type_symbol
_atom_type_description
_atom_site_fract_x
_atom_site_fract_y
_atom_site_fract_z
_atom_type_partial_charge
C1    C     C_R   0.003970 0.384422 0.507626 0.870624
C2    C     C_R   0.996663 0.615668 0.492556 0.887035
C3    C     C_3   0.242387 0.840244 0.050698 -0.267634
C4    C     C_3   0.786930 0.186604 0.948947 -0.247752
C5    C     C_3   0.201769 0.793342 0.949569 -0.250637
C6    C     C_3   0.831399 0.229261 0.050103 -0.228752
C7    C     C_1   0.337001 0.838045 0.174930 0.141258
C8    C     C_1   0.664190 0.162859 0.825120 0.056684
C9    C     C_1   0.160114 0.662874 0.825103 0.101797
C10   C     C_1   0.839757 0.338375 0.174919 0.142279
C11   C     C_1   0.123858 0.625252 0.750424 -0.047706
C12   C     C_1   0.876058 0.375335 0.249588 -0.022305
C13   C     C_2   0.984693 0.247466 0.564140 -0.010988
C14   C     C_2   0.921948 0.752394 0.436091 -0.022807
C15   C     C_2   0.977609 0.183566 0.499046 -0.300939
C16   C     C_2   0.978441 0.816585 0.501345 -0.276839
C17   C     C_2   0.982634 0.314000 0.560625 -0.112537
C18   C     C_2   0.923585 0.685779 0.439509 -0.120404
C19   C     C_2   0.017725 0.330117 0.530293 -0.263086
C20   C     C_2   0.988540 0.670262 0.470382 -0.251387
C21   C     C_R   0.613817 0.995122 0.490285 0.962557
C22   C     C_R   0.386294 0.004928 0.509908 0.968674
C23   C     C_R   0.080678 0.581000 0.662118 0.924436
C24   C     C_R   0.919307 0.419014 0.337883 0.928996
C25   C     C_R   0.418753 0.918822 0.337876 0.906568
C26   C     C_R   0.581229 0.081220 0.662151 0.911079
C27   C     C_R   0.880934 0.005499 0.500821 0.888122
C28   C     C_R   0.119055 0.004726 0.499160 0.925141
C29   C     C_R   0.993053 0.118812 0.500147 0.968351
C30   C     C_R   0.992796 0.881299 0.500044 0.986562
C31   C     C_2   0.753315 0.013581 0.438032 -0.155438
C32   C     C_2   0.246406 0.076313 0.561075 -0.160217
C33   C     C_2   0.817051 0.023159 0.504957 -0.269856
C34   C     C_2   0.182931 0.017844 0.494806 -0.225775
C35   C     C_2   0.685375 0.017058 0.438709 0.019887
C36   C     C_2   0.315068 0.078704 0.561774 -0.053666
C37   C     C_2   0.668984 0.983928 0.469738 -0.313262
C38   C     C_2   0.330970 0.014192 0.530271 -0.306116
C39   C     C_3   0.288278 0.710640 0.948530 -0.343010
C40   C     C_3   0.714278 0.252117 0.051069 -0.282416
C41   C     C_3   0.175761 0.679335 0.953515 -0.208595
C42   C     C_3   0.791540 0.340730 0.047352 -0.303730
C43   C     C_3   0.235769 0.718945 0.048952 -0.329517
C44   C     C_3   0.731192 0.293685 0.951402 -0.283447
C45   C     C_1   0.374506 0.874613 0.249595 -0.007973
C46   C     C_1   0.626014 0.125669 0.750469 -0.026037
C47   C     C_3   0.205041 0.709647 0.916907 0.072873
C48   C     C_3   0.795141 0.292205 0.083127 0.063777
C49   C     C_3   0.342044 0.767725 0.047534 -0.128452
C50   C     C_3   0.664625 0.196685 0.951476 -0.087152
C51   C     C_3   0.290770 0.793629 0.083084 0.071297
C52   C     C_3   0.711226 0.207749 0.916982 0.011375
H1    H     H_    0.304886 0.730003 0.918842 0.111770
H2    H     H_    0.721887 0.218891 0.077985 0.075963
H3    H     H_    0.961568 0.179559 0.442028 0.139548
H4    H     H_    0.018289 0.820740 0.558441 0.140009
H5    H     H_    0.699993 0.948172 0.483519 0.163683
H6    H     H_    0.299323 0.964317 0.515565 0.146503
H7    H     H_    0.125529 0.695464 0.946042 0.224972
H8    H     H_    0.845709 0.353598 0.055979 0.187180
H9    H     H_    0.267705 0.680191 0.055081 0.221981
H10   H     H_    0.680824 0.310041 0.941164 0.267973
O1    O     O_R   0.051090 0.409550 0.500010 -0.631785
O2    O     O_R   0.948910 0.590450 0.499990 -0.586016
O3    O     O_R   0.874830 0.965310 0.430660 -0.615632
O4    O     O_R   0.125170 0.034690 0.569340 -0.592704
O5    O     O_R   0.034670 0.125130 0.569340 -0.545862
O6    O     O_R   0.965330 0.874870 0.430660 -0.567062
O7    O     O_R   0.965310 0.055770 0.430620 -0.651858
O8    O     O_R   0.034690 0.944230 0.569380 -0.627499
O9    O     O_R   0.948930 0.409540 0.500030 -0.587958
O10   O     O_R   0.051070 0.590460 0.499970 -0.630453
O11   O     O_R   0.112510 0.561440 0.622850 -0.626441
O12   O     O_R   0.887490 0.438560 0.377150 -0.598281
O13   O     O_R   0.010350 0.561430 0.622870 -0.573319
O14   O     O_R   0.989650 0.438570 0.377130 -0.602199
O15   O     O_R   0.590290 0.948920 0.499990 -0.613141
O16   O     O_R   0.409710 0.051080 0.500010 -0.574757
O17   O     O_R   0.590320 0.051050 0.499970 -0.587467
O18   O     O_R   0.409680 0.948950 0.500030 -0.631034
O19   O     O_R   0.438380 0.887500 0.377150 -0.626993
O20   O     O_R   0.561620 0.112500 0.622850 -0.569071
O21   O     O_R   0.438400 0.989630 0.377130 -0.559182
O22   O     O_R   0.561600 0.010370 0.622870 -0.617972
O23   O     O_R   0.944190 0.034670 0.569380 -0.569034
O24   O     O_R   0.055810 0.965330 0.430620 -0.590261
Zn1   Zn    Zn3+2 0.068220 0.500010 0.499990 1.032591
Zn2   Zn    Zn3+2 0.931780 0.499990 0.500010 1.084480
Zn3   Zn    Zn3+2 0.499800 0.931810 0.500010 1.054317
Zn4   Zn    Zn3+2 0.500200 0.068190 0.499990 1.133970
Zn5   Zn    Zn3+2 0.046310 0.046310 0.592620 1.109742
Zn6   Zn    Zn3+2 0.953690 0.953690 0.407380 1.084476
C53   C     C_2   0.396536 0.732595 0.085902 0.567275
H11   H     H_    0.433032 0.713271 0.064812 0.077506
O25   O     O_2   0.401683 0.726346 0.140077 -0.562774
C54   C     C_2   0.588354 0.207818 0.909581 0.390462
H12   H     H_    0.541584 0.160549 0.850772 0.133144
O26   O     O_2   0.578243 0.268610 0.936827 -0.540090
C55   C     C_2   0.393867 0.833817 0.069683 0.360122
H13   H     H_    0.392318 0.837287 0.021687 0.065582
O27   O     O_2   0.442154 0.882196 0.142552 -0.455776
C56   C     C_2   0.644483 0.116416 0.926772 0.225536
H14   H     H_    0.660023 0.104231 0.973343 0.105525
O28   O     O_2   0.606505 0.063840 0.853314 -0.571737
C57   C     C_2   0.189796 0.854883 0.081760 0.921938
O29   O     O_2   0.123424 0.821212 0.035105 -0.562266
O30   O     O_R   0.219554 0.906921 0.167048 -0.783218
H15   H     H_    0.180851 0.911396 0.181010 0.359812
C58   C     C_2   0.829361 0.206061 0.917439 0.973962
O31   O     O_2   0.883152 0.261709 0.963419 -0.630183
O32   O     O_R   0.803623 0.160001 0.832522 -0.785500
H16   H     H_    0.834464 0.178353 0.818309 0.360022
C59   C     C_2   0.992165 0.254444 0.638113 0.539968
H17   H     H_    0.021383 0.308285 0.697884 0.072333
O33   O     O_2   0.961969 0.202189 0.631959 -0.557898
C60   C     C_2   0.856964 0.745028 0.361841 0.536353
H18   H     H_    0.828385 0.691333 0.301911 0.061995
O34   O     O_2   0.831937 0.796701 0.367913 -0.531667
C61   C     C_2   0.941181 0.360887 0.591603 0.928306
O35   O     O_2   0.967696 0.428974 0.637452 -0.579472
O36   O     O_R   0.873627 0.326490 0.571901 -0.787333
H19   H     H_    0.851278 0.363886 0.597740 0.359543
C62   C     C_2   0.851841 0.636999 0.406616 0.929936
O37   O     O_2   0.808678 0.664998 0.423432 -0.582483
O38   O     O_R   0.832265 0.559461 0.353144 -0.769789
H20   H     H_    0.781734 0.532471 0.333871 0.368448
C63   C     C_2   0.077997 0.298960 0.525498 0.441378
H21   H     H_    0.087797 0.291115 0.478706 0.091647
O39   O     O_2   0.119276 0.285493 0.576046 -0.503994
C64   C     C_2   0.053928 0.702277 0.476277 0.433538
H22   H     H_    0.109455 0.710338 0.523469 0.089689
O40   O     O_2   0.046181 0.716166 0.426155 -0.528558
C65   C     C_2   0.748897 0.000514 0.362884 0.480725
H23   H     H_    0.797197 0.023232 0.368192 0.076615
O41   O     O_2   0.690421 0.965293 0.294323 -0.517766
C66   C     C_2   0.251306 0.140687 0.635296 0.456746
H24   H     H_    0.302365 0.167204 0.696680 0.074278
O42   O     O_2   0.200927 0.167850 0.627724 -0.499923
C67   C     C_2   0.828219 0.059666 0.588948 0.979310
O43   O     O_2   0.862071 0.038241 0.633965 -0.573993
O44   O     O_R   0.801151 0.119292 0.616769 -0.775797
H25   H     H_    0.812146 0.139160 0.674404 0.354171
C68   C     C_2   0.171986 0.968499 0.411078 0.925580
O45   O     O_2   0.138075 0.901843 0.367102 -0.580121
O46   O     O_R   0.199401 0.998748 0.382327 -0.774723
H26   H     H_    0.188680 0.959738 0.325075 0.352194
C69   C     C_2   0.638425 0.055444 0.403392 0.584650
H27   H     H_    0.664258 0.101855 0.408031 0.055204
O47   O     O_2   0.570951 0.032599 0.364099 -0.503951
C70   C     C_2   0.364007 0.152810 0.599840 0.481270
H28   H     H_    0.339762 0.195845 0.597027 0.087818
O48   O     O_2   0.431352 0.168017 0.639089 -0.545710
C71   C     C_2   0.295616 0.632300 0.912122 0.426840
H29   H     H_    0.297475 0.606285 0.856776 0.092886
O49   O     O_2   0.297271 0.596815 0.941678 -0.520311
C72   C     C_2   0.676456 0.301438 0.089897 0.553539
H30   H     H_    0.624086 0.275004 0.075013 0.081546
O50   O     O_2   0.703695 0.369056 0.139355 -0.532480
C73   C     C_2   0.148670 0.594738 0.909689 1.025627
O51   O     O_2   0.145256 0.550751 0.845326 -0.591186
O52   O     O_R   0.124824 0.567065 0.942779 -0.734259
H31   H     H_    0.107351 0.510468 0.908708 0.359428
C74   C     C_2   0.784967 0.417868 0.094552 1.031034
O53   O     O_2   0.728756 0.433107 0.062515 -0.550958
O54   O     O_R   0.845370 0.472874 0.174933 -0.764904
H32   H     H_    0.835132 0.521963 0.200435 0.362049
C75   C     C_2   0.203868 0.728131 0.100216 0.507801
H33   H     H_    0.241200 0.749858 0.165962 0.064685
O55   O     O_2   0.137232 0.709848 0.069155 -0.463710
C76   C     C_2   0.751930 0.314729 0.905769 0.443834
H34   H     H_    0.808223 0.346355 0.935245 0.120438
O56   O     O_2   0.705035 0.297509 0.835439 -0.511653
C77   C     C_2   0.239235 0.825658 0.922452 0.346250
H35   H     H_    0.291591 0.869801 0.966711 0.076256
O57   O     O_2   0.210874 0.801019 0.848601 -0.554090
C78   C     C_2   0.826221 0.176509 0.076600 0.430531
H36   H     H_    0.785059 0.121969 0.032931 0.094707
O58   O     O_2   0.866511 0.196477 0.149443 -0.566876
C79   C     C_2   0.122723 0.797923 0.906705 1.039148
O59   O     O_2   0.114189 0.858754 0.922838 -0.586687
O60   O     O_R   0.060300 0.734373 0.850077 -0.789229
H37   H     H_    0.012228 0.746107 0.827145 0.372405
C80   C     C_2   0.915506 0.260134 0.092947 1.061334
O61   O     O_2   0.949870 0.216537 0.076793 -0.521486
O62   O     O_R   0.953714 0.336775 0.149878 -0.795280
H38   H     H_    0.008551 0.348554 0.172809 0.366057
C81   C     C_2   0.285970 0.920446 0.091523 0.431970
H39   H     H_    0.261010 0.949501 0.062050 0.095087
O63   O     O_2   0.344960 0.955637 0.159428 -0.466883
C82   C     C_2   0.772798 0.102160 0.905243 0.406380
H40   H     H_    0.718864 0.062845 0.851157 0.147716
O64   O     O_2   0.823936 0.077080 0.926061 -0.489532

loop_
_geom_bond_atom_site_label_1
_geom_bond_atom_site_label_2
_ccdc_geom_bond_type
O3    Zn6   S    
C4    C58   S    
O54   H32   S    
C25   C45   S    
C14   C18   S    
C64   O40   D    
O8    Zn5   S    
C31   C65   S    
C50   C54   S    
C63   O39   D    
O46   H26   S    
O23   Zn5   S    
O1    Zn1   S    
C62   O37   D    
C75   O55   D    
C77   H35   S    
C27   C33   S    
C57   O30   S    
O15   Zn3   S    
C1    O9    A    
C6    C48   S    
C39   C71   S    
C32   C36   S    
C72   H30   S    
C69   O47   D    
C80   O62   S    
C73   O51   D    
C14   C60   S    
C62   O38   S    
C76   H34   S    
C16   C30   S    
C68   O45   D    
C22   C38   S    
C60   H18   S    
C40   C48   S    
C19   C63   S    
O18   Zn3   S    
C27   O23   A    
C5    C79   S    
O17   Zn4   S    
C69   H27   S    
O6    Zn6   S    
C43   C51   S    
C29   O5    A    
O11   Zn1   S    
C41   C73   S    
C82   O64   D    
C49   C51   S    
C54   O26   D    
C50   C52   S    
O30   H15   S    
C31   C33   D    
C71   O49   D    
O7    Zn6   S    
C8    C52   S    
C18   C20   D    
C18   C62   S    
O19   Zn3   S    
C44   C52   S    
C78   O58   D    
C28   C34   S    
C26   O20   A    
C38   H6    S    
C79   O60   S    
C25   O19   A    
C41   C43   S    
C42   C44   S    
C23   O11   A    
C2    O10   A    
C1    O1    A    
O5    Zn5   S    
C30   O8    A    
C2    O2    A    
C15   C29   S    
C29   O7    A    
C77   O57   D    
C37   H5    S    
C34   C68   S    
C1    C19   S    
C2    C20   S    
C4    C82   S    
C41   H7    S    
C4    C6    S    
C42   H8    S    
C75   H33   S    
C32   C66   S    
C3    C51   S    
C42   C74   S    
C24   O14   A    
C35   C69   S    
C44   H10   S    
O60   H37   S    
O16   Zn4   S    
O9    Zn2   S    
C32   C34   D    
C28   O4    A    
C80   O61   D    
C16   H4    S    
C82   H40   S    
C27   O3    A    
C49   C55   S    
C65   H23   S    
C5    C47   S    
C55   H13   S    
C3    C57   S    
C61   O35   D    
C54   H12   S    
C21   O17   A    
C73   O52   S    
C41   C47   S    
C53   H11   S    
C42   C48   S    
C56   O28   D    
C9    C11   T    
O14   Zn1   S    
C22   O16   A    
O36   H19   S    
C61   O36   S    
C10   C12   T    
C66   O42   D    
C78   H36   S    
C55   O27   D    
C4    C52   S    
C9    C47   S    
C40   H2    S    
C13   C15   D    
C28   O24   A    
O38   H20   S    
C14   C16   D    
O22   Zn3   S    
C63   H21   S    
O24   Zn6   S    
C7    C45   T    
O10   Zn1   S    
C43   H9    S    
C39   C47   S    
C59   H17   S    
C35   C37   D    
C68   O46   S    
O21   Zn4   S    
C26   O22   A    
O32   H16   S    
C39   C49   S    
C5    C77   S    
C23   O13   A    
C66   H24   S    
C3    C5    S    
C3    C81   S    
C67   O43   D    
C50   C56   S    
O4    Zn5   S    
C30   O6    A    
C43   C75   S    
C57   O29   D    
C12   C24   S    
O20   Zn4   S    
C13   C17   S    
C6    C80   S    
O12   Zn2   S    
C72   O50   D    
C64   H22   S    
C22   O18   A    
C81   H39   S    
O52   H31   S    
C58   O31   D    
C36   C38   D    
C10   C48   S    
C67   O44   S    
C24   O12   A    
O62   H38   S    
C39   H1    S    
C6    C78   S    
C33   C67   S    
C40   C50   S    
C58   O32   S    
C31   C35   S    
C11   C23   S    
C17   C19   D    
C60   O34   D    
C70   O48   D    
C56   H14   S    
C44   C76   S    
C81   O63   D    
C74   O53   D    
C17   C61   S    
C7    C51   S    
C79   O59   D    
C36   C70   S    
O13   Zn2   S    
C21   C37   S    
C53   O25   D    
C21   O15   A    
C25   O21   A    
C65   O41   D    
C70   H28   S    
C40   C72   S    
C74   O54   S    
C20   C64   S    
C76   O56   D    
C8    C46   T    
C49   C53   S    
C71   H29   S    
O44   H25   S    
C26   C46   S    
O2    Zn2   S    
C13   C59   S    
C15   H3    S    
C59   O33   D    
