data_mof_unit_62883.cif
_audit_creation_date              2013-03-05T15:59:46-0500
_audit_creation_method            fapswitch 2.2
_symmetry_space_group_name_H-M    P1
_symmetry_Int_Tables_number       1
_space_group_crystal_system       triclinic
_cell_length_a                    18.300449
_cell_length_b                    25.904718
_cell_length_c                    18.362604
_cell_angle_alpha                 89.944334
_cell_angle_beta                  89.96785
_cell_angle_gamma                 90.008572
_cell_volume                      8705.1168365

loop_
_atom_site_label
_atom_site_type_symbol
_atom_site_description
_atom_site_fract_x
_atom_site_fract_y
_atom_site_fract_z
_atom_type_partial_charge
Zn1   Zn    Zn3+2 0.500000 0.706650 0.586810 1.088989
Zn2   Zn    Zn3+2 0.500000 0.293350 0.413190 1.094923
Zn3   Zn    Zn3+2 0.500000 0.706650 0.413190 1.091882
Zn4   Zn    Zn3+2 0.500000 0.293350 0.586810 1.090035
Zn5   Zn    Zn3+2 0.000000 0.206650 0.086810 1.085352
Zn6   Zn    Zn3+2 0.000000 0.793350 0.913190 1.084600
Zn7   Zn    Zn3+2 0.000000 0.206650 0.913190 1.091816
Zn8   Zn    Zn3+2 1.000000 0.793350 0.086810 1.089782
Zn9   Zn    Zn3+2 0.586710 0.793420 0.500000 1.067292
Zn10  Zn    Zn3+2 0.413290 0.206580 0.500000 1.065383
Zn11  Zn    Zn3+2 0.413290 0.793420 0.500000 1.066240
Zn12  Zn    Zn3+2 0.586710 0.206580 0.500000 1.063626
Zn13  Zn    Zn3+2 0.086710 0.293420 0.000000 1.068478
Zn14  Zn    Zn3+2 0.913290 0.706580 0.000000 1.060536
Zn15  Zn    Zn3+2 0.913290 0.293420 0.000000 1.065403
Zn16  Zn    Zn3+2 0.086710 0.706580 0.000000 1.068354
O1    O     O_3   0.500000 0.750040 0.500000 -0.564999
O2    O     O_3   0.500000 0.249960 0.500000 -0.565106
O3    O     O_3   1.000000 0.250040 0.000000 -0.568032
O4    O     O_3   1.000000 0.749960 0.000000 -0.566845
O5    O     O_R   0.585420 0.719700 0.353880 -0.574447
O6    O     O_R   0.414580 0.280300 0.646120 -0.574949
O7    O     O_R   0.414580 0.719700 0.646120 -0.588558
O8    O     O_R   0.585420 0.280300 0.353880 -0.556121
O9    O     O_R   0.585420 0.280300 0.646120 -0.584904
O10   O     O_R   0.414580 0.719700 0.353880 -0.572477
O11   O     O_R   0.414580 0.280300 0.353880 -0.581334
O12   O     O_R   0.585420 0.719700 0.646120 -0.570336
O13   O     O_R   0.085420 0.219700 0.853880 -0.569539
O14   O     O_R   0.914580 0.780300 0.146120 -0.562077
O15   O     O_R   0.914580 0.219700 0.146120 -0.550762
O16   O     O_R   0.085420 0.780300 0.853880 -0.581003
O17   O     O_R   0.085420 0.780300 0.146120 -0.577358
O18   O     O_R   0.914580 0.219700 0.853880 -0.575550
O19   O     O_R   0.914580 0.780300 0.853880 -0.564846
O20   O     O_R   0.085420 0.219700 0.146120 -0.585188
O21   O     O_R   0.646120 0.780390 0.585510 -0.635137
O22   O     O_R   0.353880 0.219610 0.414490 -0.631251
O23   O     O_R   0.353880 0.780390 0.414490 -0.630336
O24   O     O_R   0.646120 0.219610 0.585510 -0.627698
O25   O     O_R   0.646120 0.219610 0.414490 -0.632571
O26   O     O_R   0.353880 0.780390 0.585510 -0.619514
O27   O     O_R   0.353880 0.219610 0.585510 -0.621819
O28   O     O_R   0.646120 0.780390 0.414490 -0.618391
O29   O     O_R   0.146120 0.280390 0.085510 -0.617287
O30   O     O_R   0.853880 0.719610 0.914490 -0.627515
O31   O     O_R   0.853880 0.280390 0.914490 -0.621083
O32   O     O_R   0.146120 0.719610 0.085510 -0.616987
O33   O     O_R   0.146120 0.719610 0.914490 -0.631403
O34   O     O_R   0.853880 0.280390 0.085510 -0.633731
O35   O     O_R   0.853880 0.719610 0.085510 -0.632190
O36   O     O_R   0.146120 0.280390 0.914490 -0.633479
O37   O     O_R   0.560660 0.865840 0.500000 -0.585187
O38   O     O_R   0.439340 0.134160 0.500000 -0.585913
O39   O     O_R   0.439340 0.865840 0.500000 -0.585211
O40   O     O_R   0.560660 0.134160 0.500000 -0.586958
O41   O     O_R   0.060660 0.365840 0.000000 -0.583430
O42   O     O_R   0.939340 0.634160 0.000000 -0.587739
O43   O     O_R   0.939340 0.365840 0.000000 -0.585509
O44   O     O_R   0.060660 0.634160 0.000000 -0.582828
O45   O     O_R   0.500000 0.634240 0.439310 -0.628398
O46   O     O_R   0.500000 0.365760 0.560690 -0.608416
O47   O     O_R   0.500000 0.634240 0.560690 -0.589897
O48   O     O_R   0.500000 0.365760 0.439310 -0.610022
O49   O     O_R   1.000000 0.134240 0.939310 -0.609408
O50   O     O_R   1.000000 0.865760 0.060690 -0.629481
O51   O     O_R   1.000000 0.134240 0.060690 -0.623609
O52   O     O_R   1.000000 0.865760 0.939310 -0.603058
C1    C     C_R   0.640665 0.749622 0.360494 0.947991
C2    C     C_R   0.360384 0.249387 0.640533 0.944865
C3    C     C_R   0.360401 0.750606 0.640563 0.932734
C4    C     C_R   0.639829 0.249438 0.359644 0.928348
C5    C     C_R   0.640670 0.250384 0.639511 0.934829
C6    C     C_R   0.359318 0.749587 0.360511 0.941536
C7    C     C_R   0.359312 0.250430 0.360495 0.931689
C8    C     C_R   0.639810 0.750598 0.640365 0.913562
C9    C     C_R   0.139582 0.250655 0.859440 0.935122
C10   C     C_R   0.859532 0.750197 0.139678 0.949087
C11   C     C_R   0.861369 0.251590 0.141558 0.925270
C12   C     C_R   0.139563 0.749350 0.859410 0.925269
C13   C     C_R   0.140663 0.750416 0.139496 0.938552
C14   C     C_R   0.859526 0.249797 0.860316 0.942801
C15   C     C_R   0.861257 0.748475 0.858508 0.913732
C16   C     C_R   0.140668 0.249567 0.139512 0.930961
C17   C     C_R   0.500003 0.890159 0.500032 0.964927
C18   C     C_R   0.499999 0.109834 0.500010 0.964172
C19   C     C_R   0.000014 0.390155 0.999996 0.975726
C20   C     C_R   0.000004 0.609833 0.999983 0.975208
C21   C     C_R   0.499961 0.609984 0.500052 0.845034
C22   C     C_R   0.500048 0.390015 0.499964 0.843437
C23   C     C_R   0.992040 0.109774 0.999718 0.821306
C24   C     C_R   0.991993 0.890219 0.000257 0.821473
C25   C     C_R   0.363230 0.554099 0.520210 -0.044824
C26   C     C_R   0.636811 0.445923 0.479500 -0.052013
C27   C     C_R   0.636902 0.554281 0.481627 -0.060649
C28   C     C_R   0.363281 0.445754 0.520065 -0.044791
C29   C     C_R   0.925643 0.051689 0.869726 0.037162
C30   C     C_R   0.924142 0.948293 0.129642 0.032577
C31   C     C_R   0.918147 0.054407 0.123774 0.051024
C32   C     C_R   0.919532 0.945619 0.875507 0.052634
C33   C     C_R   0.300706 0.526376 0.538806 0.588083
C34   C     C_R   0.699509 0.473796 0.461919 0.588571
C35   C     C_R   0.699581 0.526779 0.463075 0.572584
C36   C     C_R   0.300736 0.473383 0.538755 0.587901
C37   C     C_R   0.918205 0.023755 0.805031 0.542504
C38   C     C_R   0.915770 0.976249 0.194215 0.534641
C39   C     C_R   0.911187 0.029771 0.190959 0.566792
C40   C     C_R   0.913542 0.970236 0.808227 0.573265
C41   C     C_R   0.432205 0.472333 0.510093 -0.100777
C42   C     C_R   0.567884 0.527662 0.490565 -0.089170
C43   C     C_R   0.567865 0.472402 0.489882 -0.093614
C44   C     C_R   0.432177 0.527590 0.510198 -0.101408
C45   C     C_R   0.951048 0.971958 0.935087 -0.118320
C46   C     C_R   0.950358 0.028044 0.064557 -0.128117
C47   C     C_R   0.951703 0.973083 0.066374 -0.102779
C48   C     C_R   0.952451 0.026906 0.933287 -0.092939
C49   C     C_R   0.500029 0.445867 0.499846 0.033339
C50   C     C_R   0.499999 0.554124 0.500271 0.034523
C51   C     C_R   0.967071 0.945756 0.000908 -0.002343
C52   C     C_R   0.967124 0.054234 0.998899 -0.002216
C53   C     C_R   0.276259 0.797588 0.723948 0.037553
C54   C     C_R   0.745680 0.207937 0.297515 0.051721
C55   C     C_R   0.771723 0.751799 0.323640 0.057466
C56   C     C_R   0.276203 0.202405 0.724043 0.044125
C57   C     C_R   0.228273 0.248220 0.323597 0.046019
C58   C     C_R   0.746240 0.791913 0.701883 0.050732
C59   C     C_R   0.771741 0.248264 0.676342 0.053380
C60   C     C_R   0.228267 0.751722 0.323593 0.041803
C61   C     C_R   0.760525 0.296287 0.208887 0.057022
C62   C     C_R   0.223665 0.702255 0.776015 0.039460
C63   C     C_R   0.223721 0.297746 0.775913 0.045824
C64   C     C_R   0.728520 0.748721 0.176456 0.046268
C65   C     C_R   0.759148 0.704341 0.792301 0.054803
C66   C     C_R   0.271642 0.251568 0.176428 0.043147
C67   C     C_R   0.271652 0.748494 0.176430 0.038362
C68   C     C_R   0.728498 0.251218 0.823561 0.053246
C69   C     C_R   0.706213 0.294292 0.261634 0.618756
C70   C     C_R   0.278190 0.703470 0.723134 0.622637
C71   C     C_R   0.278187 0.296522 0.722975 0.622605
C72   C     C_R   0.676055 0.747964 0.231352 0.614272
C73   C     C_R   0.705064 0.706303 0.739442 0.595414
C74   C     C_R   0.324031 0.252388 0.231344 0.602100
C75   C     C_R   0.324041 0.747719 0.231354 0.611914
C76   C     C_R   0.676043 0.251982 0.768688 0.602580
C77   C     C_R   0.221729 0.796375 0.776796 0.604573
C78   C     C_R   0.802106 0.211160 0.247646 0.615452
C79   C     C_R   0.824164 0.752264 0.268739 0.626152
C80   C     C_R   0.221731 0.203627 0.776950 0.604341
C81   C     C_R   0.175893 0.247574 0.268675 0.604718
C82   C     C_R   0.802574 0.788634 0.751841 0.613197
C83   C     C_R   0.824172 0.247777 0.731222 0.617159
C84   C     C_R   0.175887 0.752323 0.268662 0.613482
C85   C     C_R   0.697287 0.249989 0.304998 -0.378416
C86   C     C_R   0.304354 0.750824 0.696728 -0.354351
C87   C     C_R   0.304301 0.249165 0.696669 -0.352676
C88   C     C_R   0.697166 0.749599 0.304752 -0.358578
C89   C     C_R   0.697137 0.750185 0.695103 -0.372488
C90   C     C_R   0.302852 0.250533 0.304738 -0.351717
C91   C     C_R   0.302852 0.749510 0.304748 -0.361071
C92   C     C_R   0.697166 0.250407 0.695259 -0.350391
C93   C     C_R   0.195542 0.749039 0.803181 -0.345362
C94   C     C_R   0.807411 0.253470 0.199944 -0.372714
C95   C     C_R   0.803045 0.750402 0.195387 -0.351384
C96   C     C_R   0.195598 0.250968 0.803238 -0.343591
C97   C     C_R   0.197083 0.249453 0.195299 -0.347635
C98   C     C_R   0.807089 0.746690 0.800301 -0.378751
C99   C     C_R   0.803042 0.249584 0.804604 -0.340097
C100  C     C_R   0.197086 0.750507 0.195287 -0.355429
C101  C     C_R   0.436743 0.973273 0.520489 0.526158
C102  C     C_R   0.563263 0.026703 0.479543 0.527655
C103  C     C_R   0.563261 0.973296 0.479510 0.534690
C104  C     C_R   0.436737 0.026673 0.520471 0.527344
C105  C     C_R   0.938039 0.473259 0.976109 0.532871
C106  C     C_R   0.062089 0.526702 0.023842 0.534316
C107  C     C_R   0.062088 0.473254 0.023858 0.532123
C108  C     C_R   0.938018 0.526688 0.976192 0.527165
C109  C     C_R   0.500006 0.053747 0.500031 -0.512440
C110  C     C_R   0.500011 0.946233 0.500042 -0.515265
C111  C     C_R   0.000039 0.553742 0.999997 -0.505852
C112  C     C_R   0.000058 0.446224 0.999974 -0.507375
F1    F     F_    0.763661 0.551519 0.449509 -0.553612
F2    F     F_    0.236825 0.448726 0.553404 -0.536384
F3    F     F_    0.236769 0.550950 0.553504 -0.537090
F4    F     F_    0.763518 0.449348 0.447112 -0.548072
F5    F     F_    0.885035 0.056026 0.249326 -0.510526
F6    F     F_    0.888129 0.943980 0.749558 -0.513040
F7    F     F_    0.897865 0.048178 0.742826 -0.535634
F8    F     F_    0.894610 0.951836 0.256182 -0.530764
I1    I     I_    0.335939 0.634254 0.503326 -0.112885
I2    I     I_    0.663907 0.365470 0.493934 -0.141425
I3    I     I_    0.664054 0.634206 0.500663 -0.143060
I4    I     I_    0.336014 0.365650 0.502828 -0.112117
I5    I     I_    0.846639 0.111422 0.879144 -0.173926
I6    I     I_    0.845783 0.888190 0.119481 -0.163371
I7    I     I_    0.837342 0.111526 0.101692 -0.142849
I8    I     I_    0.838059 0.888796 0.896726 -0.147203
I9    I     I_    0.317479 0.871245 0.692319 -0.010975
I10   I     I_    0.736902 0.135707 0.353863 0.140327
I11   I     I_    0.809802 0.750973 0.433428 0.010283
I12   I     I_    0.317335 0.128747 0.692554 0.007951
I13   I     I_    0.190097 0.249267 0.433376 -0.017773
I14   I     I_    0.738740 0.863763 0.644248 0.064664
I15   I     I_    0.809819 0.249262 0.566514 -0.009552
I16   I     I_    0.190084 0.750586 0.433367 -0.013816
I17   I     I_    0.770851 0.367787 0.151329 0.000746
I18   I     I_    0.182712 0.628571 0.808042 -0.036818
I19   I     I_    0.182841 0.371430 0.807776 -0.020268
I20   I     I_    0.690902 0.751591 0.066573 -0.073640
I21   I     I_    0.766788 0.633491 0.851706 0.060483
I22   I     I_    0.309553 0.249447 0.066585 -0.083587
I23   I     I_    0.309568 0.750706 0.066590 -0.079426
I24   I     I_    0.690858 0.248256 0.933471 -0.072325
F9    F     F_    0.662996 0.336401 0.271458 -0.577221
F10   F     F_    0.304302 0.658350 0.695819 -0.580446
F11   F     F_    0.304303 0.341640 0.695514 -0.581430
F12   F     F_    0.604089 0.747392 0.213093 -0.567331
F13   F     F_    0.660966 0.664537 0.730580 -0.582929
F14   F     F_    0.396013 0.253262 0.213095 -0.596525
F15   F     F_    0.396029 0.746943 0.213112 -0.568152
F16   F     F_    0.604073 0.252512 0.786997 -0.598364
F17   F     F_    0.195753 0.841489 0.804280 -0.597665
F18   F     F_    0.851772 0.172269 0.246141 -0.544468
F19   F     F_    0.896141 0.753055 0.286950 -0.557885
F20   F     F_    0.195746 0.158515 0.804573 -0.597981
F21   F     F_    0.103903 0.246653 0.286896 -0.585429
F22   F     F_    0.852907 0.827119 0.752691 -0.548481
F23   F     F_    0.896152 0.247029 0.712958 -0.586253
F24   F     F_    0.103892 0.753147 0.286877 -0.561027
F25   F     F_    0.375051 0.948272 0.541709 -0.546578
F26   F     F_    0.624864 0.051707 0.458103 -0.544883
F27   F     F_    0.624824 0.948306 0.457905 -0.536569
F28   F     F_    0.375045 0.051636 0.541682 -0.546783
F29   F     F_    0.877856 0.448177 0.951169 -0.548725
F30   F     F_    0.122255 0.551798 0.048785 -0.546977
F31   F     F_    0.122248 0.448143 0.048832 -0.547743
F32   F     F_    0.877750 0.551747 0.951536 -0.553562

loop_
_geom_bond_atom_site_label_1
_geom_bond_atom_site_label_2
_geom_bond_distance
_ccdc_geom_bond_type
C104  C109  1.404329 A    
Zn6   O16   1.934689 S    
Zn8   O50   1.935659 S    
C82   F22   1.357339 S    
Zn4   O46   1.935659 S    
Zn2   O2    1.949600 S    
C65   I21   2.138759 S    
Zn14  O4    1.944302 S    
C67   I23   2.133311 S    
O48   C22   1.279304 A    
Zn5   O51   1.936562 S    
C63   I19   2.132485 S    
O34   C11   1.278009 A    
Zn16  O32   1.940186 S    
C31   C46   1.413190 A    
C101  C104  1.383317 A    
Zn4   O9    1.935306 S    
C104  F28   1.358212 S    
C41   C49   1.430490 A    
Zn14  O30   1.939713 S    
C58   I14   2.144659 S    
Zn15  O3    1.944576 S    
C56   C80   1.391958 A    
C5    C92   1.455360 S    
C57   I13   2.133294 S    
Zn8   O4    1.951383 S    
C6    C91   1.455150 S    
Zn7   O13   1.934237 S    
C63   C96   1.408330 A    
C40   F6    1.356965 S    
C24   C51   1.509355 S    
Zn10  O2    1.944302 S    
C76   F16   1.359194 S    
C75   C91   1.402975 A    
Zn16  O44   1.935575 S    
C78   F18   1.357250 S    
C77   F17   1.359221 S    
O23   C6    1.276925 A    
O16   C12   1.278702 A    
C38   C39   1.390239 A    
Zn3   O45   1.935659 S    
O15   C11   1.279813 A    
C82   C98   1.406234 A    
Zn5   O20   1.935594 S    
C31   I7    2.130895 S    
C26   C43   1.448831 A    
Zn4   O6    1.934239 S    
Zn6   O19   1.935596 S    
C30   I6    2.124972 S    
Zn11  O26   1.938667 S    
C60   I16   2.133221 S    
Zn15  O34   1.938667 S    
C29   I5    2.124983 S    
C106  C107  1.384573 A    
C74   F14   1.359244 S    
C16   C97   1.454817 S    
C33   C36   1.372768 A    
O52   C24   1.294842 A    
C19   C112  1.452444 S    
C45   C51   1.416463 A    
Zn4   O2    1.951383 S    
C60   C84   1.391959 A    
C108  C111  1.404056 A    
Zn11  O1    1.944576 S    
C44   C50   1.430199 A    
C71   F11   1.359096 S    
C17   C110  1.452576 S    
C27   C35   1.392701 A    
Zn12  O24   1.940186 S    
Zn1   O12   1.935594 S    
O46   C22   1.279403 A    
C67   C100  1.408637 A    
C103  C110  1.404358 A    
Zn2   O11   1.935596 S    
Zn15  O31   1.940187 S    
C21   C50   1.447037 S    
C76   C92   1.403088 A    
C33   F3    1.359182 S    
C27   I3    2.158038 S    
C14   C99   1.454754 S    
C45   C48   1.424002 A    
C29   C37   1.398294 A    
C70   C86   1.402695 A    
C9    C96   1.454229 S    
Zn6   O52   1.936562 S    
C10   C95   1.453922 S    
C84   F24   1.359340 S    
C37   F7    1.357461 S    
C73   F13   1.359628 S    
C78   C94   1.405695 A    
C42   C50   1.430119 A    
Zn9   O37   1.935713 S    
C74   C90   1.402900 A    
O11   C7    1.279022 A    
C106  F30   1.358565 S    
Zn9   O21   1.939712 S    
C37   C40   1.390197 A    
O45   C21   1.279659 A    
C46   C47   1.424312 A    
O22   C7    1.276197 A    
C32   I8    2.130531 S    
O44   C20   1.276369 A    
Zn14  O42   1.935713 S    
C15   C98   1.458941 S    
C103  F27   1.358661 S    
C8    C89   1.453347 S    
C32   C40   1.394150 A    
C1    C88   1.454526 S    
C53   C86   1.408123 A    
Zn13  O3    1.944300 S    
C102  C109  1.404530 A    
C69   C85   1.405675 A    
C2    C87   1.454214 S    
C80   C96   1.402402 A    
C22   C49   1.446807 S    
C68   I24   2.133472 S    
Zn13  O41   1.935713 S    
C81   C97   1.402659 A    
Zn16  O33   1.938669 S    
Zn2   O48   1.936562 S    
C41   C44   1.431402 A    
C25   C33   1.392979 A    
C42   C43   1.431565 A    
O38   C18   1.276557 A    
O19   C15   1.280104 A    
C57   C90   1.409135 A    
C59   C92   1.409203 A    
O50   C24   1.285774 A    
C105  C112  1.403887 A    
O17   C13   1.279229 A    
C3    C86   1.454125 S    
C75   F15   1.359303 S    
C18   C109  1.452905 S    
C48   C52   1.423645 A    
O5    C1    1.279761 A    
O39   C17   1.276378 A    
C26   I2    2.158476 S    
Zn12  O25   1.938669 S    
C62   I18   2.132556 S    
O7    C3    1.278543 A    
C66   C74   1.391987 A    
Zn13  O36   1.939256 S    
C61   I17   2.139944 S    
O40   C18   1.276426 A    
Zn14  O35   1.939255 S    
C71   C87   1.402770 A    
Zn16  O4    1.944574 S    
C59   C83   1.391916 A    
O47   C21   1.279068 A    
O51   C23   1.295358 A    
C66   C97   1.408632 A    
C61   C69   1.388337 A    
O28   C1    1.276690 A    
C62   C93   1.408392 A    
C54   I10   2.143236 S    
C29   C48   1.419292 A    
Zn11  O23   1.940187 S    
C53   I9    2.131649 S    
Zn12  O40   1.935575 S    
C57   C81   1.391896 A    
C72   C88   1.402994 A    
O25   C4    1.274054 A    
C7    C90   1.455013 S    
C73   C89   1.405169 A    
O21   C8    1.273528 A    
C55   C79   1.391540 A    
Zn1   O7    1.934690 S    
O27   C2    1.277352 A    
Zn7   O3    1.951385 S    
C28   C36   1.392992 A    
Zn2   O8    1.934689 S    
C23   C52   1.509285 S    
C54   C85   1.410769 A    
C53   C77   1.391911 A    
Zn3   O5    1.934237 S    
O29   C16   1.276365 A    
C64   C72   1.391851 A    
C84   C100  1.402729 A    
C11   C94   1.458014 S    
O36   C9    1.277137 A    
O12   C8    1.281419 A    
C101  C110  1.404433 A    
C79   F19   1.359331 S    
Zn7   O18   1.935308 S    
O8    C4    1.281398 A    
C20   C111  1.453019 S    
C58   C89   1.411224 A    
Zn9   O1    1.944300 S    
O49   C23   1.285207 A    
C39   F5    1.356941 S    
C70   F10   1.359090 S    
Zn9   O28   1.939256 S    
C4    C85   1.453117 S    
C69   F9    1.359558 S    
Zn10  O27   1.939255 S    
C35   F1    1.359095 S    
Zn15  O43   1.935575 S    
Zn7   O49   1.935659 S    
O31   C14   1.276615 A    
Zn3   O10   1.935308 S    
C32   C45   1.413203 A    
C36   F2    1.359192 S    
C27   C42   1.448116 A    
O42   C20   1.276646 A    
C55   I11   2.133501 S    
C105  C108  1.384055 A    
C64   I20   2.133547 S    
C107  C112  1.404334 A    
Zn5   O3    1.949598 S    
C68   C99   1.408368 A    
C25   I1    2.157840 S    
C105  F29   1.358624 S    
C31   C39   1.394192 A    
C28   C41   1.448382 A    
C56   I12   2.131642 S    
C47   C51   1.423614 A    
C30   C38   1.398346 A    
O33   C12   1.276532 A    
Zn10  O22   1.939713 S    
C43   C49   1.430523 A    
Zn11  O39   1.935575 S    
Zn8   O14   1.934239 S    
C28   I4    2.157838 S    
O32   C13   1.277094 A    
C80   F20   1.359220 S    
O35   C10   1.276510 A    
C34   F4    1.359171 S    
C68   C76   1.392212 A    
C79   C95   1.402367 A    
C65   C98   1.412435 A    
C107  F31   1.358574 S    
Zn13  O29   1.939712 S    
C58   C82   1.382925 A    
Zn1   O47   1.936562 S    
C30   C47   1.419260 A    
C108  F32   1.357582 S    
C77   C93   1.402306 A    
Zn6   O4    1.949600 S    
O20   C16   1.278678 A    
C83   C99   1.402485 A    
C81   F21   1.359289 S    
C102  F26   1.358019 S    
C67   C75   1.392055 A    
O26   C3    1.276765 A    
O10   C6    1.279566 A    
C13   C100  1.454967 S    
C101  F25   1.358193 S    
C61   C94   1.412058 A    
Zn3   O1    1.951385 S    
O9    C5    1.279804 A    
Zn8   O17   1.935306 S    
C54   C78   1.382244 A    
C55   C88   1.409169 A    
C34   C35   1.372703 A    
Zn10  O38   1.935713 S    
O43   C19   1.276504 A    
C12   C93   1.454115 S    
C64   C95   1.408307 A    
C63   C71   1.392282 A    
C72   F12   1.359268 S    
C25   C44   1.448328 A    
C38   F8    1.357474 S    
O30   C15   1.277649 A    
O14   C10   1.279473 A    
O41   C19   1.276211 A    
O13   C9    1.279036 A    
Zn1   O1    1.949598 S    
C26   C34   1.393180 A    
C83   F23   1.359252 S    
C102  C103  1.383489 A    
C56   C87   1.408063 A    
Zn12  O2    1.944574 S    
C66   I22   2.133388 S    
O37   C17   1.276438 A    
C65   C73   1.387568 A    
O18   C14   1.279525 A    
O24   C5    1.276787 A    
C59   I15   2.133490 S    
C106  C111  1.404285 A    
O6    C2    1.278884 A    
C46   C52   1.416332 A    
C60   C91   1.409132 A    
Zn5   O15   1.934690 S    
C62   C70   1.392252 A    
