data_mof_unit_25621.cif
_audit_creation_date              2012-12-11T15:08:57-0500
_audit_creation_method            fapswitch 2.2
_symmetry_space_group_name_H-M    P1
_symmetry_Int_Tables_number       1
_space_group_crystal_system       triclinic
_cell_length_a                    19.461591
_cell_length_b                    11.513993
_cell_length_c                    18.727909
_cell_angle_alpha                 89.999848
_cell_angle_beta                  91.326994
_cell_angle_gamma                 90.000068
_cell_volume                      4195.43603008

loop_
_atom_site_label
_atom_site_type_symbol
_atom_type_description
_atom_site_fract_x
_atom_site_fract_y
_atom_site_fract_z
_atom_type_partial_charge
C1    C     C_R   0.273489 0.041090 0.854871 0.529840
C2    C     C_3   0.686977 0.533748 0.953508 -0.234598
C3    C     C_R   0.227865 0.545594 0.353224 0.533311
C4    C     C_R   0.446925 0.819908 0.638328 0.551112
C5    C     C_R   0.553091 0.819908 0.361675 0.551177
C6    C     C_R   0.946914 0.319909 0.638326 0.551178
C7    C     C_R   0.053085 0.319908 0.361674 0.551178
C8    C     C_R   0.258826 0.637031 0.645293 0.526245
C9    C     C_R   0.741175 0.637026 0.354705 0.526237
C10   C     C_R   0.758825 0.137028 0.645294 0.526254
C11   C     C_R   0.241174 0.137028 0.354706 0.526238
C12   C     C_3   0.480630 0.922083 0.035778 -0.110192
C13   C     C_3   0.813023 0.033752 0.046493 -0.234597
C14   C     C_3   0.519367 0.922087 0.964224 -0.110189
C15   C     C_3   0.980630 0.422084 0.035778 -0.110191
C16   C     C_3   0.019368 0.422086 0.964223 -0.110192
C17   C     C_3   0.431905 0.827148 0.006399 -0.172255
C18   C     C_3   0.568096 0.827156 0.993601 -0.172260
C19   C     C_3   0.931904 0.327150 0.006399 -0.172253
C20   C     C_3   0.068096 0.327154 0.993601 -0.172260
C21   C     C_3   0.471431 0.826841 0.935849 0.046241
C22   C     C_3   0.528570 0.826840 0.064151 0.046235
C23   C     C_3   0.971431 0.326841 0.935849 0.046239
C24   C     C_3   0.186978 0.033748 0.953508 -0.234598
C25   C     C_3   0.028569 0.326841 0.064151 0.046237
C26   C     C_3   0.099547 0.742819 0.021525 -0.304610
C27   C     C_3   0.900451 0.742821 0.978472 -0.304605
C28   C     C_3   0.599546 0.242816 0.021518 -0.304620
C29   C     C_3   0.400451 0.242824 0.978467 -0.304597
C30   C     C_3   0.596810 0.927361 0.688609 -0.270307
C31   C     C_3   0.403325 0.927503 0.311386 -0.269813
C32   C     C_3   0.096678 0.427482 0.688631 -0.269802
C33   C     C_3   0.903297 0.427479 0.311376 -0.269904
C34   C     C_1   0.120086 0.679883 0.567026 0.193017
C35   C     C_3   0.317546 0.529020 0.964137 -0.003050
C36   C     C_1   0.879911 0.679887 0.432977 0.192993
C37   C     C_1   0.620084 0.179896 0.567018 0.192845
C38   C     C_1   0.379911 0.179883 0.432975 0.193039
C39   C     C_3   0.431095 0.489029 0.909385 -0.266407
C40   C     C_3   0.568924 0.489019 0.090654 -0.266374
C41   C     C_3   0.931088 0.989026 0.909370 -0.266396
C42   C     C_3   0.068917 0.989021 0.090638 -0.266387
C43   C     C_3   0.682454 0.529014 0.035864 -0.003059
C44   C     C_3   0.817547 0.029018 0.964137 -0.003056
C45   C     C_3   0.182455 0.029015 0.035864 -0.003052
C46   C     C_3   0.185531 0.501698 0.022909 -0.206617
C47   C     C_3   0.814469 0.501698 0.977092 -0.206619
C48   C     C_3   0.685531 0.001697 0.022908 -0.206618
C49   C     C_R   0.726510 0.041091 0.145129 0.529845
C50   C     C_3   0.314469 0.001700 0.977092 -0.206619
C51   C     C_3   0.228106 0.697141 0.051249 0.027125
C52   C     C_3   0.771892 0.697139 0.948750 0.027128
C53   C     C_3   0.728104 0.197140 0.051248 0.027124
C54   C     C_3   0.271891 0.197140 0.948750 0.027129
C55   C     C_3   0.239065 0.568900 0.068757 0.060074
C56   C     C_3   0.760935 0.568898 0.931244 0.060073
C57   C     C_3   0.739065 0.068899 0.068756 0.060073
C58   C     C_3   0.260934 0.068899 0.931243 0.060074
C59   C     C_3   0.254904 0.599012 0.929817 0.043362
C60   C     C_R   0.773490 0.541090 0.854871 0.529848
C61   C     C_3   0.745096 0.599012 0.070183 0.043362
C62   C     C_3   0.754904 0.099010 0.929817 0.043361
C63   C     C_3   0.245096 0.099013 0.070182 0.043360
C64   C     C_3   0.191989 0.522629 0.941178 -0.268396
C65   C     C_3   0.808011 0.522633 0.058823 -0.268392
C66   C     C_3   0.691991 0.022624 0.941177 -0.268393
C67   C     C_3   0.308013 0.022637 0.058822 -0.268394
C68   C     C_3   0.245393 0.713333 0.972330 -0.173125
C69   C     C_3   0.754604 0.713333 0.027668 -0.173125
C70   C     C_3   0.745393 0.213331 0.972330 -0.173126
C71   C     C_R   0.226511 0.541091 0.145129 0.529843
C72   C     C_3   0.254604 0.213334 0.027668 -0.173125
C73   C     C_3   0.507934 0.699226 0.461096 -0.231320
C74   C     C_3   0.492056 0.699214 0.538897 -0.231330
C75   C     C_3   0.007935 0.199226 0.461098 -0.231351
C76   C     C_3   0.992066 0.199227 0.538903 -0.231348
C77   C     C_R   0.444959 0.818281 0.861567 0.523414
C78   C     C_R   0.555042 0.818281 0.138433 0.523430
C79   C     C_R   0.944959 0.318281 0.861567 0.523419
C80   C     C_R   0.055042 0.318281 0.138433 0.523425
C81   C     C_3   0.573678 0.884299 0.491315 -0.270995
C82   C     C_3   0.519563 0.732950 0.964956 -0.091288
C83   C     C_3   0.426361 0.884341 0.508710 -0.270946
C84   C     C_3   0.073661 0.384316 0.491304 -0.271002
C85   C     C_3   0.926335 0.384312 0.508692 -0.271010
C86   C     C_3   0.458055 0.896481 0.434037 0.026051
C87   C     C_3   0.541996 0.896409 0.565997 0.026005
C88   C     C_3   0.958035 0.396460 0.434022 0.026032
C89   C     C_3   0.041960 0.396468 0.565973 0.026037
C90   C     C_3   0.524298 0.824807 0.434957 0.048226
C91   C     C_3   0.475729 0.824799 0.565056 0.048235
C92   C     C_3   0.024286 0.324807 0.434951 0.048234
C93   C     C_3   0.480441 0.732946 0.035042 -0.091289
C94   C     C_3   0.975711 0.324808 0.565048 0.048235
C95   C     C_3   0.180833 0.657489 0.454758 -0.218093
C96   C     C_3   0.819162 0.657491 0.545242 -0.218103
C97   C     C_3   0.680836 0.157486 0.454758 -0.218086
C98   C     C_3   0.319163 0.157492 0.545242 -0.218094
C99   C     C_3   0.188300 0.678577 0.533659 -0.095735
C100  C     C_3   0.811695 0.678577 0.466341 -0.095741
C101  C     C_3   0.688303 0.178577 0.533657 -0.095758
C102  C     C_3   0.311696 0.178577 0.466341 -0.095737
C103  C     C_3   0.241098 0.461271 0.472151 -0.228333
C104  C     C_3   0.019562 0.232949 0.964957 -0.091292
C105  C     C_3   0.758906 0.461267 0.527849 -0.228330
C106  C     C_3   0.741102 0.961269 0.472151 -0.228333
C107  C     C_3   0.258901 0.961271 0.527850 -0.228327
C108  C     C_3   0.306786 0.640602 0.447848 -0.283506
C109  C     C_3   0.693209 0.640588 0.552150 -0.283506
C110  C     C_3   0.806789 0.140599 0.447849 -0.283505
C111  C     C_3   0.193211 0.140599 0.552151 -0.283508
C112  C     C_3   0.239509 0.576635 0.429490 0.052217
C113  C     C_3   0.760489 0.576631 0.570509 0.052194
C114  C     C_3   0.739512 0.076633 0.429490 0.052209
C115  C     C_3   0.980439 0.232947 0.035043 -0.091288
C116  C     C_3   0.260489 0.076635 0.570510 0.052211
C117  C     C_3   0.248149 0.605355 0.568613 0.044887
C118  C     C_3   0.751850 0.605347 0.431386 0.044882
C119  C     C_3   0.748150 0.105352 0.568614 0.044867
C120  C     C_3   0.251849 0.105351 0.431387 0.044889
C121  C     C_3   0.233583 0.478555 0.553397 -0.287004
C122  C     C_3   0.766420 0.478550 0.446603 -0.287002
C123  C     C_3   0.733582 0.978553 0.553397 -0.286991
C124  C     C_3   0.266417 0.978553 0.446605 -0.287007
C125  C     C_R   0.261406 0.636702 0.853121 0.526905
C126  C     C_3   0.313022 0.533752 0.046493 -0.234597
C127  C     C_R   0.738594 0.636702 0.146879 0.526909
C128  C     C_R   0.761406 0.136701 0.853120 0.526915
C129  C     C_R   0.238594 0.136703 0.146879 0.526909
C130  C     C_3   0.316300 0.634577 0.530408 -0.234312
C131  C     C_3   0.683695 0.634558 0.469589 -0.234313
C132  C     C_3   0.816303 0.134571 0.530410 -0.234306
C133  C     C_3   0.183696 0.134571 0.469590 -0.234309
C134  C     C_R   0.272134 0.045595 0.646777 0.533305
C135  C     C_R   0.727866 0.045594 0.353224 0.533310
C136  C     C_R   0.772134 0.545594 0.646776 0.533317
Cr1   Cr    Cr6+3 0.229620 0.836040 0.749110 0.997326
Cr2   Cr    Cr6+3 0.613980 0.676590 0.250790 0.976285
Cr3   Cr    Cr6+3 0.886020 0.176590 0.749210 0.976296
Cr4   Cr    Cr6+3 0.113980 0.176590 0.250790 0.976295
Cr5   Cr    Cr6+3 0.770380 0.836040 0.250890 0.997327
Cr6   Cr    Cr6+3 0.729620 0.336040 0.749110 0.997332
Cr7   Cr    Cr6+3 0.270380 0.336040 0.250890 0.997326
Cr8   Cr    Cr6+3 0.387630 0.990680 0.750730 0.994580
Cr9   Cr    Cr6+3 0.612370 0.990680 0.249270 0.994503
Cr10  Cr    Cr6+3 0.887630 0.490680 0.750730 0.994503
Cr11  Cr    Cr6+3 0.112370 0.490680 0.249270 0.994517
Cr12  Cr    Cr6+3 0.386020 0.676590 0.749210 0.976311
H1    H     H_    0.379618 0.818484 0.025205 0.091420
H2    H     H_    0.703166 0.746812 0.028899 0.061712
H3    H     H_    0.170608 0.949487 0.930962 0.124207
H4    H     H_    0.349801 0.598333 0.069241 0.116794
H5    H     H_    0.650199 0.598329 0.930761 0.116792
H6    H     H_    0.849800 0.098335 0.069241 0.116792
H7    H     H_    0.150199 0.098327 0.930760 0.116789
H8    H     H_    0.311381 0.437808 0.947865 0.170432
H9    H     H_    0.688623 0.437800 0.052135 0.170426
H10   H     H_    0.811381 0.937805 0.947867 0.170430
H11   H     H_    0.188623 0.937803 0.052136 0.170428
H12   H     H_    0.695848 0.913704 0.035692 0.083264
H13   H     H_    0.796830 0.246814 0.971099 0.061713
H14   H     H_    0.304147 0.913706 0.964316 0.083262
H15   H     H_    0.195851 0.413705 0.035690 0.083264
H16   H     H_    0.804148 0.413705 0.964314 0.083262
H17   H     H_    0.697910 0.938759 0.912824 0.084672
H18   H     H_    0.302103 0.938774 0.087181 0.084672
H19   H     H_    0.197905 0.438765 0.912823 0.084670
H20   H     H_    0.802099 0.438770 0.087180 0.084669
H21   H     H_    0.154392 0.772695 0.119618 0.257842
H22   H     H_    0.052244 0.746645 0.053392 0.123116
H23   H     H_    0.093069 0.667025 0.987391 0.139418
H24   H     H_    0.203167 0.246814 0.028901 0.061713
H25   H     H_    0.102467 0.819568 0.986464 0.132940
H26   H     H_    0.845604 0.772700 0.880381 0.257839
H27   H     H_    0.947753 0.746658 0.946604 0.123113
H28   H     H_    0.906934 0.667021 0.012601 0.139417
H29   H     H_    0.897529 0.819564 0.013539 0.132937
H30   H     H_    0.654386 0.272696 0.119613 0.257841
H31   H     H_    0.552242 0.246625 0.053382 0.123118
H32   H     H_    0.593076 0.167030 0.987377 0.139423
H33   H     H_    0.602465 0.319573 0.986463 0.132944
H34   H     H_    0.345599 0.272700 0.880377 0.257841
H35   H     H_    0.210070 0.775901 0.946662 0.155520
H36   H     H_    0.447750 0.246675 0.946596 0.123115
H37   H     H_    0.406940 0.167018 0.012590 0.139411
H38   H     H_    0.397526 0.319561 0.013538 0.132934
H39   H     H_    0.599710 0.773314 0.630346 0.257004
H40   H     H_    0.651456 0.927516 0.706917 0.126744
H41   H     H_    0.566060 0.886856 0.731111 0.190905
H42   H     H_    0.580332 0.018485 0.681030 0.188183
H43   H     H_    0.400219 0.773512 0.369713 0.256866
H44   H     H_    0.348621 0.928284 0.293249 0.126854
H45   H     H_    0.433797 0.886531 0.268812 0.190545
H46   H     H_    0.789925 0.775905 0.053336 0.155517
H47   H     H_    0.420234 0.018458 0.318847 0.188318
H48   H     H_    0.099778 0.273487 0.630305 0.256868
H49   H     H_    0.151385 0.428226 0.706784 0.126856
H50   H     H_    0.066181 0.386521 0.731197 0.190578
H51   H     H_    0.079789 0.518460 0.681161 0.188303
H52   H     H_    0.900235 0.273465 0.369682 0.256897
H53   H     H_    0.848603 0.428145 0.293207 0.126838
H54   H     H_    0.933821 0.386601 0.268813 0.190606
H55   H     H_    0.920125 0.518465 0.318864 0.188286
H56   H     H_    0.387824 0.654305 0.930060 0.284126
H57   H     H_    0.710071 0.275902 0.946661 0.155521
H58   H     H_    0.470011 0.533830 0.878178 0.167648
H59   H     H_    0.403218 0.432565 0.870893 0.143183
H60   H     H_    0.460854 0.441009 0.950449 0.118957
H61   H     H_    0.612173 0.654292 0.069936 0.284124
H62   H     H_    0.529999 0.533826 0.121845 0.167641
H63   H     H_    0.596818 0.432605 0.129162 0.143191
H64   H     H_    0.539168 0.440947 0.049613 0.118937
H65   H     H_    0.887825 0.154301 0.930061 0.284128
H66   H     H_    0.970008 0.033829 0.878170 0.167644
H67   H     H_    0.903204 0.932583 0.870871 0.143185
H68   H     H_    0.289926 0.275904 0.053336 0.155516
H69   H     H_    0.960844 0.940984 0.950425 0.118949
H70   H     H_    0.112174 0.154296 0.069936 0.284124
H71   H     H_    0.029996 0.033827 0.121837 0.167644
H72   H     H_    0.096803 0.932585 0.129139 0.143186
H73   H     H_    0.039158 0.940973 0.049587 0.118945
H74   H     H_    0.632556 0.016717 0.040803 0.170666
H75   H     H_    0.367443 0.016709 0.959192 0.170650
H76   H     H_    0.132557 0.516714 0.040805 0.170661
H77   H     H_    0.620382 0.818494 0.974792 0.091423
H78   H     H_    0.867443 0.516711 0.959194 0.170656
H79   H     H_    0.145711 0.562549 0.916413 0.128466
H80   H     H_    0.854290 0.562560 0.083585 0.128472
H81   H     H_    0.645712 0.062538 0.916409 0.128468
H82   H     H_    0.354291 0.062569 0.083582 0.128475
H83   H     H_    0.550175 0.638885 0.452354 0.124967
H84   H     H_    0.449799 0.638909 0.547629 0.124948
H85   H     H_    0.050177 0.138890 0.452354 0.124968
H86   H     H_    0.949826 0.138887 0.547648 0.124970
H87   H     H_    0.464238 0.660073 0.430980 0.137012
H88   H     H_    0.879618 0.318486 0.025206 0.091420
H89   H     H_    0.535737 0.659996 0.569002 0.136978
H90   H     H_    0.964236 0.160062 0.430992 0.137008
H91   H     H_    0.035767 0.160071 0.569011 0.137012
H92   H     H_    0.619260 0.834486 0.500739 0.125638
H93   H     H_    0.380773 0.834538 0.499275 0.125553
H94   H     H_    0.119238 0.334490 0.500747 0.125580
H95   H     H_    0.880760 0.334483 0.499251 0.125595
H96   H     H_    0.466609 0.000942 0.066018 0.107220
H97   H     H_    0.533386 0.000950 0.933986 0.107225
H98   H     H_    0.966610 0.500944 0.066017 0.107219
H99   H     H_    0.120382 0.318493 0.974793 0.091420
H100  H     H_    0.033387 0.500948 0.933984 0.107219
H101  H     H_    0.472152 0.988648 0.426773 0.182552
H102  H     H_    0.527930 0.988581 0.573299 0.182611
H103  H     H_    0.972122 0.488631 0.426756 0.182557
H104  H     H_    0.027869 0.488638 0.573234 0.182549
H105  H     H_    0.411679 0.969753 0.528168 0.105647
H106  H     H_    0.588372 0.969716 0.471875 0.105581
H107  H     H_    0.911629 0.469717 0.528144 0.105616
H108  H     H_    0.088365 0.469719 0.471851 0.105621
H109  H     H_    0.128979 0.624530 0.441125 0.155872
H110  H     H_    0.265576 0.748331 0.084165 0.082791
H111  H     H_    0.871017 0.624532 0.558875 0.155880
H112  H     H_    0.628983 0.124520 0.441125 0.155885
H113  H     H_    0.371017 0.124534 0.558875 0.155888
H114  H     H_    0.182921 0.741654 0.425735 0.106151
H115  H     H_    0.817071 0.741655 0.574264 0.106148
H116  H     H_    0.682922 0.241650 0.425733 0.106156
H117  H     H_    0.317074 0.241657 0.574264 0.106150
H118  H     H_    0.206449 0.764585 0.539610 0.117726
H119  H     H_    0.793543 0.764583 0.460388 0.117730
H120  H     H_    0.706455 0.264582 0.539607 0.117752
H121  H     H_    0.734422 0.748326 0.915833 0.082792
H122  H     H_    0.293547 0.264585 0.460388 0.117725
H123  H     H_    0.705915 0.895918 0.449172 0.103617
H124  H     H_    0.294093 0.895925 0.550827 0.103624
H125  H     H_    0.205906 0.395923 0.449176 0.103621
H126  H     H_    0.794098 0.395922 0.550827 0.103620
H127  H     H_    0.681605 0.958963 0.569644 0.178734
H128  H     H_    0.318395 0.958959 0.430361 0.178726
H129  H     H_    0.181607 0.458958 0.569646 0.178723
H130  H     H_    0.818397 0.458960 0.430355 0.178726
H131  H     H_    0.350793 0.598373 0.421470 0.114850
H132  H     H_    0.765572 0.248332 0.084165 0.082791
H133  H     H_    0.649204 0.598350 0.578527 0.114859
H134  H     H_    0.850795 0.098369 0.421471 0.114852
H135  H     H_    0.149205 0.098368 0.578530 0.114851
H136  H     H_    0.303339 0.732022 0.429693 0.123342
H137  H     H_    0.696650 0.732006 0.570308 0.123490
H138  H     H_    0.803342 0.232017 0.429692 0.123370
H139  H     H_    0.196658 0.232017 0.570307 0.123349
H140  H     H_    0.538121 0.654872 0.937177 0.137235
H141  H     H_    0.461889 0.654860 0.062820 0.137245
H142  H     H_    0.038118 0.154869 0.937178 0.137235
H143  H     H_    0.234419 0.248326 0.915833 0.082790
H144  H     H_    0.961886 0.154864 0.062821 0.137242
H145  H     H_    0.337173 0.713043 0.554607 0.108144
H146  H     H_    0.662819 0.713011 0.445379 0.108152
H147  H     H_    0.837176 0.213031 0.554617 0.108145
H148  H     H_    0.162823 0.213032 0.445385 0.108146
H149  H     H_    0.353130 0.563429 0.543069 0.135240
H150  H     H_    0.646865 0.563410 0.456928 0.135235
H151  H     H_    0.853136 0.063427 0.543071 0.135234
H152  H     H_    0.146864 0.063426 0.456930 0.135236
H153  H     H_    0.294396 0.432025 0.465171 0.136407
H154  H     H_    0.296829 0.746816 0.971097 0.061714
H155  H     H_    0.705608 0.432018 0.534829 0.136414
H156  H     H_    0.794401 0.932025 0.465175 0.136406
H157  H     H_    0.205603 0.932024 0.534830 0.136409
H158  H     H_    0.269620 0.421695 0.584049 0.107323
H159  H     H_    0.730386 0.421685 0.415951 0.107324
H160  H     H_    0.769616 0.921692 0.584051 0.107347
H161  H     H_    0.230383 0.921690 0.415952 0.107319
H162  H     H_    0.329392 0.449491 0.069039 0.124206
H163  H     H_    0.670608 0.449488 0.930961 0.124210
H164  H     H_    0.829393 0.949492 0.069040 0.124209
N1    N     N_2   0.159143 0.736689 0.069681 -0.509682
N2    N     N_1   0.933205 0.687116 0.407253 -0.340864
N3    N     N_1   0.566786 0.187128 0.592735 -0.340822
N4    N     N_1   0.433205 0.187109 0.407249 -0.340863
N5    N     N_2   0.384850 0.569207 0.943722 -0.518180
N6    N     N_2   0.615148 0.569191 0.056280 -0.518191
N7    N     N_2   0.884851 0.069202 0.943721 -0.518185
N8    N     N_2   0.115150 0.069196 0.056280 -0.518184
N9    N     N_2   0.840854 0.736691 0.930317 -0.509681
N10   N     N_2   0.659140 0.236685 0.069678 -0.509680
N11   N     N_2   0.340852 0.236694 0.930315 -0.509681
N12   N     N_2   0.590264 0.860280 0.623302 -0.553329
N13   N     N_2   0.409783 0.860453 0.376715 -0.553273
N14   N     N_2   0.090225 0.360432 0.623301 -0.553271
N15   N     N_2   0.909770 0.360412 0.376696 -0.553280
N16   N     N_1   0.066793 0.687111 0.592753 -0.340870
O1    O     O_R   0.214130 0.708570 0.829890 -0.538832
O2    O     O_R   0.542830 0.717300 0.331620 -0.523746
O3    O     O_R   0.957170 0.217300 0.668380 -0.523752
O4    O     O_R   0.042830 0.217300 0.331620 -0.523749
O5    O     O_R   0.320870 0.624890 0.673130 -0.520915
O6    O     O_R   0.679130 0.624890 0.326870 -0.520929
O7    O     O_R   0.820870 0.124890 0.673130 -0.520917
O8    O     O_R   0.179130 0.124890 0.326870 -0.520925
O9    O     O_3   0.334430 0.834430 0.749680 -0.298827
O10   O     O_3   0.665570 0.834430 0.250320 -0.298827
O11   O     O_3   0.834430 0.334430 0.749680 -0.298826
O12   O     O_R   0.785870 0.708570 0.170110 -0.538828
O13   O     O_3   0.165570 0.334430 0.250320 -0.298827
O14   O     O_R   0.236050 0.959150 0.825270 -0.526411
O15   O     O_R   0.763950 0.959150 0.174730 -0.526406
O16   O     O_R   0.736050 0.459150 0.825270 -0.526406
O17   O     O_R   0.263950 0.459150 0.174730 -0.526407
O18   O     O_R   0.332100 0.076650 0.832310 -0.510054
O19   O     O_R   0.667900 0.076650 0.167690 -0.510059
O20   O     O_R   0.832100 0.576650 0.832310 -0.510057
O21   O     O_R   0.167900 0.576650 0.167690 -0.510059
O22   O     O_R   0.446500 0.918620 0.826240 -0.508826
O23   O     O_R   0.714130 0.208570 0.829890 -0.538824
O24   O     O_R   0.553500 0.918620 0.173760 -0.508809
O25   O     O_R   0.946500 0.418620 0.826240 -0.508819
O26   O     O_R   0.053500 0.418620 0.173760 -0.508814
O27   O     O_R   0.457310 0.715830 0.831280 -0.542930
O28   O     O_R   0.542690 0.715830 0.168720 -0.542949
O29   O     O_R   0.957310 0.215830 0.831280 -0.542948
O30   O     O_R   0.042690 0.215830 0.168720 -0.542944
O31   O     O_R   0.321000 0.623520 0.824130 -0.503905
O32   O     O_R   0.679000 0.623520 0.175870 -0.503918
O33   O     O_R   0.821000 0.123520 0.824130 -0.503910
O34   O     O_R   0.285870 0.208570 0.170110 -0.538830
O35   O     O_R   0.179000 0.123520 0.175870 -0.503911
O36   O     O_R   0.213990 0.710040 0.667000 -0.513813
O37   O     O_R   0.786010 0.710040 0.333000 -0.513815
O38   O     O_R   0.713990 0.210040 0.667000 -0.513841
O39   O     O_R   0.286010 0.210040 0.333000 -0.513812
O40   O     O_R   0.235920 0.960520 0.674260 -0.506875
O41   O     O_R   0.764080 0.960520 0.325740 -0.506869
O42   O     O_R   0.735920 0.460520 0.674260 -0.506867
O43   O     O_R   0.264080 0.460520 0.325740 -0.506871
O44   O     O_R   0.331960 0.078120 0.669410 -0.535830
O45   O     O_R   0.446360 0.919990 0.675230 -0.504832
O46   O     O_R   0.668040 0.078120 0.330590 -0.535852
O47   O     O_R   0.831960 0.578120 0.669410 -0.535847
O48   O     O_R   0.168040 0.578120 0.330590 -0.535848
O49   O     O_R   0.553640 0.919990 0.324770 -0.504859
O50   O     O_R   0.946360 0.419990 0.675230 -0.504867
O51   O     O_R   0.053640 0.419990 0.324770 -0.504852
O52   O     O_R   0.457170 0.717300 0.668380 -0.523767

loop_
_geom_bond_atom_site_label_1
_geom_bond_atom_site_label_2
_ccdc_geom_bond_type
C87   H102  S    
C27   N9    S    
C132  H151  S    
C87   C91   S    
C77   O22   A    
C135  O41   A    
C37   N3    T    
Cr12  O27   S    
C38   N4    T    
C105  H126  S    
C72   H24   S    
C14   C21   S    
C121  H129  S    
C42   H72   S    
C78   O28   A    
C95   C99   S    
C4    O45   A    
C98   H117  S    
C46   H76   S    
C29   H38   S    
C62   C70   S    
H48   N14   S    
C120  C133  S    
C30   H41   S    
C89   C94   S    
H56   N5    S    
C76   C94   S    
Cr1   O9    S    
C6    C94   S    
C45   H11   S    
C46   C55   S    
C84   H108  S    
C10   O7    A    
C7    O4    A    
C42   H73   S    
C108  H136  S    
C125  O31   A    
Cr2   O6    S    
C3    O43   A    
Cr1   O36   S    
Cr5   O12   S    
Cr11  O51   S    
C107  C124  S    
C88   N15   S    
C10   O38   A    
C9    O6    A    
C16   H100  S    
C85   H107  S    
C11   O8    A    
C31   N13   S    
C22   C78   S    
C86   C90   S    
C79   O29   A    
Cr5   O37   S    
C26   H25   S    
C98   C102  S    
C31   H44   S    
C33   H55   S    
C17   C21   S    
H43   N13   S    
C43   N6    S    
C103  C112  S    
C19   C23   S    
C75   C76   S    
C32   H49   S    
C24   H3    S    
C54   H143  S    
C109  H133  S    
C110  H138  S    
C55   C126  S    
C136  O42   A    
C3    C112  S    
Cr7   O13   S    
C34   C99   S    
C124  H161  S    
C61   C127  S    
H70   N8    S    
C28   H32   S    
Cr6   O11   S    
C81   C90   S    
C36   N2    T    
C103  C121  S    
C43   C61   S    
C40   H64   S    
C107  H124  S    
C29   N11   S    
C96   H115  S    
C27   H28   S    
C119  C123  S    
C83   C91   S    
C81   H92   S    
Cr5   O15   S    
Cr9   O24   S    
C31   H47   S    
C134  O44   A    
C47   H78   S    
C48   H74   S    
Cr9   O46   S    
Cr10  O50   S    
C96   H111  S    
C7    C92   S    
C8    O36   A    
C18   C82   S    
C51   C55   S    
Cr7   O43   S    
C13   H6    S    
Cr6   O42   S    
C61   C65   S    
Cr6   O23   S    
C83   C86   S    
C26   H22   S    
C115  H144  S    
C75   H90   S    
C76   H86   S    
C13   C44   S    
C55   C71   S    
C53   H132  S    
C89   H104  S    
C40   H62   S    
C50   H14   S    
Cr8   O22   S    
C19   H88   S    
Cr6   O16   S    
C48   C57   S    
Cr3   O3    S    
C53   N10   S    
C48   H12   S    
C40   H63   S    
C76   H91   S    
C69   H2    S    
C105  C113  S    
C73   C90   S    
C64   H19   S    
C41   H67   S    
Cr12  O52   S    
C13   C57   S    
C12   C22   S    
C49   C57   S    
C118  C122  S    
C106  H156  S    
C10   C119  S    
C80   O26   A    
C126  H4    S    
C12   H96   S    
C131  H150  S    
C118  C131  S    
C2    C43   S    
C50   C67   S    
C110  C114  S    
C108  C130  S    
Cr9   O19   S    
C4    C91   S    
C86   H101  S    
C60   O20   A    
C106  H123  S    
Cr12  O31   S    
C9    C118  S    
Cr12  O5    S    
C11   C120  S    
C122  H130  S    
Cr7   O34   S    
C123  H127  S    
C8    C117  S    
C3    O48   A    
C62   C66   S    
Cr9   O10   S    
C31   H45   S    
C30   N12   S    
C123  H160  S    
C18   H77   S    
C99   C117  S    
Cr11  O21   S    
C15   H98   S    
C39   H60   S    
Cr1   O40   S    
Cr8   O18   S    
C51   H110  S    
C16   C23   S    
C46   H15   S    
C17   C93   S    
C5    O49   A    
C73   H83   S    
C40   N6    S    
C85   C88   S    
C68   H154  S    
C66   H17   S    
Cr3   O11   S    
C18   C22   S    
C111  H135  S    
C101  H120  S    
C78   O24   A    
C43   H9    S    
C41   H69   S    
C51   N1    S    
Cr7   O17   S    
C2    H163  S    
C2    C56   S    
C59   C125  S    
H52   N15   S    
C37   C101  S    
C129  O35   A    
C96   C100  S    
C133  H152  S    
C29   H37   S    
C105  C122  S    
Cr4   O4    S    
C107  C116  S    
C126  H162  S    
C21   C82   S    
Cr6   O38   S    
C54   N11   S    
C84   C92   S    
C48   C66   S    
C97   C114  S    
C64   H79   S    
C97   H112  S    
C47   C56   S    
Cr4   O35   S    
C28   N10   S    
C99   H118  S    
C29   H36   S    
C25   C80   S    
C44   H10   S    
C73   C74   S    
C71   O17   A    
Cr10  O20   S    
C70   H57   S    
C15   C19   S    
C66   H81   S    
Cr8   O9    S    
C95   C112  S    
C116  C134  S    
C20   C25   S    
C6    O50   A    
C39   H58   S    
C42   N8    S    
C33   H54   S    
C35   C59   S    
C133  H148  S    
C32   H50   S    
C52   C69   S    
Cr10  O47   S    
C20   H99   S    
C136  O47   A    
C12   C17   S    
C109  C131  S    
C110  C132  S    
C111  C116  S    
C108  H131  S    
C82   H140  S    
C14   H97   S    
C82   C93   S    
Cr4   O13   S    
C53   C70   S    
C87   N12   S    
C26   N1    S    
C50   H75   S    
C33   N15   S    
C50   C58   S    
C103  H125  S    
C74   H84   S    
C42   H71   S    
C27   H27   S    
C128  O33   A    
C53   C57   S    
C52   N9    S    
C108  C112  S    
C131  H146  S    
C30   H40   S    
C74   C91   S    
Cr10  O25   S    
C104  C115  S    
C49   O15   A    
C23   C104  S    
C65   H20   S    
C60   O16   A    
C6    O3    A    
C36   C100  S    
Cr12  O9    S    
C81   C87   S    
C88   H103  S    
C110  H134  S    
Cr8   O44   S    
C127  O32   A    
C72   H68   S    
Cr11  O26   S    
C83   H105  S    
C26   H23   S    
H39   N12   S    
C96   C113  S    
C100  C118  S    
C70   H13   S    
C127  O12   A    
C102  C120  S    
C5    O2    A    
H34   N11   S    
C102  H122  S    
C27   H29   S    
Cr4   O30   S    
C32   H51   S    
C83   H93   S    
C132  H147  S    
C93   H141  S    
Cr10  O11   S    
C41   H66   S    
C49   O19   A    
Cr9   O49   S    
C69   H46   S    
C63   C129  S    
C39   N5    S    
C28   H31   S    
H61   N6    S    
C73   H87   S    
C15   C25   S    
C56   C60   S    
C63   C72   S    
C24   C58   S    
C111  H139  S    
C134  O40   A    
Cr2   O28   S    
C68   H35   S    
C121  H158  S    
H30   N10   S    
C14   C18   S    
Cr2   O32   S    
H21   N1    S    
C35   N5    S    
Cr8   O45   S    
C107  H157  S    
Cr2   O2    S    
C130  H145  S    
C59   C64   S    
C106  C114  S    
C24   C45   S    
Cr4   O8    S    
C128  O23   A    
C25   C115  S    
C105  H155  S    
C8    O5    A    
C41   N7    S    
C15   C16   S    
C34   N16   T    
C85   H95   S    
C1    O14   A    
C117  C121  S    
C97   H116  S    
C79   O25   A    
C95   H114  S    
Cr5   O41   S    
C52   H121  S    
C67   H82   S    
C7    O51   A    
C113  C136  S    
C39   H59   S    
C106  C123  S    
C114  C135  S    
C71   O21   A    
C81   H106  S    
H65   N7    S    
C45   N8    S    
C5    C90   S    
C24   H7    S    
C16   C20   S    
C38   C102  S    
C109  H137  S    
C30   H42   S    
C89   N14   S    
C77   O27   A    
C104  H142  S    
C63   C67   S    
C130  H149  S    
C101  C119  S    
C88   C92   S    
C35   H8    S    
C111  C133  S    
C44   C62   S    
C45   C63   S    
C65   H80   S    
C46   C64   S    
Cr3   O33   S    
C35   C126  S    
C28   H33   S    
C1    O18   A    
C59   C68   S    
C85   C94   S    
C98   C116  S    
C19   C115  S    
C129  O34   A    
C119  C132  S    
C117  C130  S    
C135  O46   A    
Cr1   O1    S    
C75   C92   S    
C67   H18   S    
C12   C14   S    
C2    H5    S    
C122  H159  S    
C22   C93   S    
C125  O1    A    
C84   C89   S    
C47   H16   S    
C86   N13   S    
Cr7   O39   S    
C4    O52   A    
H26   N9    S    
C54   C58   S    
C61   C69   S    
C95   H109  S    
Cr5   O10   S    
Cr2   O10   S    
C17   H1    S    
C84   H94   S    
C20   C104  S    
C100  H119  S    
C109  C113  S    
Cr1   O14   S    
C13   H164  S    
C74   H89   S    
Cr3   O29   S    
C1    C58   S    
C62   C128  S    
C124  H128  S    
C98   H113  S    
Cr3   O7    S    
C33   H53   S    
Cr11  O48   S    
C75   H85   S    
C51   C68   S    
C44   N7    S    
C9    O37   A    
C11   O39   A    
C120  C124  S    
C103  H153  S    
C54   C72   S    
C21   C77   S    
C32   N14   S    
C23   C79   S    
C47   C65   S    
C97   C101  S    
C52   C56   S    
C80   O30   A    
Cr11  O13   S    
