data_mof_unit_68142.cif
_audit_creation_date              2013-03-05T15:59:43-0500
_audit_creation_method            fapswitch 2.2
_symmetry_space_group_name_H-M    P1
_symmetry_Int_Tables_number       1
_space_group_crystal_system       triclinic
_cell_length_a                    7.222699
_cell_length_b                    14.914824
_cell_length_c                    15.751607
_cell_angle_alpha                 89.885283
_cell_angle_beta                  89.765939
_cell_angle_gamma                 87.788114
_cell_volume                      1695.56503975

loop_
_atom_site_label
_atom_site_type_symbol
_atom_site_description
_atom_site_fract_x
_atom_site_fract_y
_atom_site_fract_z
_atom_type_partial_charge
O1    O     O_R   0.638960 0.835150 0.161940 -0.559585
O2    O     O_R   0.361040 0.164850 0.838060 -0.564445
O3    O     O_R   0.309170 0.846340 0.337470 -0.568468
O4    O     O_R   0.690830 0.153660 0.662530 -0.565336
O5    O     O_R   0.138810 0.664830 0.338070 -0.560660
O6    O     O_R   0.861190 0.335170 0.661930 -0.553745
C1    C     C_R   0.474838 0.865414 0.368202 1.114395
C2    C     C_R   0.525146 0.134120 0.632155 1.118230
O7    O     O_R   0.309250 0.846350 0.162570 -0.546514
O8    O     O_R   0.690750 0.153650 0.837430 -0.549496
O9    O     O_R   0.138880 0.664840 0.161920 -0.575289
O10   O     O_R   0.861120 0.335160 0.838080 -0.561128
C3    C     C_R   0.476764 0.865919 0.132338 1.176924
C4    C     C_R   0.522922 0.134481 0.867923 1.177032
O11   O     O_R   0.638880 0.835150 0.338090 -0.594477
O12   O     O_R   0.361120 0.164850 0.661910 -0.598435
O13   O     O_3   0.472380 0.690440 0.250000 -0.243986
O14   O     O_3   0.527620 0.309560 0.750000 -0.254252
V1    V     V_3+5 0.197550 0.761040 0.250010 1.428444
V2    V     V_3+5 0.802450 0.238960 0.749990 1.434171
O15   O     O_R   0.809160 0.653640 0.162540 -0.546134
O16   O     O_R   0.190840 0.346360 0.837460 -0.561727
C5    C     C_R   0.980640 0.632962 0.133354 1.173881
C6    C     C_R   0.022646 0.365325 0.867648 1.160500
O17   O     O_R   0.809090 0.653640 0.337440 -0.564197
O18   O     O_R   0.190910 0.346360 0.662560 -0.569283
C7    C     C_R   0.977329 0.633523 0.366764 1.150302
C8    C     C_R   0.019208 0.367562 0.634016 1.140177
V3    V     V_3+5 0.697540 0.738950 0.250000 1.411831
V4    V     V_3+5 0.302460 0.261050 0.750000 1.406982
O19   O     O_3   0.972580 0.809550 0.250010 -0.267383
O20   O     O_3   0.027420 0.190450 0.749990 -0.270907
C9    C     C_3   0.096314 0.568117 0.520867 0.119491
C10   C     C_3   0.874352 0.434448 0.482071 0.224051
C11   C     C_3   0.931389 0.535392 0.572831 0.119966
C12   C     C_3   0.036366 0.465998 0.428229 0.136431
C13   C     C_3   0.998692 0.436197 0.561721 -0.566664
C14   C     C_3   0.978428 0.565691 0.439916 -0.529658
C15   C     C_3   0.162922 0.467492 0.507542 0.324015
C16   C     C_3   0.809381 0.535280 0.492516 0.369821
C17   C     C_3   0.906117 0.430381 0.022984 0.120190
C18   C     C_3   0.119146 0.566368 0.979453 0.107102
C19   C     C_3   0.071175 0.465582 0.072793 0.121899
C20   C     C_3   0.957308 0.531694 0.928256 0.198849
C21   C     C_3   0.999039 0.564052 0.060889 -0.576457
C22   C     C_3   0.021698 0.432773 0.940879 -0.512547
C23   C     C_3   0.833860 0.530365 0.008777 0.306777
C24   C     C_3   0.190967 0.466436 0.990910 0.319999
C25   C     C_3   0.657743 0.986329 0.455822 -0.308102
C26   C     C_3   0.342240 0.012268 0.545400 -0.311092
C27   C     C_3   0.540465 0.075409 0.462691 0.316135
C28   C     C_3   0.459649 0.923152 0.538527 0.302079
H1    H     H_    0.791055 0.977226 0.420990 0.245002
H2    H     H_    0.208834 0.021372 0.580164 0.244169
C29   C     C_3   0.522081 0.064849 0.560443 -0.423980
C30   C     C_3   0.478016 0.933808 0.440663 -0.421752
C31   C     C_3   0.635646 0.975013 0.553137 0.286659
C32   C     C_3   0.364548 0.023673 0.448025 0.281651
C33   C     C_3   0.617175 0.933384 0.982354 0.152304
C34   C     C_3   0.379599 0.067773 0.018140 0.161231
C35   C     C_3   0.459327 0.966622 0.923644 0.328894
C36   C     C_3   0.537631 0.034314 0.076916 0.353716
C37   C     C_3   0.510210 0.065248 0.939440 -0.596045
C38   C     C_3   0.487451 0.935711 0.061137 -0.604336
C39   C     C_3   0.666131 0.030633 0.998374 0.180970
C40   C     C_3   0.330483 0.970267 0.002286 0.180709
N1    N     N_R   0.856657 0.570641 0.652159 0.312642
O21   O     O_R   0.842500 0.657113 0.663087 -0.137590
O22   O     O_R   0.749061 0.519830 0.696098 -0.318830
N2    N     N_R   0.061246 0.427921 0.344163 0.291394
O23   O     O_R   0.128668 0.346140 0.337337 -0.198201
O24   O     O_R   0.941173 0.456022 0.287747 -0.351906
S1    S     S_3+6 0.407548 0.926983 0.819721 0.113400
O25   O     O_2   0.228770 0.970653 0.789475 -0.162814
O26   O     O_2   0.560273 0.951475 0.760215 -0.297934
O27   O     O_3   0.388343 0.815176 0.821091 -0.336254
H3    H     H_    0.500391 0.790028 0.792007 0.429891
S2    S     S_3+6 0.587478 0.075201 0.180505 0.107118
O28   O     O_2   0.431468 0.053589 0.239211 -0.255087
O29   O     O_2   0.764046 0.030640 0.212475 -0.210792
O30   O     O_3   0.608250 0.186812 0.176347 -0.343590
H4    H     H_    0.681059 0.201594 0.227155 0.438897
N3    N     N_R   0.750592 0.862011 0.963110 0.311109
O31   O     O_R   0.781869 0.837582 0.884955 -0.204773
O32   O     O_R   0.838784 0.821637 0.024885 -0.279386
N4    N     N_R   0.248975 0.140611 0.037449 0.316097
O33   O     O_R   0.230498 0.170527 0.114569 -0.156561
O34   O     O_R   0.151447 0.177411 0.976682 -0.282731
N5    N     N_R   0.846082 0.065521 0.995932 0.287084
O35   O     O_R   0.900734 0.109970 0.061236 -0.222275
O36   O     O_R   0.942681 0.059840 0.926176 -0.301020
N6    N     N_R   0.152520 0.932688 0.005106 0.287645
O37   O     O_R   0.057686 0.936639 0.075413 -0.297592
O38   O     O_R   0.110926 0.878306 0.944669 -0.198578
N7    N     N_R   0.180810 0.649533 0.550474 0.304436
O39   O     O_R   0.193881 0.663837 0.631699 -0.194608
O40   O     O_R   0.196110 0.717018 0.498966 -0.318655
N8    N     N_R   0.782736 0.352858 0.456441 0.321102
O41   O     O_R   0.761061 0.335049 0.376455 -0.225173
O42   O     O_R   0.767340 0.287657 0.510459 -0.327723
S3    S     S_3+6 0.366559 0.399276 0.495234 0.040141
O43   O     O_2   0.496315 0.407093 0.568628 -0.284254
O44   O     O_2   0.311950 0.303317 0.490044 -0.234715
O45   O     O_3   0.464208 0.430497 0.403400 -0.457403
H5    H     H_    0.439549 0.383066 0.361783 0.434718
S4    S     S_3+6 0.613990 0.613050 0.497360 0.091537
O46   O     O_2   0.682705 0.706016 0.485512 -0.242739
O47   O     O_2   0.474207 0.597206 0.429572 -0.231895
O48   O     O_3   0.519788 0.611089 0.594389 -0.381715
H6    H     H_    0.458590 0.553877 0.599944 0.377755
N9    N     N_R   0.146118 0.431402 0.152660 0.310095
O49   O     O_R   0.166730 0.345249 0.163894 -0.136047
O50   O     O_R   0.244343 0.484019 0.198711 -0.356718
N10   N     N_R   0.925660 0.566249 0.843492 0.294362
O51   O     O_R   0.828403 0.640480 0.832917 -0.164567
O52   O     O_R   0.051866 0.544093 0.787337 -0.356731
N11   N     N_R   0.823541 0.348477 0.053804 0.308886
O53   O     O_R   0.812864 0.333571 0.135023 -0.229233
O54   O     O_R   0.793146 0.283128 0.001890 -0.274686
N12   N     N_R   0.204959 0.648821 0.951126 0.317065
O55   O     O_R   0.234954 0.663146 0.870943 -0.157023
O56   O     O_R   0.228058 0.713995 0.004121 -0.305013
S5    S     S_3+6 0.627711 0.598932 0.999415 0.042756
O57   O     O_2   0.679748 0.691342 0.979319 -0.174573
O58   O     O_2   0.520440 0.569850 0.924368 -0.212490
O59   O     O_3   0.504857 0.605508 0.090089 -0.501693
H7    H     H_    0.390395 0.574414 0.079861 0.352808
S6    S     S_3+6 0.399747 0.396090 0.998004 0.073496
O60   O     O_2   0.348587 0.301844 0.988537 -0.204203
O61   O     O_2   0.540182 0.409871 0.929474 -0.244668
O62   O     O_3   0.488481 0.401239 0.096013 -0.407076
H8    H     H_    0.568466 0.452587 0.097934 0.358516
N13   N     N_R   0.593883 0.152390 0.412716 0.285511
O63   O     O_R   0.764061 0.154085 0.386057 -0.252048
O64   O     O_R   0.468221 0.198883 0.371209 -0.238483
N14   N     N_R   0.409649 0.845843 0.589002 0.294615
O65   O     O_R   0.247149 0.846987 0.624750 -0.199412
O66   O     O_R   0.539892 0.794386 0.621607 -0.204555
N15   N     N_R   0.793238 0.942227 0.603538 0.281232
O67   O     O_R   0.876622 0.866424 0.583330 -0.238854
O68   O     O_R   0.866860 0.992802 0.660269 -0.293138
N16   N     N_R   0.207756 0.057047 0.397575 0.284410
O69   O     O_R   0.129659 0.134519 0.416136 -0.234127
O70   O     O_R   0.130551 0.006228 0.342115 -0.297484

loop_
_geom_bond_atom_site_label_1
_geom_bond_atom_site_label_2
_geom_bond_distance
_ccdc_geom_bond_type
V4    O20   2.283978 S    
C37   C39   1.535684 S    
O59   H7    0.977487 S    
C5    C21   1.539416 S    
O11   V3    2.029714 S    
C10   C13   1.546744 S    
O13   V3    1.805278 S    
S1    O25   1.502478 D    
N9    O49   1.299667 A    
O4    C2    1.333447 A    
V1    O19   1.752998 S    
S6    O60   1.475142 D    
N10   O51   1.298899 A    
S5    O57   1.475935 D    
C39   N5    1.418897 S    
O9    V1    2.055060 S    
C33   C38   1.551521 S    
S3    O43   1.498746 D    
C19   N9    1.455067 S    
C34   C37   1.554345 S    
C10   C16   1.566797 S    
C11   C13   1.549398 S    
C33   N3    1.439932 S    
O3    C1    1.333643 A    
N11   O54   1.299235 A    
C9    C11   1.537040 S    
N4    O34   1.298924 A    
S5    O58   1.490406 D    
S4    O46   1.501673 D    
C7    C14   1.531700 S    
O12   V4    2.029714 S    
C25   C31   1.550067 S    
C31   N15   1.458710 S    
C34   C36   1.540065 S    
O7    V1    2.056697 S    
C2    O12   1.337044 A    
C35   C37   1.550713 S    
O7    C3    1.340826 A    
C36   C38   1.548967 S    
C10   N8    1.465607 S    
O5    C7    1.348897 A    
C35   C40   1.546102 S    
C9    C15   1.572464 S    
O6    C8    1.329266 A    
N7    O39   1.301913 A    
C20   C22   1.542479 S    
C25   C27   1.551581 S    
C26   C28   1.552512 S    
C17   C22   1.537555 S    
O3    V1    2.064383 S    
N2    O23   1.300278 A    
O14   V4    1.805279 S    
N5    O36   1.300309 A    
C19   C24   1.550476 S    
C10   C12   1.530619 S    
C20   C23   1.547930 S    
C1    O11   1.336975 A    
C34   C40   1.531397 S    
S3    O44   1.501643 D    
C17   C19   1.539496 S    
C18   C20   1.529764 S    
C1    C30   1.533151 S    
C9    N7    1.458174 S    
C2    C29   1.533136 S    
O1    V3    2.027724 S    
O45   H5    0.987149 S    
C12   N2    1.449639 S    
C15   S3    1.766056 S    
C21   C23   1.550961 S    
O17   V3    2.021887 S    
C22   C24   1.557134 S    
C33   C35   1.537510 S    
N1    O21   1.301536 A    
C26   C32   1.551307 S    
O27   H3    0.989805 S    
N14   O66   1.297820 A    
O8    C4    1.342850 A    
O8    V2    2.056696 S    
C34   N4    1.443151 S    
N4    O33   1.299539 A    
S5    O59   1.679407 S    
C40   N6    1.422439 S    
C27   C29   1.553140 S    
C35   S1    1.787441 S    
O15   V3    2.021276 S    
O30   H4    0.989316 S    
N1    O22   1.302398 A    
C18   C21   1.546682 S    
C38   C40   1.540091 S    
C24   S6    1.807210 S    
C32   N16   1.457391 S    
C23   S5    1.779949 S    
N3    O31   1.300960 A    
C11   N1    1.450627 S    
O10   V2    2.055059 S    
N6    O38   1.295622 A    
C17   C23   1.576640 S    
S2    O29   1.503387 D    
N9    O50   1.301851 A    
C27   C32   1.530363 S    
C18   C24   1.569446 S    
N15   O68   1.299153 A    
C19   C21   1.550554 S    
N3    O32   1.299343 A    
O18   V4    2.021888 S    
S3    O45   1.679598 S    
N8    O42   1.298574 A    
O15   C5    1.344208 A    
N13   O63   1.298430 A    
C28   N14   1.455412 S    
S1    O27   1.678749 S    
O16   C6    1.323327 A    
O1    C3    1.327600 A    
S1    O26   1.500027 D    
O62   H8    0.977536 S    
S6    O62   1.676997 S    
C26   H2    1.110227 S    
N16   O70   1.299168 A    
N12   O55   1.299244 A    
N12   O56   1.298639 A    
C16   S4    1.793325 S    
V2    O20   1.752997 S    
O16   V4    2.021278 S    
C36   C39   1.543352 S    
S2    O28   1.499010 D    
C36   S2    1.785964 S    
C12   C15   1.551706 S    
C9    C14   1.537406 S    
N14   O65   1.299221 A    
S6    O61   1.497519 D    
N10   O52   1.301474 A    
N15   O67   1.299838 A    
N7    O40   1.299294 A    
O5    V1    2.048737 S    
O17   C7    1.325073 A    
C25   C30   1.561258 S    
O6    V2    2.048735 S    
O10   C6    1.351375 A    
O18   C8    1.346785 A    
C26   C29   1.562149 S    
O2    V4    2.027722 S    
C6    C22   1.531870 S    
C29   C31   1.548013 S    
C11   C16   1.544745 S    
V3    O19   2.283979 S    
O48   H6    0.979620 S    
C33   C39   1.527833 S    
C12   C14   1.540246 S    
C14   C16   1.554336 S    
C27   N13   1.454257 S    
S2    O30   1.678294 S    
C18   N12   1.466278 S    
C3    C38   1.532365 S    
S4    O47   1.497846 D    
C8    C13   1.533513 S    
C25   H1    1.110170 S    
C4    C37   1.531505 S    
O9    C5    1.334838 A    
N6    O37   1.300012 A    
O13   V1    2.210818 S    
C30   C32   1.548098 S    
O14   V2    2.210818 S    
O2    C4    1.325249 A    
C28   C31   1.531719 S    
C20   N10   1.446089 S    
O4    V2    2.064384 S    
C13   C15   1.544699 S    
N8    O41   1.299448 A    
N13   O64   1.298673 A    
N16   O69   1.299424 A    
N2    O24   1.301623 A    
C17   N11   1.461222 S    
N5    O35   1.296024 A    
N11   O53   1.300547 A    
C28   C30   1.555012 S    
S4    O48   1.671089 S    
