data_mof_unit_52242.cif
_audit_creation_date              2012-12-10T18:09:36-0500
_audit_creation_method            fapswitch 2.2
_symmetry_space_group_name_H-M    P1
_symmetry_Int_Tables_number       1
_space_group_crystal_system       triclinic
_cell_length_a                    14.943589
_cell_length_b                    15.549568
_cell_length_c                    9.411565
_cell_angle_alpha                 90.262923
_cell_angle_beta                  89.853005
_cell_angle_gamma                 90.011803
_cell_volume                      2186.90077381

loop_
_atom_site_label
_atom_site_type_symbol
_atom_type_description
_atom_site_fract_x
_atom_site_fract_y
_atom_site_fract_z
_atom_type_partial_charge
C1    C     C_R   0.122147 0.381487 0.499402 0.763085
C2    C     C_R   0.121712 0.618937 0.500648 0.758570
C3    C     C_R   0.622146 0.881486 0.499402 0.763083
C4    C     C_R   0.621713 0.118937 0.500647 0.758569
C5    C     C_3   0.081449 0.456542 0.082727 -0.181434
C6    C     C_3   0.080067 0.454143 0.915553 -0.178496
C7    C     C_3   0.581505 0.956635 0.082729 -0.181465
C8    C     C_3   0.580123 0.954230 0.915554 -0.178470
C9    C     C_R   0.878880 0.381138 0.500145 0.780642
C10   C     C_R   0.879133 0.619118 0.500085 0.779043
C11   C     C_R   0.378881 0.881137 0.500145 0.780639
C12   C     C_R   0.379133 0.119118 0.500085 0.779049
C13   C     C_3   0.791189 0.283682 0.656187 -0.361146
C14   C     C_3   0.846196 0.233608 0.415915 -0.378055
C15   C     C_3   0.844398 0.765243 0.590755 -0.384310
C16   C     C_3   0.795602 0.719903 0.345147 -0.359379
C17   C     C_3   0.291191 0.783680 0.656189 -0.361121
C18   C     C_3   0.346197 0.733608 0.415917 -0.378034
C19   C     C_3   0.344395 0.265241 0.590765 -0.384326
C20   C     C_3   0.295606 0.219907 0.345150 -0.359407
C21   C     C_3   0.226406 0.707067 0.658534 0.039106
C22   C     C_3   0.272155 0.664872 0.400319 -0.001687
C23   C     C_3   0.269227 0.332817 0.607908 0.002122
C24   C     C_3   0.231813 0.297232 0.343925 0.029694
C25   C     C_3   0.726412 0.207064 0.658528 0.039092
C26   C     C_3   0.772151 0.164876 0.400306 -0.001685
C27   C     C_3   0.769232 0.832821 0.607895 0.002113
C28   C     C_3   0.731804 0.797225 0.343919 0.029691
C29   C     C_3   0.721852 0.343282 0.434808 -0.410950
C30   C     C_3   0.720604 0.655887 0.558866 -0.411168
C31   C     C_3   0.221853 0.843281 0.434809 -0.410950
C32   C     C_3   0.220603 0.155886 0.558858 -0.411168
C33   C     C_3   0.810738 0.311978 0.501276 0.097595
C34   C     C_3   0.811191 0.688471 0.499322 0.099737
C35   C     C_3   0.310739 0.811977 0.501278 0.097582
C36   C     C_3   0.311191 0.188471 0.499323 0.099748
C37   C     C_3   0.192357 0.686994 0.502746 0.127729
C38   C     C_3   0.192824 0.313471 0.498093 0.129893
C39   C     C_3   0.692357 0.186995 0.502743 0.127732
C40   C     C_3   0.692824 0.813471 0.498091 0.129889
C41   C     C_3   0.150081 0.771731 0.445736 -0.487376
C42   C     C_3   0.148891 0.227396 0.546255 -0.488102
C43   C     C_3   0.650079 0.271733 0.445743 -0.487377
C44   C     C_3   0.648893 0.727398 0.546268 -0.488096
C45   C     C_3   0.000727 0.588749 0.084416 -0.187144
C46   C     C_3   0.002915 0.588698 0.916861 -0.190794
C47   C     C_3   0.921488 0.455618 0.083761 -0.187105
C48   C     C_3   0.920557 0.457140 0.916446 -0.187595
C49   C     C_3   0.500617 0.088749 0.084417 -0.187134
C50   C     C_3   0.502809 0.088701 0.916862 -0.190780
C51   C     C_3   0.421543 0.955525 0.083760 -0.187089
C52   C     C_3   0.420609 0.957048 0.916445 -0.187585
Cu1   Cu    Cu3+1 0.000100 0.500000 0.642410 0.882767
Cu2   Cu    Cu3+1 0.000100 0.500000 0.357590 0.882970
Cu3   Cu    Cu3+1 0.500100 0.000000 0.642410 0.882772
Cu4   Cu    Cu3+1 0.500100 0.000000 0.357590 0.882971
H1    H     H_    0.761377 0.338260 0.717106 0.134862
H2    H     H_    0.868548 0.253417 0.307989 0.139737
H3    H     H_    0.865072 0.743326 0.698196 0.140394
H4    H     H_    0.766485 0.666873 0.279986 0.138305
H5    H     H_    0.261387 0.838260 0.717114 0.134862
H6    H     H_    0.368544 0.753415 0.307988 0.139730
H7    H     H_    0.365068 0.243320 0.698204 0.140390
H8    H     H_    0.266488 0.166880 0.279985 0.138307
H9    H     H_    0.854943 0.266709 0.710499 0.174885
H10   H     H_    0.905771 0.206669 0.470991 0.163368
H11   H     H_    0.904569 0.794025 0.539526 0.161203
H12   H     H_    0.860739 0.737118 0.294761 0.172910
H13   H     H_    0.354945 0.766700 0.710495 0.174879
H14   H     H_    0.405775 0.706672 0.470989 0.163369
H15   H     H_    0.404566 0.294025 0.539541 0.161200
H16   H     H_    0.360745 0.237120 0.294768 0.172904
H17   H     H_    0.167682 0.726396 0.724577 0.131646
H18   H     H_    0.247119 0.666960 0.288683 0.132821
H19   H     H_    0.241001 0.326257 0.717331 0.131433
H20   H     H_    0.175325 0.280470 0.271849 0.133685
H21   H     H_    0.667691 0.226383 0.724584 0.131660
H22   H     H_    0.747112 0.166974 0.288672 0.132830
H23   H     H_    0.741010 0.826270 0.717321 0.131432
H24   H     H_    0.675313 0.780456 0.271855 0.133683
H25   H     H_    0.697759 0.402251 0.490410 0.152358
H26   H     H_    0.732740 0.360121 0.321240 0.169763
H27   H     H_    0.728416 0.637420 0.672283 0.170251
H28   H     H_    0.698277 0.597679 0.499490 0.152301
H29   H     H_    0.197758 0.902248 0.490416 0.152360
H30   H     H_    0.232742 0.860124 0.321243 0.169764
H31   H     H_    0.228410 0.137417 0.672274 0.170249
H32   H     H_    0.198278 0.097679 0.499477 0.152302
H33   H     H_    0.095212 0.793320 0.517766 0.157108
H34   H     H_    0.119746 0.761099 0.339155 0.169855
H35   H     H_    0.114605 0.235546 0.650627 0.169322
H36   H     H_    0.096889 0.207257 0.468389 0.158972
H37   H     H_    0.595215 0.293323 0.517784 0.157110
H38   H     H_    0.619736 0.261104 0.339167 0.169853
H39   H     H_    0.614613 0.735552 0.650645 0.169327
H40   H     H_    0.596885 0.707256 0.468413 0.158968
H41   H     H_    0.059159 0.625632 0.124731 0.138714
H42   H     H_    0.064001 0.623026 0.880541 0.139759
H43   H     H_    0.920450 0.387461 0.119064 0.137404
H44   H     H_    0.916749 0.389647 0.877598 0.139146
H45   H     H_    0.558999 0.125703 0.124744 0.138706
H46   H     H_    0.563854 0.123098 0.880538 0.139742
H47   H     H_    0.420593 0.887365 0.119064 0.137390
H48   H     H_    0.416884 0.889551 0.877591 0.139141
H49   H     H_    0.940138 0.623865 0.121265 0.137418
H50   H     H_    0.944964 0.626150 0.876877 0.137763
H51   H     H_    0.859349 0.486013 0.125711 0.132715
H52   H     H_    0.859066 0.490129 0.878549 0.131219
H53   H     H_    0.439979 0.123793 0.121253 0.137416
H54   H     H_    0.444811 0.126089 0.876882 0.137765
H55   H     H_    0.359364 0.985847 0.125710 0.132715
H56   H     H_    0.359077 0.989970 0.878552 0.131214
H57   H     H_    0.142750 0.490672 0.118480 0.130436
H58   H     H_    0.142780 0.482694 0.873438 0.127679
H59   H     H_    0.085534 0.389399 0.121992 0.141095
H60   H     H_    0.079462 0.385778 0.880193 0.135363
H61   H     H_    0.642767 0.990834 0.118487 0.130423
H62   H     H_    0.642803 0.982846 0.873436 0.127673
H63   H     H_    0.585673 0.889495 0.121990 0.141117
H64   H     H_    0.579599 0.885862 0.880202 0.135356
N1    N     N_3   0.001260 0.500000 0.143650 -0.112994
N2    N     N_3   0.001260 0.500000 0.856350 -0.112116
N3    N     N_3   0.501260 1.000000 0.143650 -0.112989
N4    N     N_3   0.501260 0.000000 0.856350 -0.112114
O1    O     O_R   0.091250 0.408820 0.620260 -0.600916
O2    O     O_R   0.091250 0.408820 0.379740 -0.602804
O3    O     O_R   0.091250 0.591180 0.620260 -0.601430
O4    O     O_R   0.091250 0.591180 0.379740 -0.599609
O5    O     O_R   0.591250 0.908820 0.620260 -0.600915
O6    O     O_R   0.591250 0.908820 0.379740 -0.602804
O7    O     O_R   0.591250 0.091180 0.620260 -0.601425
O8    O     O_R   0.591250 0.091180 0.379740 -0.599602
O9    O     O_R   0.908940 0.408800 0.620260 -0.598994
O10   O     O_R   0.908940 0.408800 0.379740 -0.595243
O11   O     O_R   0.908940 0.591200 0.620260 -0.593890
O12   O     O_R   0.908940 0.591200 0.379740 -0.597817
O13   O     O_R   0.408940 0.908800 0.620260 -0.598995
O14   O     O_R   0.408940 0.908800 0.379740 -0.595243
O15   O     O_R   0.408940 0.091200 0.620260 -0.593896
O16   O     O_R   0.408940 0.091200 0.379740 -0.597820
N5    N     N_3   0.270022 0.634885 0.730984 -0.630849
H65   H     H_    0.225787 0.584407 0.748003 0.224781
H66   H     H_    0.326053 0.613099 0.675293 0.266182
N6    N     N_3   0.309194 0.579321 0.424450 -0.617212
H67   H     H_    0.359550 0.568161 0.349162 0.216371
H68   H     H_    0.259191 0.534789 0.402306 0.223220
N7    N     N_3   0.305638 0.419688 0.595340 -0.620291
H69   H     H_    0.357652 0.426689 0.668692 0.216267
H70   H     H_    0.256318 0.462686 0.628551 0.220700
N8    N     N_3   0.278554 0.370960 0.281332 -0.630856
H71   H     H_    0.235325 0.422608 0.269697 0.220413
H72   H     H_    0.333333 0.389496 0.342731 0.264990
N9    N     N_3   0.770041 0.134882 0.730957 -0.630830
H73   H     H_    0.725814 0.084394 0.747945 0.224776
H74   H     H_    0.826078 0.113112 0.675259 0.266173
N10   N     N_3   0.809186 0.079321 0.424416 -0.617216
H75   H     H_    0.859550 0.068170 0.349137 0.216371
H76   H     H_    0.759184 0.034793 0.402241 0.223215
N11   N     N_3   0.805645 0.919690 0.595308 -0.620292
H77   H     H_    0.857654 0.926701 0.668663 0.216270
H78   H     H_    0.756324 0.962691 0.628495 0.220708
N12   N     N_3   0.778538 0.870952 0.281305 -0.630874
H79   H     H_    0.735303 0.922593 0.269643 0.220408
H80   H     H_    0.833309 0.889501 0.342700 0.265007

loop_
_geom_bond_atom_site_label_1
_geom_bond_atom_site_label_2
_ccdc_geom_bond_type
C16   C28   S    
C41   H33   S    
Cu3   Cu4   S    
C17   H13   S    
C31   H29   S    
C29   C33   S    
C3    O6    A    
C51   N3    S    
C7    H61   S    
C19   H15   S    
N7    H69   S    
Cu1   O11   S    
C52   H56   S    
C13   C25   S    
C14   C33   S    
C28   N12   S    
C7    C8    S    
C4    O8    A    
C13   H9    S    
C45   C46   S    
C29   H25   S    
Cu2   O2    S    
C26   H22   S    
Cu3   O15   S    
C37   C41   S    
C25   H21   S    
C32   C36   S    
N10   H75   S    
N7    H70   S    
C11   O14   A    
C1    O1    A    
C38   C42   S    
C27   H23   S    
C19   C36   S    
N5    H66   S    
C49   H45   S    
C5    C6    S    
Cu4   O16   S    
C26   C39   S    
C47   N1    S    
C13   H1    S    
C28   C40   S    
C27   N11   S    
Cu2   O10   S    
C21   H17   S    
C50   H54   S    
C43   H38   S    
C47   H43   S    
C42   H35   S    
C16   H4    S    
C30   H27   S    
C20   H16   S    
C6    H58   S    
Cu1   O3    S    
C17   H5    S    
C26   N10   S    
C20   C24   S    
C19   H7    S    
Cu3   O5    S    
C47   C48   S    
C24   C38   S    
C12   O16   A    
C16   H12   S    
C12   C36   S    
C18   C35   S    
C15   C34   S    
Cu1   O1    S    
C16   C34   S    
C2    O3    A    
C22   C37   S    
C41   H34   S    
C46   H42   S    
Cu2   O12   S    
C31   H30   S    
C18   C22   S    
C5    H59   S    
C9    C33   S    
C30   C44   S    
C14   H2    S    
C45   H49   S    
C4    O7    A    
N12   H80   S    
C48   H44   S    
C30   C34   S    
C25   N9    S    
C51   C52   S    
Cu4   N3    S    
C7    H63   S    
C22   H18   S    
Cu1   O9    S    
C1    O2    A    
N6    H68   S    
C23   H19   S    
C24   H20   S    
C39   C43   S    
C45   N1    S    
Cu1   Cu2   S    
C32   H31   S    
C23   N7    S    
C17   C21   S    
C20   H8    S    
C19   C23   S    
C13   C33   S    
C44   H40   S    
N8    H72   S    
Cu4   O14   S    
C15   C27   S    
N11   H77   S    
C4    C39   S    
C27   C40   S    
C10   O12   A    
C15   H11   S    
N11   H78   S    
C14   H10   S    
C12   O15   A    
C50   N4    S    
C9    O9    A    
C10   C34   S    
C8    H62   S    
C14   C26   S    
C6    H60   S    
Cu4   O8    S    
C24   N8    S    
C1    C38   S    
C29   C43   S    
Cu2   N1    S    
C3    C40   S    
C50   H46   S    
Cu3   O7    S    
C31   C35   S    
N9    H74   S    
C6    N2    S    
C8    H64   S    
C49   H53   S    
N12   H79   S    
Cu3   N4    S    
C52   H48   S    
C5    N1    S    
C51   H55   S    
C31   C41   S    
C5    H57   S    
C3    O5    A    
C15   H3    S    
C8    N4    S    
C7    N3    S    
N6    H67   S    
C23   C38   S    
C47   H51   S    
C18   H14   S    
Cu3   O13   S    
Cu1   N2    S    
N10   H76   S    
C11   O13   A    
C21   N5    S    
C10   O11   A    
C44   H39   S    
C45   H41   S    
N5    H65   S    
C9    O10   A    
C48   N2    S    
C52   N4    S    
C2    C37   S    
C48   H52   S    
Cu2   O4    S    
C46   H50   S    
C11   C35   S    
C43   H37   S    
C42   H36   S    
C30   H28   S    
C28   H24   S    
Cu4   O6    S    
C20   C36   S    
C40   C44   S    
C21   C37   S    
C29   H26   S    
C49   N3    S    
C49   C50   S    
C22   N6    S    
C32   C42   S    
N8    H71   S    
C46   N2    S    
C18   H6    S    
C17   C35   S    
N9    H73   S    
C51   H47   S    
C25   C39   S    
C2    O4    A    
C32   H32   S    
