data_mof_unit_8496.cif
_audit_creation_date              2012-12-11T15:39:22-0500
_audit_creation_method            fapswitch 2.2
_symmetry_space_group_name_H-M    P1
_symmetry_Int_Tables_number       1
_space_group_crystal_system       triclinic
_cell_length_a                    14.29762
_cell_length_b                    14.805534
_cell_length_c                    33.278819
_cell_angle_alpha                 98.068978
_cell_angle_beta                  90.366698
_cell_angle_gamma                 118.711576
_cell_volume                      6095.13267773

loop_
_atom_site_label
_atom_site_type_symbol
_atom_type_description
_atom_site_fract_x
_atom_site_fract_y
_atom_site_fract_z
_atom_type_partial_charge
C1    C     C_R   0.616530 0.910584 0.436792 0.540690
C2    C     C_R   0.711797 0.436273 0.949409 0.571227
C3    C     C_R   0.546467 0.756498 0.764600 -0.069075
C4    C     C_R   0.552645 0.771097 0.724083 -0.158694
C5    C     C_R   0.640501 0.778509 0.703232 0.033822
C6    C     C_R   0.720299 0.765917 0.722483 0.304111
C7    C     C_R   0.714045 0.752448 0.763518 -0.015246
C8    C     C_R   0.627988 0.748848 0.784574 0.063495
C9    C     C_R   0.569459 0.731585 0.631068 -0.106107
C10   C     C_R   0.560492 0.761476 0.593658 0.273805
C11   C     C_R   0.718231 0.930309 0.616484 -0.184836
C12   C     C_3   0.953071 0.386357 0.175207 -0.106270
C13   C     C_R   0.710168 0.739510 0.950338 0.570209
C14   C     C_3   0.863758 0.263820 0.437187 -0.057481
C15   C     C_3   0.158889 0.039160 0.420362 -0.106168
C16   C     C_3   0.116699 0.078761 0.186950 -0.125617
C17   C     C_3   0.473351 0.721679 0.075451 -0.095850
C18   C     C_3   0.901542 0.312998 0.341560 -0.112771
C19   C     C_3   0.403163 0.287235 0.632792 -0.105118
C20   C     C_3   0.670896 0.108257 0.200491 -0.074365
C21   C     C_3   0.807157 0.678285 0.696868 -0.107273
C22   C     C_3   0.379650 0.662491 0.576793 -0.090131
C23   C     C_R   0.794186 0.366119 0.151314 0.334606
C24   C     C_R   0.790531 0.389499 0.112014 0.235109
C25   C     C_R   0.688226 0.266490 0.230008 0.314389
C26   C     C_R   0.673114 0.248471 0.270399 -0.134105
C27   C     C_R   0.714345 0.332348 0.302792 -0.005914
C28   C     C_R   0.772847 0.434745 0.295369 -0.095235
C29   C     C_R   0.784781 0.453688 0.255490 -0.190546
C30   C     C_R   0.740148 0.370312 0.222850 0.058107
C31   C     C_R   0.739599 0.393512 0.181523 0.029475
C32   C     C_R   0.582689 0.269710 0.352944 -0.184731
C33   C     C_R   0.593849 0.204854 0.456478 0.578434
C34   C     C_R   0.553545 0.243414 0.390985 -0.187369
C35   C     C_R   0.740021 0.304822 0.413214 0.292799
C36   C     C_R   0.769851 0.331913 0.374472 0.301794
C37   C     C_R   0.689646 0.311978 0.344185 -0.012582
C38   C     C_R   0.630768 0.257636 0.420947 -0.007707
C39   C     C_R   0.242187 0.876748 0.393030 0.024702
C40   C     C_R   0.234385 0.960651 0.379970 0.220837
C41   C     C_R   0.214587 0.958749 0.338545 -0.105045
C42   C     C_R   0.724704 0.900090 0.653811 -0.095423
C43   C     C_R   0.196837 0.872715 0.309998 -0.056454
C44   C     C_R   0.192177 0.785027 0.322814 -0.100483
C45   C     C_R   0.294924 0.892347 0.434253 0.572047
C46   C     C_R   0.213774 0.785666 0.363934 0.192629
C47   C     C_R   0.200595 0.811800 0.162276 -0.169380
C48   C     C_R   0.172404 0.790609 0.120518 -0.134261
C49   C     C_R   0.088490 0.899791 0.129816 -0.113004
C50   C     C_R   0.118046 0.922837 0.172048 0.291342
C51   C     C_R   0.169046 0.873347 0.188166 0.054554
C52   C     C_1   0.180400 0.876893 0.231372 0.031813
C53   C     C_R   0.647931 0.802151 0.661651 0.017951
C54   C     C_1   0.187481 0.875797 0.267318 -0.012291
C55   C     C_R   0.111621 0.830306 0.104190 -0.013393
C56   C     C_R   0.635570 0.880853 0.394691 0.018258
C57   C     C_R   0.614169 0.904995 0.551539 0.561292
C58   C     C_R   0.549439 0.805289 0.367194 -0.119195
C59   C     C_R   0.560539 0.795923 0.325380 -0.110225
C60   C     C_R   0.657802 0.861337 0.310731 0.034927
C61   C     C_R   0.745864 0.931769 0.337970 -0.119564
C62   C     C_R   0.735020 0.941352 0.379747 -0.132674
C63   C     C_R   0.779625 0.922528 0.174466 -0.132267
C64   C     C_R   0.634140 0.863287 0.586627 0.029334
C65   C     C_R   0.795328 0.906872 0.133300 -0.154322
C66   C     C_R   0.612904 0.762854 0.120146 0.262020
C67   C     C_R   0.598577 0.778333 0.161608 -0.092463
C68   C     C_R   0.682728 0.855677 0.188834 -0.024886
C69   C     C_R   0.589804 0.199453 0.571042 0.571203
C70   C     C_1   0.673056 0.859451 0.231786 -0.033294
C71   C     C_1   0.665888 0.860162 0.267781 -0.028913
C72   C     C_R   0.714495 0.823409 0.106144 0.024417
C73   C     C_R   0.622640 0.247374 0.614456 0.038021
C74   C     C_R   0.568105 0.293626 0.636717 0.271309
C75   C     C_R   0.052479 0.781591 0.063715 0.542791
C76   C     C_R   0.586384 0.317030 0.679637 -0.107658
C77   C     C_R   0.653876 0.290931 0.699825 -0.008595
C78   C     C_R   0.711556 0.250525 0.677672 -0.138101
C79   C     C_R   0.697059 0.229985 0.635350 -0.181701
C80   C     C_R   0.750407 0.322584 0.845772 -0.063470
C81   C     C_R   0.289433 0.887322 0.548632 0.533161
C82   C     C_R   0.762168 0.350309 0.888201 0.234304
C83   C     C_R   0.593516 0.352904 0.885201 -0.141355
C84   C     C_R   0.582342 0.324449 0.843035 -0.083464
C85   C     C_R   0.663247 0.314437 0.823187 0.001845
C86   C     C_R   0.743371 0.485042 0.065559 0.580316
C87   C     C_1   0.660918 0.304787 0.779700 0.015510
C88   C     C_1   0.658754 0.299273 0.743300 0.005544
C89   C     C_R   0.686531 0.372764 0.908174 0.027602
C90   C     C_R   0.064981 0.751088 0.908075 0.031661
C91   C     C_R   0.122137 0.852805 0.898633 0.240122
C92   C     C_R   0.140196 0.866301 0.858210 -0.015419
C93   C     C_R   0.736023 0.444007 0.103744 -0.012394
C94   C     C_R   0.100015 0.779414 0.827130 0.011434
C95   C     C_R   0.049618 0.678641 0.836928 -0.131931
C96   C     C_R   0.032733 0.664568 0.877142 -0.150586
C97   C     C_R   0.742680 0.789718 0.066281 0.551559
C98   C     C_R   0.156106 0.743427 0.759657 -0.149317
C99   C     C_R   0.163772 0.751705 0.718659 -0.131019
C100  C     C_R   0.124294 0.809214 0.701411 -0.021969
C101  C     C_R   0.076597 0.858140 0.725794 -0.069932
C102  C     C_R   0.068275 0.849847 0.767029 0.239231
C103  C     C_R   0.109178 0.792672 0.784223 0.028900
C104  C     C_R   0.184662 0.925150 0.648909 -0.112140
C105  C     C_R   0.681094 0.469193 0.134145 -0.175968
C106  C     C_R   0.225141 0.944335 0.611246 -0.126887
C107  C     C_R   0.171227 0.760846 0.591751 -0.128742
C108  C     C_R   0.022209 0.732229 0.947677 0.569000
C109  C     C_R   0.130072 0.741574 0.629245 -0.121259
C110  C     C_R   0.141744 0.824516 0.658854 0.034737
C111  C     C_R   0.223862 0.863232 0.583339 0.023628
C112  C     C_R   0.663512 0.738979 0.910762 -0.052125
C113  C     C_R   0.621325 0.646802 0.882189 -0.139353
C114  C     C_R   0.604220 0.648497 0.841133 0.200037
C115  C     C_R   0.627494 0.742914 0.828248 -0.001301
C116  C     C_R   0.660776 0.834133 0.857161 0.248117
C117  C     C_R   0.682936 0.444216 0.172609 -0.178522
C118  C     C_R   0.678810 0.832209 0.898516 0.258368
Cl1   Cl    Cl    0.205980 0.670444 0.376399 -0.585592
Cl2   Cl    Cl    0.852506 0.347421 0.073725 -0.484691
Cl3   Cl    Cl    0.874944 0.359422 0.914213 -0.482184
Cl4   Cl    Cl    0.171013 0.964770 0.936345 -0.515392
Cl5   Cl    Cl    0.002658 0.908760 0.795497 -0.573654
Cl6   Cl    Cl    0.723080 0.947277 0.934616 -0.406113
Cl7   Cl    Cl    0.560277 0.532269 0.806085 -0.660617
Cl8   Cl    Cl    0.687693 0.952812 0.841285 -0.466969
Cr1   Cr    Cr6+3 0.424820 0.846020 0.489780 1.083001
Cr2   Cr    Cr6+3 0.657880 0.078580 0.505700 1.011779
Cr3   Cr    Cr6+3 0.417280 0.075360 0.504550 1.060836
Cr4   Cr    Cr6+3 0.903360 0.812540 0.006510 1.127624
Cr5   Cr    Cr6+3 0.914630 0.587050 0.006280 1.139345
Cr6   Cr    Cr6+3 0.673560 0.582680 0.008540 1.076417
H1    H     H_    0.639434 0.511643 0.128607 0.169086
H2    H     H_    0.821664 0.982238 0.326852 0.106855
H3    H     H_    0.802829 0.000219 0.400120 0.113473
H4    H     H_    0.471658 0.758155 0.377674 0.173661
H5    H     H_    0.523054 0.727005 0.172696 0.127489
H6    H     H_    0.492088 0.740792 0.304428 0.124562
H7    H     H_    0.811624 0.311713 0.830300 0.160296
H8    H     H_    0.764750 0.231044 0.693157 0.132734
H9    H     H_    0.739255 0.193859 0.619173 0.140125
H10   H     H_    0.513480 0.316274 0.825735 0.181322
H11   H     H_    0.532876 0.367376 0.899285 0.164859
H12   H     H_    0.469357 0.206157 0.396105 0.193238
H13   H     H_    0.546125 0.352785 0.697452 0.133846
H14   H     H_    0.987861 0.585719 0.883644 0.170932
H15   H     H_    0.094859 0.662888 0.636031 0.106741
H16   H     H_    0.626441 0.169725 0.276731 0.107889
H17   H     H_    0.203431 0.715489 0.700683 0.113876
H18   H     H_    0.188063 0.699437 0.772419 0.126421
H19   H     H_    0.183032 0.944454 0.850872 0.185811
H20   H     H_    0.045222 0.902157 0.712708 0.171682
H21   H     H_    0.194656 0.990402 0.671302 0.111520
H22   H     H_    0.264595 0.023857 0.605296 0.124568
H23   H     H_    0.191274 0.736938 0.101447 0.145467
H24   H     H_    0.019172 0.610764 0.813231 0.129425
H25   H     H_    0.167388 0.696643 0.570345 0.126088
H26   H     H_    0.609599 0.574769 0.891217 0.166831
H27   H     H_    0.785805 0.955310 0.677423 0.157933
H28   H     H_    0.490403 0.779757 0.709233 0.113763
H29   H     H_    0.479753 0.753757 0.780687 0.143685
H30   H     H_    0.777217 0.747259 0.779360 0.173394
H31   H     H_    0.512832 0.654550 0.636983 0.117163
H32   H     H_    0.640697 0.465355 0.195732 0.137368
H33   H     H_    0.775138 0.008700 0.612058 0.134238
H34   H     H_    0.241281 0.774812 0.174668 0.115223
H35   H     H_    0.804858 0.499793 0.320319 0.161757
H36   H     H_    0.825791 0.533590 0.249917 0.121616
H37   H     H_    0.521084 0.254921 0.329813 0.143916
H38   H     H_    0.996816 0.438344 0.152883 0.150551
H39   H     H_    0.954723 0.433710 0.204559 0.096752
H40   H     H_    0.996272 0.343662 0.181229 0.142913
H41   H     H_    0.809891 0.186000 0.418569 0.095648
H42   H     H_    0.884457 0.249304 0.466930 0.131957
H43   H     H_    0.939518 0.304173 0.422685 0.150748
H44   H     H_    0.118247 0.970651 0.436391 0.119346
H45   H     H_    0.175008 0.716907 0.300574 0.151096
H46   H     H_    0.104715 0.033084 0.394711 0.106520
H47   H     H_    0.176153 0.109855 0.442456 0.139815
H48   H     H_    0.061291 0.071974 0.161750 0.114648
H49   H     H_    0.200882 0.116255 0.178486 0.131426
H50   H     H_    0.112373 0.131265 0.213260 0.140236
H51   H     H_    0.525000 0.779984 0.056393 0.134993
H52   H     H_    0.438062 0.756594 0.098205 0.109330
H53   H     H_    0.406400 0.656573 0.054977 0.161203
H54   H     H_    0.852128 0.229507 0.345167 0.067555
H55   H     H_    0.986404 0.335179 0.348884 0.154311
H56   H     H_    0.038923 0.928121 0.117699 0.126580
H57   H     H_    0.893732 0.321504 0.309314 0.136423
H58   H     H_    0.409951 0.347456 0.658402 0.124445
H59   H     H_    0.371819 0.209818 0.642837 0.100203
H60   H     H_    0.343482 0.279528 0.609198 0.145040
H61   H     H_    0.620153 0.054967 0.221205 0.099778
H62   H     H_    0.757377 0.142311 0.210523 0.124738
H63   H     H_    0.656613 0.060345 0.169996 0.171648
H64   H     H_    0.728031 0.612006 0.683635 0.131106
H65   H     H_    0.831227 0.664016 0.726138 0.133330
H66   H     H_    0.867090 0.681440 0.675293 0.150300
H67   H     H_    0.216058 0.026122 0.328672 0.140836
H68   H     H_    0.373780 0.731009 0.592513 0.116722
H69   H     H_    0.357009 0.602461 0.596850 0.097655
H70   H     H_    0.320412 0.627347 0.549803 0.155992
H71   H     H_    0.873474 0.955251 0.123407 0.142689
H72   H     H_    0.845044 0.983055 0.195406 0.137996
O1    O     O_R   0.318160 0.824460 0.443680 -0.452404
O2    O     O_R   0.668160 0.499860 0.053480 -0.499022
O3    O     O_R   0.689170 0.693840 0.050110 -0.454604
O4    O     O_R   0.525040 0.857250 0.449830 -0.488799
O5    O     O_R   0.803860 0.812940 0.962540 -0.435610
O6    O     O_R   0.982950 0.787950 0.964120 -0.449041
O7    O     O_R   0.007050 0.649970 0.960540 -0.495948
O8    O     O_R   0.807910 0.482370 0.965590 -0.435168
O9    O     O_R   0.643310 0.460980 0.963840 -0.521586
O10   O     O_R   0.666140 0.657800 0.967020 -0.514326
O11   O     O_3   0.830520 0.660760 0.007110 -0.297984
O12   O     O_R   0.645130 0.163230 0.552140 -0.515706
O13   O     O_R   0.684760 0.998800 0.456360 -0.533055
O14   O     O_R   0.647540 0.166310 0.470260 -0.478277
O15   O     O_R   0.500960 0.181750 0.467450 -0.493008
O16   O     O_R   0.331100 0.981120 0.457080 -0.461703
O17   O     O_R   0.315560 0.821140 0.532010 -0.521446
O18   O     O_R   0.522630 0.854180 0.531710 -0.448045
O19   O     O_R   0.682160 0.995480 0.544690 -0.534388
O20   O     O_3   0.847375 0.312825 0.159623 -0.516841
O21   O     O_3   0.816883 0.329027 0.444512 -0.530280
O22   O     O_3   0.256347 0.049896 0.406794 -0.554517
O23   O     O_R   0.498360 0.178430 0.555780 -0.462511
O24   O     O_3   0.084690 0.980667 0.198638 -0.570352
O25   O     O_3   0.530276 0.681405 0.094509 -0.553195
O26   O     O_3   0.877350 0.381840 0.367565 -0.522575
O27   O     O_3   0.502132 0.319205 0.615637 -0.543103
O28   O     O_3   0.641569 0.185601 0.197164 -0.535473
O29   O     O_3   0.807253 0.774565 0.701821 -0.559369
O30   O     O_3   0.482270 0.691021 0.563374 -0.540224
O31   O     O_R   0.328690 0.978040 0.538950 -0.511295
O32   O     O_3   0.499990 0.999990 0.500010 -0.269408
O33   O     O_R   0.828710 0.851830 0.052170 -0.511814
O34   O     O_R   0.005980 0.823990 0.047210 -0.496107
O35   O     O_R   0.031900 0.688850 0.050170 -0.501865
O36   O     O_R   0.830940 0.518420 0.048680 -0.450782

loop_
_geom_bond_atom_site_label_1
_geom_bond_atom_site_label_2
_ccdc_geom_bond_type
Cr2   O32   S    
C48   C55   A    
C112  C118  A    
C87   C88   T    
C63   C65   A    
C18   H57   S    
Cr6   O2    S    
C101  C102  A    
C20   O28   S    
C15   H47   S    
C107  C109  A    
C73   C74   A    
C75   O35   A    
C95   C96   A    
C21   H66   S    
C41   H67   S    
C86   O2    A    
C104  C106  A    
C114  C115  A    
C7    C8    A    
C25   O28   S    
C4    H28   S    
C77   C78   A    
C100  C110  S    
C99   H17   S    
C66   O25   S    
C34   H12   S    
Cr1   O32   S    
C29   C30   A    
C82   C89   A    
C74   C76   A    
C15   H44   S    
Cr3   O31   S    
C83   C84   A    
C29   H36   S    
C5    C53   S    
C28   C29   A    
C1    C56   S    
C14   H41   S    
C42   C53   A    
C57   O19   A    
C5    C6    A    
C16   H50   S    
C98   C103  A    
C18   H55   S    
C11   C42   A    
C16   O24   S    
C95   H24   S    
C9    H31   S    
C1    O4    A    
C12   O20   S    
C28   H35   S    
C93   C105  A    
C22   O30   S    
C50   O24   S    
C31   C117  A    
C81   C111  S    
C77   C88   S    
C17   H53   S    
C106  H22   S    
C91   Cl4   S    
C86   O36   A    
C23   C24   A    
C81   O31   A    
C69   C73   S    
C70   C71   T    
C113  H26   S    
C83   H11   S    
C9    C10   A    
Cr5   O36   S    
C20   H63   S    
C8    C115  S    
C19   H60   S    
C57   O18   A    
C55   C75   S    
C62   H3    S    
C33   O15   A    
C66   C67   A    
C59   C60   A    
C116  Cl8   S    
C41   C43   A    
C105  C117  A    
C109  H15   S    
C69   O12   A    
C69   O23   A    
Cr2   O19   S    
C20   H62   S    
C112  C113  A    
C107  H25   S    
C52   C54   T    
C61   H2    S    
C12   H39   S    
C72   C97   S    
C85   C87   S    
C117  H32   S    
C73   C79   A    
C83   C89   A    
C7    H30   S    
C66   C72   A    
C10   O30   S    
C24   Cl2   S    
C63   H72   S    
C22   H70   S    
Cr3   O32   S    
Cr5   O11   S    
C102  C103  A    
C13   O5    A    
C35   C38   A    
C84   C85   A    
C42   H27   S    
Cr4   O34   S    
C11   C64   A    
C18   O26   S    
Cr5   O35   S    
C91   C92   A    
C47   H34   S    
C17   O25   S    
C16   H49   S    
C34   C38   A    
C12   H38   S    
C44   C46   A    
C60   C71   S    
C58   H4    S    
C25   C26   A    
C33   O14   A    
C39   C45   S    
C18   H54   S    
C3    C4    A    
C67   C68   A    
C60   C61   A    
C35   C36   A    
C23   C31   A    
C13   O10   A    
C2    C89   S    
Cr1   O4    S    
Cr3   O16   S    
C80   C85   A    
C86   C93   S    
C17   H51   S    
C43   C54   S    
C108  O6    A    
C47   C48   A    
C65   H71   S    
C84   H10   S    
C30   C31   S    
Cr3   O23   S    
C92   H19   S    
C92   C94   A    
C50   C51   A    
C26   C27   A    
Cr4   O11   S    
Cr6   O11   S    
C118  Cl6   S    
C32   C37   A    
C97   O3    A    
C26   H16   S    
C3    H29   S    
C14   O21   S    
C39   C46   A    
C80   C82   A    
C40   C41   A    
C6    O29   S    
Cr2   O12   S    
C76   H13   S    
C3    C8    A    
C94   C95   A    
C43   C44   A    
Cr5   O7    S    
C104  H21   S    
C49   C50   A    
C56   C62   A    
Cr4   O6    S    
C9    C53   A    
C102  Cl5   S    
C65   C72   A    
Cr2   O14   S    
C20   H61   S    
C39   C40   A    
C108  O7    A    
C96   H14   S    
C12   H40   S    
C57   C64   S    
C105  H1    S    
C113  C114  A    
C98   H18   S    
C22   H68   S    
C25   C30   A    
C114  Cl7   S    
C14   H43   S    
C63   C68   A    
C36   C37   A    
C45   O1    A    
C82   Cl3   S    
C22   H69   S    
C35   O21   S    
C107  C111  A    
C48   H23   S    
C10   C64   A    
C2    O9    A    
C116  C118  A    
C21   H65   S    
C74   O27   S    
C75   O34   A    
C78   H8    S    
C44   H45   S    
C94   C103  S    
C47   C51   A    
C90   C96   A    
C6    C7    A    
C14   H42   S    
C13   C112  S    
C80   H7    S    
C97   O33   A    
C101  H20   S    
C2    O8    A    
C33   C38   S    
C59   H6    S    
C99   C100  A    
C106  C111  A    
C45   O16   A    
C21   O29   S    
Cr1   O1    S    
C90   C108  S    
C51   C52   S    
Cr3   O15   S    
C49   C55   A    
C24   C93   A    
C104  C110  A    
C76   C77   A    
C78   C79   A    
C17   H52   S    
C90   C91   A    
C79   H9    S    
C49   H56   S    
C81   O17   A    
C27   C37   S    
Cr4   O33   S    
C100  C101  A    
C56   C58   A    
C46   Cl1   S    
C21   H64   S    
C40   O22   S    
C61   C62   A    
C67   H5    S    
C58   C59   A    
Cr1   O18   S    
Cr1   O17   S    
C19   H58   S    
C16   H48   S    
C15   O22   S    
C4    C5    A    
Cr6   O10   S    
C23   O20   S    
C32   H37   S    
C36   O26   S    
C98   C99   A    
C15   H46   S    
C19   H59   S    
Cr5   O8    S    
C11   H33   S    
C68   C70   S    
Cr6   O3    S    
Cr4   O5    S    
C1    O13   A    
Cr6   O9    S    
C109  C110  A    
C19   O27   S    
Cr2   O13   S    
C115  C116  A    
C32   C34   A    
C27   C28   A    
