data_mof_unit_19694.cif
_audit_creation_date              2013-03-05T15:42:49-0500
_audit_creation_method            fapswitch 2.2
_symmetry_space_group_name_H-M    P1
_symmetry_Int_Tables_number       1
_space_group_crystal_system       triclinic
_cell_length_a                    6.940542
_cell_length_b                    14.839256
_cell_length_c                    16.142327
_cell_angle_alpha                 90.375896
_cell_angle_beta                  90.208681
_cell_angle_gamma                 90.349835
_cell_volume                      1662.46024295

loop_
_atom_site_label
_atom_site_type_symbol
_atom_site_description
_atom_site_fract_x
_atom_site_fract_y
_atom_site_fract_z
_atom_type_partial_charge
O1    O     O_R   0.494400 0.416610 0.413880 -0.572135
O2    O     O_R   0.823920 0.406790 0.585520 -0.562199
O3    O     O_R   0.994250 0.583390 0.586120 -0.551248
C1    C     C_R   0.654282 0.384671 0.613314 0.920541
O4    O     O_R   0.824110 0.405730 0.414490 -0.571308
O5    O     O_R   0.994440 0.582310 0.413870 -0.565797
C2    C     C_R   0.654409 0.383772 0.386281 0.817022
O6    O     O_R   0.494210 0.417690 0.586130 -0.504383
O7    O     O_3   0.660810 0.557940 0.500000 -0.275227
V1    V     V_3+5 0.935650 0.489250 0.500000 1.168740
O8    O     O_R   0.324160 0.593210 0.414480 -0.571812
C3    C     C_R   0.155490 0.614953 0.386301 0.822768
O9    O     O_R   0.323970 0.594270 0.585510 -0.525051
C4    C     C_R   0.156592 0.612896 0.616810 0.880869
V2    V     V_3+5 0.435660 0.510750 0.500000 1.193576
O10   O     O_3   0.160630 0.442060 0.500000 -0.274216
H1    H     H_    0.046980 0.904599 0.493279 0.082603
C5    C     C_R   0.203273 0.567229 0.795805 0.339416
C6    C     C_R   0.183325 0.542431 0.878758 -0.041648
C7    C     C_R   0.138322 0.606046 0.938579 -0.122992
C8    C     C_R   0.118448 0.695772 0.916735 -0.065535
C9    C     C_R   0.131206 0.723220 0.833012 -0.013940
C10   C     C_R   0.162464 0.656944 0.770112 -0.049588
C11   C     C_R   0.111917 0.815324 0.812315 -0.109261
C12   C     C_R   0.095010 0.840721 0.727407 -0.017562
C13   C     C_R   0.115946 0.773465 0.664154 -0.021401
C14   C     C_R   0.150050 0.682005 0.684869 -0.114718
C15   C     C_R   0.054293 0.931192 0.702968 0.395371
C16   C     C_R   0.034193 0.952089 0.618611 -0.100639
C17   C     C_R   0.060898 0.887028 0.558015 -0.129275
C18   C     C_R   0.101586 0.799044 0.580060 -0.063995
H2    H     H_    0.213366 0.473998 0.897625 0.150093
H3    H     H_    0.126661 0.586396 0.002851 0.096900
H4    H     H_    0.089757 0.743037 0.966401 0.055336
H5    H     H_    0.994960 0.019402 0.599757 0.068812
H6    H     H_    0.119795 0.751177 0.529932 0.052471
C19   C     C_2   0.985275 0.709443 0.282855 -0.092650
C20   C     C_2   0.150339 0.682787 0.319522 -0.210262
H7    H     H_    0.849341 0.681045 0.303645 0.100990
H8    H     H_    0.287923 0.710616 0.300909 0.068968
C21   C     C_2   0.972852 0.776985 0.214912 -0.098799
C22   C     C_2   0.126084 0.814388 0.177016 -0.210245
H9    H     H_    0.828893 0.795883 0.195281 0.097054
H10   H     H_    0.271146 0.796051 0.194732 0.072544
C23   C     C_2   0.770117 0.238708 0.805596 0.330835
C24   C     C_2   0.620917 0.180105 0.816761 -0.205320
H11   H     H_    0.506021 0.175936 0.771338 0.006452
C25   C     C_2   0.787865 0.293312 0.728253 -0.149926
C26   C     C_2   0.636672 0.320394 0.682659 -0.217076
H12   H     H_    0.930075 0.317834 0.712010 0.179151
H13   H     H_    0.491772 0.301121 0.700391 0.137828
C27   C     C_2   0.779661 0.209621 0.214151 -0.077600
C28   C     C_2   0.614920 0.181942 0.177158 -0.189674
H14   H     H_    0.915611 0.181415 0.193705 0.104665
H15   H     H_    0.477435 0.209557 0.195504 0.069384
C29   C     C_2   0.791171 0.278089 0.282120 -0.095051
C30   C     C_2   0.637476 0.315622 0.319396 -0.206264
H16   H     H_    0.934999 0.297572 0.302357 0.098594
H17   H     H_    0.492391 0.296903 0.301126 0.071373
O11   O     O_R   0.770210 0.079270 0.910680 -0.512346
O12   O     O_R   0.440150 0.091160 0.082270 -0.563898
O13   O     O_R   0.269970 0.914530 0.082860 -0.569025
C31   C     C_R   0.609299 0.113282 0.110406 0.856929
O14   O     O_R   0.440480 0.090100 0.911240 -0.570376
O15   O     O_R   0.270310 0.913460 0.910610 -0.571999
C32   C     C_R   0.610246 0.113814 0.884861 0.902657
O16   O     O_R   0.769870 0.080340 0.082930 -0.552168
O17   O     O_3   0.603660 0.938980 0.996790 -0.288226
V3    V     V_3+5 0.328750 0.007610 0.996740 1.171217
O18   O     O_R   0.940600 0.902510 0.911180 -0.544684
C33   C     C_R   0.107749 0.883432 0.880613 0.891362
O19   O     O_R   0.940270 0.903570 0.082200 -0.572884
C34   C     C_R   0.109487 0.881880 0.110369 0.818234
V4    V     V_3+5 0.828770 0.986010 0.996670 1.188144
O20   O     O_3   0.103730 0.054750 0.996710 -0.248607
N1    N     N_R   0.915204 0.251824 0.868953 0.087426
O21   O     O_R   0.087142 0.279272 0.848896 -0.369749
O22   O     O_R   0.866473 0.253786 0.946740 -0.362801
N2    N     N_R   0.298952 0.505171 0.742793 0.060910
O23   O     O_R   0.221830 0.426608 0.728190 -0.375104
O24   O     O_R   0.482471 0.516920 0.730692 -0.380586
O25   O     O_3   0.012951 0.997074 0.761215 -0.666758
C35   C     C_3   0.148410 0.067951 0.755535 0.196728
H18   H     H_    0.111499 0.114005 0.703979 0.019696
H19   H     H_    0.298659 0.042836 0.748973 -0.003323
H20   H     H_    0.142417 0.107728 0.813630 0.153670

loop_
_geom_bond_atom_site_label_1
_geom_bond_atom_site_label_2
_geom_bond_distance
_ccdc_geom_bond_type
C21   C22   1.347337 D    
C6    C7    1.383842 A    
C1    O6    1.293384 A    
C23   C24   1.361420 D    
C12   C15   1.431293 A    
C13   C14   1.420964 A    
C16   C17   1.383608 A    
C23   N1    1.444076 S    
C15   C16   1.405200 A    
N1    O22   1.301800 A    
C24   C32   1.481728 S    
O5    C3    1.296897 A    
C17   C18   1.385958 A    
C30   H17   1.082342 S    
O17   V4    1.707286 S    
V2    O10   2.158464 S    
C29   C30   1.348225 D    
C5    C6    1.398155 A    
O12   C31   1.296819 A    
O8    V2    2.006960 S    
C5    N2    1.422177 S    
C26   H13   1.083872 S    
O18   V4    2.009793 S    
O13   C34   1.293214 A    
O18   C33   1.294531 A    
O1    V2    2.008960 S    
C10   C14   1.430178 A    
C4    C14   1.498958 S    
O7    V1    2.168279 S    
C25   H12   1.083566 S    
O11   C32   1.294404 A    
C13   C18   1.415265 A    
O9    C4    1.299067 A    
C3    C20   1.480182 S    
H1    C17   1.082797 S    
C21   H9    1.086114 S    
C22   H10   1.082473 S    
C6    H2    1.083348 S    
C27   H14   1.086155 S    
C28   H15   1.082317 S    
C31   O16   1.298111 A    
V4    O20   2.158379 S    
C15   O25   1.384017 S    
C5    C10   1.426744 A    
C11   C12   1.428476 A    
O19   V4    2.006889 S    
N2    O24   1.300185 A    
O17   V3    2.168286 S    
C8    H4    1.081598 S    
C12   C13   1.431507 A    
O15   C33   1.301170 A    
O13   V3    2.007312 S    
O14   C32   1.301549 A    
O2    C1    1.302423 A    
C19   C20   1.350167 D    
C35   H18   1.110551 S    
O16   V4    2.012700 S    
O14   V3    2.005736 S    
N1    O21   1.301307 A    
O3    C4    1.301443 A    
C7    H3    1.082729 S    
C25   C26   1.344523 D    
C35   H19   1.114719 S    
O6    V2    2.008259 S    
O9    V2    2.009813 S    
C9    C11   1.416140 A    
O2    V1    2.005688 S    
C27   C28   1.348597 D    
O4    C2    1.300085 A    
C23   C25   1.497889 S    
O12   V3    1.999804 S    
C24   H11   1.082543 S    
C22   C34   1.479326 S    
O1    C2    1.294845 A    
C9    C10   1.427007 A    
O19   C34   1.300907 A    
O5    V1    2.007231 S    
O8    C3    1.297738 A    
C16   H5    1.082238 S    
C1    C26   1.480323 S    
O7    V2    1.708486 S    
O4    V1    1.999682 S    
C19   H7    1.086105 S    
O3    V1    2.003245 S    
V1    O10   1.715212 S    
C20   H8    1.082389 S    
C28   C31   1.478329 S    
O15   V3    2.003241 S    
O11   V4    2.008760 S    
C29   H16   1.086121 S    
V3    O20   1.715158 S    
C19   C21   1.493208 S    
N2    O23   1.299637 A    
C35   H20   1.105854 S    
C7    C8    1.387162 A    
O25   C35   1.410079 S    
C18   H6    1.081486 S    
C8    C9    1.417000 A    
C2    C30   1.478359 S    
C27   C29   1.492046 S    
C11   C33   1.491217 S    
