data_mof_unit_31999.cif
_audit_creation_date              2012-12-11T14:08:43-0500
_audit_creation_method            fapswitch 2.2
_symmetry_space_group_name_H-M    P1
_symmetry_Int_Tables_number       1
_space_group_crystal_system       triclinic
_cell_length_a                    28.112426
_cell_length_b                    7.202581
_cell_length_c                    17.198204
_cell_angle_alpha                 90.000823
_cell_angle_beta                  101.699101
_cell_angle_gamma                 90.000062
_cell_volume                      3409.9852868

loop_
_atom_site_label
_atom_site_type_symbol
_atom_type_description
_atom_site_fract_x
_atom_site_fract_y
_atom_site_fract_z
_atom_type_partial_charge
O1    O     O_R   0.000700 0.436510 0.857920 -0.532964
O2    O     O_R   0.999300 0.563490 0.142080 -0.532562
O3    O     O_R   0.999300 0.936510 0.642080 -0.532968
O4    O     O_R   0.000700 0.063490 0.357920 -0.532559
O5    O     O_R   0.930080 0.766380 0.721890 -0.543548
O6    O     O_R   0.069920 0.233620 0.278110 -0.540448
O7    O     O_R   0.069920 0.266380 0.778110 -0.543545
O8    O     O_R   0.930080 0.733620 0.221890 -0.540484
C1    C     C_R   0.910518 0.597700 0.708906 0.707768
C2    C     C_R   0.089477 0.402377 0.290766 0.707769
C3    C     C_R   0.089482 0.097699 0.791088 0.707762
C4    C     C_R   0.910521 0.902376 0.209234 0.707786
O9    O     O_R   0.996180 0.766230 0.862310 -0.543175
O10   O     O_R   0.003820 0.233770 0.137690 -0.543826
O11   O     O_R   0.003820 0.266230 0.637690 -0.543182
O12   O     O_R   0.996180 0.733770 0.362310 -0.543826
O13   O     O_R   0.065870 0.936460 0.783500 -0.537807
O14   O     O_R   0.934130 0.063540 0.216500 -0.540290
O15   O     O_R   0.934130 0.436460 0.716500 -0.537795
O16   O     O_R   0.065870 0.563540 0.283500 -0.540274
C5    C     C_R   0.998484 0.596449 0.894468 0.760452
C6    C     C_R   0.001516 0.403551 0.105532 0.760366
C7    C     C_R   0.001516 0.096447 0.605533 0.760427
C8    C     C_R   0.998484 0.903552 0.394467 0.760389
O17   O     O_3   0.022790 0.603020 0.723980 -0.378192
O18   O     O_3   0.977210 0.396980 0.276020 -0.378285
O19   O     O_3   0.977210 0.103020 0.776020 -0.378173
O20   O     O_3   0.022790 0.896980 0.223980 -0.378254
V1    V     V_3+5 0.995770 0.877900 0.754830 1.413593
V2    V     V_3+5 0.004230 0.122100 0.245170 1.415300
V3    V     V_3+5 0.004230 0.377900 0.745170 1.413588
V4    V     V_3+5 0.995770 0.622100 0.254830 1.415265
C9    C     C_2   0.001700 0.082571 0.519564 -0.327593
C10   C     C_2   0.998299 0.917427 0.480436 -0.328451
C11   C     C_2   0.998300 0.582572 0.980437 -0.327588
C12   C     C_2   0.001701 0.417427 0.019563 -0.328439
H1    H     H_    0.004480 0.211249 0.487857 0.153722
H2    H     H_    0.995518 0.788749 0.512143 0.153502
H3    H     H_    0.995519 0.711250 0.012145 0.153721
H4    H     H_    0.004482 0.288748 0.987855 0.153503
C13   C     C_R   0.681578 0.895111 0.035027 0.576512
C14   C     C_R   0.316354 0.041764 0.974816 0.576527
C15   C     C_R   0.318425 0.395003 0.464942 0.576417
C16   C     C_R   0.683641 0.542024 0.525118 0.576541
O21   O     O_2   0.709998 0.836121 0.985489 -0.508824
O22   O     O_2   0.286188 0.037188 0.026623 -0.513699
O23   O     O_2   0.290015 0.335856 0.514466 -0.508791
O24   O     O_2   0.713802 0.537629 0.473302 -0.513698
N1    N     N_R   0.702094 0.940256 0.111848 -0.558478
N2    N     N_R   0.297571 0.057048 0.895113 -0.558122
N3    N     N_R   0.297899 0.440264 0.388140 -0.558506
N4    N     N_R   0.702427 0.557165 0.604825 -0.558092
C17   C     C_R   0.673979 0.997738 0.163702 0.581325
C18   C     C_R   0.327396 0.060372 0.841237 0.583028
C19   C     C_R   0.326002 0.497906 0.336297 0.581411
C20   C     C_R   0.672604 0.560295 0.658707 0.582991
C21   C     C_R   0.782847 0.092536 0.135353 0.225496
C22   C     C_R   0.222572 0.242321 0.849445 0.236956
C23   C     C_R   0.217126 0.592296 0.365105 0.225178
C24   C     C_R   0.777416 0.742317 0.650857 0.236867
C25   C     C_R   0.833493 0.081762 0.159172 -0.153092
C26   C     C_R   0.171907 0.250792 0.824273 -0.152606
C27   C     C_R   0.166479 0.581519 0.341290 -0.153137
C28   C     C_R   0.828080 0.750742 0.676036 -0.152689
C29   C     C_R   0.827567 0.753620 0.186462 -0.180060
C30   C     C_R   0.166967 0.916441 0.835102 -0.185701
C31   C     C_R   0.172447 0.253869 0.313085 -0.180130
C32   C     C_R   0.833052 0.416555 0.664508 -0.185757
C33   C     C_R   0.776934 0.764123 0.163358 -0.092902
C34   C     C_R   0.217426 0.907579 0.860441 -0.113543
C35   C     C_R   0.223080 0.264372 0.336190 -0.092690
C36   C     C_R   0.782594 0.407728 0.639148 -0.113192
C37   C     C_R   0.754207 0.932616 0.137583 0.330937
C38   C     C_R   0.245622 0.069241 0.867669 0.334475
C39   C     C_R   0.245786 0.432625 0.362423 0.331019
C40   C     C_R   0.754379 0.569326 0.632272 0.334366
C41   C     C_R   0.601655 0.974772 0.059093 -0.049005
C42   C     C_R   0.398259 0.037333 0.948673 -0.050964
C43   C     C_R   0.398339 0.474810 0.440875 -0.048994
C44   C     C_R   0.601738 0.537416 0.551270 -0.050971
C45   C     C_R   0.631095 0.912233 0.007142 -0.020494
C46   C     C_R   0.366967 0.032107 0.003071 -0.020895
C47   C     C_R   0.368908 0.412164 0.492821 -0.020489
C48   C     C_R   0.633026 0.532322 0.496866 -0.020897
C49   C     C_R   0.609464 0.867248 0.928811 -0.125332
C50   C     C_R   0.386854 0.014631 0.084182 -0.121617
C51   C     C_R   0.390547 0.367114 0.571139 -0.125339
C52   C     C_R   0.613136 0.514920 0.415753 -0.121594
C53   C     C_R   0.623237 0.015760 0.138290 -0.092261
C54   C     C_R   0.378254 0.050807 0.867034 -0.089869
C55   C     C_R   0.376746 0.515904 0.361694 -0.092283
C56   C     C_R   0.621745 0.550760 0.632911 -0.089833
C57   C     C_R   0.856580 0.912432 0.184760 -0.118217
C58   C     C_R   0.143404 0.088251 0.816772 -0.113785
C59   C     C_R   0.143415 0.412434 0.315247 -0.118113
C60   C     C_R   0.856598 0.588267 0.683200 -0.113804
H5    H     H_    0.843889 0.621012 0.205922 0.152984
H6    H     H_    0.146470 0.788235 0.830456 0.148000
H7    H     H_    0.156137 0.121474 0.293244 0.152867
H8    H     H_    0.853564 0.288413 0.668872 0.147950
C61   C     C_R   0.480446 0.016555 0.920433 -0.006896
C62   C     C_R   0.520701 0.043803 0.085923 -0.009747
C63   C     C_R   0.519554 0.516544 0.579517 -0.006895
C64   C     C_R   0.479287 0.543918 0.414035 -0.009747
C65   C     C_R   0.469307 0.031700 0.058861 0.046205
C66   C     C_R   0.530297 0.972313 0.949712 0.047318
C67   C     C_R   0.530684 0.531836 0.441087 0.046214
C68   C     C_R   0.469704 0.472291 0.550239 0.047312
C69   C     C_R   0.449482 0.028735 0.975995 0.041598
C70   C     C_R   0.550737 0.996967 0.031615 0.041997
C71   C     C_R   0.550514 0.528805 0.523952 0.041592
C72   C     C_R   0.449258 0.497011 0.468343 0.041996
C73   C     C_R   0.459775 0.049561 0.838495 0.184432
C74   C     C_R   0.543857 0.100633 0.164261 0.186808
C75   C     C_R   0.540228 0.549475 0.661459 0.184413
C76   C     C_R   0.456122 0.600806 0.335709 0.186836
C77   C     C_R   0.409365 0.061597 0.813201 -0.114045
C78   C     C_R   0.594162 0.081895 0.189338 -0.114791
C79   C     C_R   0.590638 0.561464 0.686752 -0.114058
C80   C     C_R   0.405815 0.582109 0.310649 -0.114772
O25   O     O_2   0.307932 0.072729 0.762965 -0.515688
O26   O     O_2   0.695066 0.038561 0.239417 -0.517903
O27   O     O_2   0.692070 0.572405 0.736985 -0.515750
O28   O     O_2   0.304902 0.538925 0.260611 -0.517879
C81   C     C_R   0.559925 0.894926 0.900945 -0.198896
C82   C     C_R   0.437017 0.012463 0.111396 -0.196147
C83   C     C_R   0.440085 0.394829 0.599001 -0.198928
C84   C     C_R   0.562972 0.512691 0.388545 -0.196094
H9    H     H_    0.154987 0.385314 0.810936 0.147368
H10   H     H_    0.854707 0.206415 0.156736 0.150041
H11   H     H_    0.844989 0.885190 0.689659 0.147504
H12   H     H_    0.145245 0.705953 0.344093 0.150106
H13   H     H_    0.394708 0.085528 0.750699 0.172946
H14   H     H_    0.610659 0.125946 0.248994 0.179734
H15   H     H_    0.605298 0.585321 0.749259 0.172957
H16   H     H_    0.389311 0.626221 0.251006 0.179725
H17   H     H_    0.545043 0.848600 0.841527 0.167681
H18   H     H_    0.449855 0.987970 0.173804 0.164628
H19   H     H_    0.454974 0.348472 0.658411 0.167704
H20   H     H_    0.550133 0.488220 0.326134 0.164569
H21   H     H_    0.755219 0.640887 0.165300 0.144822
H22   H     H_    0.234759 0.774577 0.874951 0.162577
H23   H     H_    0.244808 0.141315 0.333888 0.144330
H24   H     H_    0.765277 0.274800 0.624348 0.162275
H25   H     H_    0.630765 0.810883 0.888448 0.178684
H26   H     H_    0.363705 0.002084 0.127183 0.176673
H27   H     H_    0.369254 0.310679 0.611498 0.178703
H28   H     H_    0.636283 0.502460 0.372745 0.176678
N5    N     N_3   0.249938 0.411205 0.857288 -0.683968
H29   H     H_    0.274757 0.404689 0.819628 0.261216
H30   H     H_    0.269500 0.420779 0.915728 0.242107
N6    N     N_3   0.761157 0.266739 0.108173 -0.667752
H31   H     H_    0.736805 0.303142 0.144150 0.242499
H32   H     H_    0.741403 0.249161 0.050235 0.256084
N7    N     N_3   0.750042 0.911174 0.643359 -0.683624
H33   H     H_    0.725250 0.904181 0.681052 0.261590
H34   H     H_    0.730452 0.921281 0.584955 0.241754
N8    N     N_3   0.238797 0.766255 0.392712 -0.666938
H35   H     H_    0.263149 0.803319 0.356832 0.242180
H36   H     H_    0.258553 0.747973 0.450603 0.256280
N9    N     N_3   0.488158 0.102511 0.781475 -0.711620
H37   H     H_    0.493492 0.987522 0.747302 0.248014
H38   H     H_    0.521099 0.162976 0.808739 0.244671
N10   N     N_3   0.519638 0.206184 0.215487 -0.704407
H39   H     H_    0.508880 0.118299 0.257047 0.238604
H40   H     H_    0.490432 0.281476 0.183229 0.242909
N11   N     N_3   0.511848 0.602420 0.718486 -0.711567
H41   H     H_    0.506516 0.487429 0.752657 0.248029
H42   H     H_    0.478904 0.662874 0.691227 0.244674
N12   N     N_3   0.480337 0.706347 0.284477 -0.704491
H43   H     H_    0.491096 0.618455 0.242920 0.238602
H44   H     H_    0.509538 0.781672 0.316732 0.242898

loop_
_geom_bond_atom_site_label_1
_geom_bond_atom_site_label_2
_ccdc_geom_bond_type
O17   V3    S    
C47   C51   A    
N1    C17   A    
C22   C26   A    
C50   C82   A    
O13   V1    S    
O3    C7    A    
C11   C12   D    
C14   C46   A    
C44   C48   A    
C77   H13   S    
C51   C83   A    
N9    H37   S    
O4    V2    S    
N11   H42   S    
C42   C54   A    
O1    C5    A    
C66   C81   A    
C41   C53   A    
C32   C60   A    
C51   H27   S    
C43   C72   A    
C63   C71   A    
N10   H39   S    
C56   C79   A    
C49   H25   S    
C67   C84   A    
C18   C54   A    
C17   O26   S    
N5    H30   S    
C66   C70   A    
C11   H3    S    
O4    C8    A    
C23   N8    S    
C25   C57   A    
C31   C35   A    
O19   V1    S    
N12   H43   S    
C33   H21   S    
C21   N6    S    
C27   C59   A    
O1    V3    S    
C15   C47   A    
C62   C65   A    
O2    V4    S    
C14   O22   S    
C21   C37   A    
O3    V1    S    
C34   C38   A    
C19   C55   A    
C64   C76   A    
N4    C20   A    
C49   C81   A    
C1    O15   A    
C82   H18   S    
C2    O16   A    
C7    C9    S    
O2    C6    A    
C33   C37   A    
C63   C68   A    
O14   V2    S    
C43   C55   A    
C78   H14   S    
C22   N5    S    
C31   H7    S    
C30   C58   A    
C16   N4    A    
O11   C7    A    
C61   C69   A    
O15   V3    S    
O12   C8    A    
C31   C59   A    
C26   H9    S    
C41   C70   A    
C83   H19   S    
O10   V2    S    
C50   H26   S    
C13   N1    A    
N9    H38   S    
O5    V1    S    
C34   H22   S    
O7    V3    S    
O9    C5    A    
O8    V4    S    
C20   O27   S    
C12   H4    S    
C28   C60   A    
N11   H41   S    
C64   C72   A    
O18   V4    S    
C81   H17   S    
C46   C50   A    
C24   C40   A    
C8    C10   S    
C76   C80   A    
C32   C36   A    
C80   H16   S    
C44   C56   A    
O7    C3    A    
C54   C77   A    
O5    C1    A    
C63   C75   A    
C62   C74   A    
C42   C46   A    
C74   N10   S    
C28   H11   S    
C41   C45   A    
O8    C4    A    
C13   C45   A    
C9    C10   D    
C52   H28   S    
C76   N12   S    
C36   C40   A    
N2    C18   A    
C27   H12   S    
N6    H31   S    
O11   V3    S    
N7    H34   S    
C1    C60   S    
C74   C78   A    
C25   H10   S    
C14   N2    A    
C73   C77   A    
C65   C82   A    
C3    C58   S    
O6    V2    S    
C18   O25   S    
N6    H32   S    
C75   C79   A    
C26   C58   A    
C17   C53   A    
N8    H35   S    
N1    C37   S    
C4    C57   S    
C62   C70   A    
C75   N11   S    
C23   C39   A    
C22   C38   A    
C35   H23   S    
O16   V4    S    
O9    V1    S    
C61   C66   A    
C36   H24   S    
C65   C69   A    
C19   O28   S    
C3    O13   A    
C10   H2    S    
C67   C71   A    
C32   H8    S    
C48   C52   A    
N3    C39   S    
N4    C40   S    
O6    C2    A    
C21   C25   A    
C5    C11   S    
O12   V4    S    
C6    C12   S    
C23   C27   A    
C16   C48   A    
C24   C28   A    
O10   C6    A    
N2    C38   S    
C84   H20   S    
C24   N7    S    
C29   H5    S    
O20   V2    S    
C52   C84   A    
N5    H29   S    
C35   C39   A    
N8    H36   S    
C30   H6    S    
C30   C34   A    
N12   H44   S    
C2    C59   S    
C15   N3    A    
C29   C33   A    
C44   C71   A    
N10   H40   S    
C29   C57   A    
C9    H1    S    
C42   C69   A    
N3    C19   A    
C68   C83   A    
C61   C73   A    
C79   H15   S    
C73   N9    S    
C43   C47   A    
C68   C72   A    
C20   C56   A    
C53   C78   A    
C4    O14   A    
N7    H33   S    
C13   O21   S    
C55   C80   A    
C15   O23   S    
C64   C67   A    
C45   C49   A    
C16   O24   S    
