data_mof_unit_43688.cif
_audit_creation_date              2013-03-05T15:56:23-0500
_audit_creation_method            fapswitch 2.2
_symmetry_space_group_name_H-M    P1
_symmetry_Int_Tables_number       1
_space_group_crystal_system       triclinic
_cell_length_a                    12.493302
_cell_length_b                    13.116652
_cell_length_c                    23.527862
_cell_angle_alpha                 76.913757
_cell_angle_beta                  100.202552
_cell_angle_gamma                 116.986019
_cell_volume                      3334.18193499

loop_
_atom_site_label
_atom_site_type_symbol
_atom_site_description
_atom_site_fract_x
_atom_site_fract_y
_atom_site_fract_z
_atom_type_partial_charge
O1    O     O_R   0.972510 0.318130 0.516820 -0.543621
O2    O     O_R   0.806530 0.359650 0.494230 -0.619785
C1    C     C_R   0.854837 0.285909 0.505923 0.838011
O3    O     O_R   0.082990 0.479200 0.593420 -0.543630
O4    O     O_R   0.917010 0.520720 0.570830 -0.596185
C2    C     C_R   0.999915 0.500909 0.608266 0.953165
Cu1   Cu    Cu3+1 0.098270 0.475410 0.513370 1.084216
Cu2   Cu    Cu3+1 0.901730 0.524590 0.486630 1.012910
O5    O     O_R   0.193470 0.640350 0.505770 -0.542496
O6    O     O_R   0.027490 0.681870 0.483180 -0.537340
O7    O     O_R   0.082990 0.479280 0.429170 -0.522025
O8    O     O_R   0.917010 0.520800 0.406580 -0.580932
C3    C     C_R   0.145640 0.713863 0.490136 0.844356
C4    C     C_R   0.997666 0.496003 0.391550 0.799663
C5    C     C_R   0.020213 0.596888 0.110442 0.557459
N1    N     N_R   0.993169 0.492598 0.147562 -0.468416
C6    C     C_R   0.970898 0.394592 0.126655 0.539389
C7    C     C_R   0.980147 0.400091 0.067454 0.009504
C8    C     C_R   0.000028 0.504475 0.028420 -0.073735
C9    C     C_R   0.017399 0.603829 0.049515 -0.110228
C10   C     C_R   0.968268 0.303065 0.046393 -0.150555
C11   C     C_R   0.976344 0.309597 0.987244 -0.158212
C12   C     C_R   0.991522 0.411798 0.947546 -0.010853
C13   C     C_R   0.001313 0.508804 0.968040 -0.017431
C14   C     C_R   0.009822 0.609096 0.928099 -0.096155
C15   C     C_R   0.023354 0.706639 0.948926 -0.258128
C16   C     C_R   0.032224 0.706735 0.009205 0.457030
C17   C     C_R   0.996276 0.419343 0.887563 0.561790
N2    N     N_R   0.000939 0.516544 0.848894 -0.425388
C18   C     C_R   0.002629 0.608568 0.867955 0.634499
O9    O     O_2   0.051537 0.693865 0.132602 -0.494022
O10   O     O_2   0.937862 0.291364 0.162743 -0.525883
H1    H     H_    0.954054 0.222139 0.075638 0.194324
H2    H     H_    0.968067 0.233586 0.972583 0.191472
O11   O     O_2   0.995733 0.330001 0.867976 -0.512239
O12   O     O_2   0.994660 0.698029 0.828938 -0.537931
H3    H     H_    0.028484 0.784043 0.918581 0.199898
C19   C     C_R   0.098827 0.598348 0.755775 0.401942
C20   C     C_R   0.101402 0.587083 0.697742 0.247974
C21   C     C_R   0.000126 0.503614 0.670193 -0.253285
C22   C     C_R   0.899810 0.425200 0.701877 0.274822
C23   C     C_R   0.900229 0.435549 0.759750 -0.211099
H4    H     H_    0.825038 0.374802 0.784961 0.214535
C24   C     C_R   0.999263 0.518940 0.787261 0.156610
C25   C     C_R   0.046570 0.430686 0.252065 -0.120993
H5    H     H_    0.094918 0.389467 0.239709 0.175447
C26   C     C_R   0.042414 0.426702 0.311381 -0.172924
H6    H     H_    0.076778 0.372968 0.342923 0.215354
C27   C     C_R   0.990928 0.488352 0.329179 -0.051535
C28   C     C_R   0.927886 0.539713 0.286591 -0.177452
H7    H     H_    0.880926 0.582325 0.298719 0.208517
C29   C     C_R   0.924314 0.536606 0.227472 -0.088781
H8    H     H_    0.873624 0.575462 0.195705 0.170942
C30   C     C_R   0.988114 0.486540 0.209266 0.314842
C31   C     C_R   0.300088 0.999402 0.392669 0.324876
H9    H     H_    0.123009 0.860760 0.393916 0.246133
C32   C     C_R   0.232281 0.834819 0.471700 -0.109943
C33   C     C_R   0.804392 0.081004 0.550266 -0.216026
C34   C     C_R   0.725907 0.963385 0.560597 0.291711
C35   C     C_R   0.608158 0.923525 0.532589 0.224975
C36   C     C_R   0.568189 0.004600 0.495966 -0.040035
C37   C     C_R   0.654844 0.120228 0.479710 -0.021066
C38   C     C_R   0.446110 0.972472 0.472006 0.028569
C39   C     C_R   0.418788 0.042192 0.421206 -0.081289
C40   C     C_R   0.510500 0.152434 0.401321 0.440943
C41   C     C_R   0.625306 0.190336 0.430884 -0.235933
C42   C     C_R   0.350148 0.874117 0.498520 -0.127248
C43   C     C_R   0.209205 0.896919 0.418462 -0.176926
C44   C     C_R   0.771109 0.160658 0.510547 -0.125618
H10   H     H_    0.366028 0.825594 0.540153 0.180906
H11   H     H_    0.892967 0.109627 0.573271 0.245457
H12   H     H_    0.692685 0.273709 0.412654 0.175966
C45   C     C_R   0.358360 0.345480 0.598222 -0.295191
H13   H     H_    0.544941 0.300311 0.614121 0.207367
H14   H     H_    0.366386 0.290968 0.639427 0.195223
N3    N     N_R   0.246280 0.438190 0.533650 -0.305048
C46   C     C_R   0.768236 0.658873 0.426850 0.515817
C47   C     C_R   0.670650 0.680426 0.402734 -0.367397
C48   C     C_R   0.554393 0.599093 0.416213 0.477150
C49   C     C_R   0.542701 0.518190 0.470142 -0.041610
C50   C     C_R   0.647410 0.497436 0.492535 0.106381
C51   C     C_R   0.439313 0.463425 0.505671 -0.058716
C52   C     C_R   0.446381 0.389496 0.559005 0.026554
C53   C     C_R   0.543007 0.360950 0.574605 -0.174694
C54   C     C_R   0.641624 0.414427 0.542368 -0.088389
C55   C     C_R   0.332580 0.482618 0.493939 0.498962
C56   C     C_R   0.260784 0.372718 0.586078 0.439846
N4    N     N_R   0.754320 0.561190 0.466710 -0.275064
H15   H     H_    0.687220 0.754783 0.368293 0.165142
H16   H     H_    0.715508 0.393843 0.559894 0.231901
O13   O     O_3   0.490799 0.224801 0.352309 -0.542843
C57   C     C_3   0.446962 0.294548 0.369208 0.096549
H17   H     H_    0.520341 0.360891 0.393401 0.137256
H18   H     H_    0.370423 0.242017 0.397269 0.149649
C58   C     C_3   0.401433 0.355692 0.314420 -0.634107
H19   H     H_    0.343517 0.293307 0.284492 0.281140
H20   H     H_    0.346457 0.392706 0.326588 0.248266
H21   H     H_    0.478657 0.426139 0.291144 0.223010
N5    N     N_R   0.271910 0.051028 0.334949 0.141557
O14   O     O_R   0.329777 0.060031 0.291836 -0.297445
O15   O     O_R   0.172236 0.063342 0.323160 -0.328835
N6    N     N_R   0.544059 0.802711 0.528100 0.124144
O16   O     O_R   0.509747 0.723459 0.574188 -0.363067
O17   O     O_R   0.526807 0.771653 0.477356 -0.344989
N7    N     N_R   0.769304 0.884449 0.597697 0.166070
O18   O     O_R   0.877310 0.896890 0.593757 -0.316874
O19   O     O_R   0.711282 0.815088 0.642256 -0.296920
N8    N     N_R   0.177700 0.330520 0.629843 0.141176
O20   O     O_R   0.218521 0.346187 0.683549 -0.382354
O21   O     O_R   0.068618 0.252915 0.620139 -0.320807
N9    N     N_R   0.302822 0.528487 0.436823 0.172469
O22   O     O_R   0.254428 0.458610 0.398708 -0.406639
O23   O     O_R   0.314046 0.634473 0.423388 -0.318137
N10   N     N_R   0.882264 0.740641 0.407123 0.136072
O24   O     O_R   0.932574 0.840071 0.425346 -0.338201
O25   O     O_R   0.909979 0.735097 0.357564 -0.398593
O26   O     O_3   0.460488 0.577008 0.371803 -0.551430
C59   C     C_3   0.474722 0.670692 0.324914 0.122103
H22   H     H_    0.544620 0.683024 0.297251 0.129106
H23   H     H_    0.498240 0.751960 0.341602 0.188932
C60   C     C_3   0.357651 0.643868 0.285525 -0.667545
H24   H     H_    0.284991 0.635837 0.309751 0.291058
H25   H     H_    0.371318 0.715395 0.247663 0.198679
H26   H     H_    0.329376 0.562136 0.268662 0.222243
O27   O     O_3   0.042879 0.803883 0.027914 -0.530703
C61   C     C_3   0.162114 0.890942 0.022767 0.088098
H27   H     H_    0.181179 0.923320 0.975959 0.131327
H28   H     H_    0.228813 0.858028 0.046443 0.151411
C62   C     C_3   0.178083 0.992485 0.049747 -0.659106
H29   H     H_    0.161190 0.963377 0.096795 0.277378
H30   H     H_    0.271535 0.061653 0.045937 0.194966
H31   H     H_    0.113946 0.028496 0.026619 0.243211
O28   O     O_3   0.197527 0.678384 0.784259 -0.575125
C63   C     C_3   0.213658 0.792635 0.758811 0.132621
H32   H     H_    0.126695 0.799619 0.745664 0.194717
H33   H     H_    0.264646 0.823887 0.719504 0.187105
C64   C     C_3   0.286602 0.873424 0.802873 -0.728426
H34   H     H_    0.376071 0.872062 0.814924 0.248200
H35   H     H_    0.300118 0.963436 0.783463 0.219574
H36   H     H_    0.238402 0.845604 0.843004 0.257711
O29   O     O_3   0.200974 0.661161 0.666965 -0.616485
C65   C     C_3   0.292857 0.622334 0.682927 0.136907
H37   H     H_    0.296637 0.583024 0.646656 0.209910
H38   H     H_    0.280135 0.556585 0.723827 0.179261
C66   C     C_3   0.414315 0.725204 0.691241 -0.676827
H39   H     H_    0.419114 0.759230 0.731157 0.240980
H40   H     H_    0.487614 0.697229 0.696551 0.259890
H41   H     H_    0.428077 0.795358 0.652672 0.251427
N11   N     N_R   0.801054 0.330053 0.677753 0.124783
O30   O     O_R   0.819653 0.279254 0.641509 -0.368559
O31   O     O_R   0.697318 0.280632 0.699843 -0.376039

loop_
_geom_bond_atom_site_label_1
_geom_bond_atom_site_label_2
_geom_bond_distance
_ccdc_geom_bond_type
C61   H27   1.113212 S    
C7    C10   1.405465 A    
C22   C23   1.397507 A    
C8    C9    1.410615 A    
C63   C64   1.521339 S    
N10   O24   1.301378 A    
C58   H21   1.110626 S    
Cu1   Cu2   2.747280 S    
C26   C27   1.401362 A    
C46   C47   1.372347 A    
Cu1   O7    1.947523 S    
C64   H35   1.110506 S    
C15   C16   1.403089 A    
C34   N7    1.435428 S    
C52   C53   1.386797 A    
C17   N2    1.372125 A    
C1    C44   1.484860 S    
O2    C1    1.313742 A    
N11   O31   1.301376 A    
O4    C2    1.316637 A    
O7    C4    1.325855 A    
C33   H11   1.077623 S    
C4    C27   1.478465 S    
C22   N11   1.441241 S    
C5    N1    1.375587 A    
N8    O20   1.301214 A    
C6    C7    1.400915 A    
C7    C8    1.408029 A    
C19   O28   1.386619 S    
C36   C38   1.428707 A    
O5    C3    1.306359 A    
C59   H22   1.112579 S    
C45   C56   1.386001 A    
C60   H26   1.109405 S    
O29   C65   1.417520 S    
C41   H12   1.080988 S    
C56   N8    1.429407 S    
C20   O29   1.385441 S    
C17   O11   1.349781 S    
N1    C6    1.373015 A    
C28   C29   1.392966 A    
C12   C13   1.407881 A    
C62   H31   1.110801 S    
C34   C35   1.409338 A    
C40   O13   1.380995 S    
C10   C11   1.393598 A    
C45   H14   1.085308 S    
C65   C66   1.522379 S    
C36   C37   1.418597 A    
C23   C24   1.398166 A    
C32   C42   1.400550 A    
O3    Cu1   1.940231 S    
C35   N6    1.434502 S    
C66   H40   1.110187 S    
C29   C30   1.404784 A    
C66   H39   1.109221 S    
C59   H23   1.114075 S    
C25   C26   1.393999 A    
C47   H15   1.081213 S    
C5    C9    1.410794 A    
C11   H2    1.083160 S    
C64   H36   1.110519 S    
C38   C42   1.409827 A    
C37   C41   1.407450 A    
C3    C32   1.474133 S    
C53   C54   1.375161 A    
C46   N4    1.364869 A    
C49   C51   1.466846 A    
C20   C21   1.411851 A    
C33   C44   1.397228 A    
C31   C43   1.397839 A    
C47   C48   1.397125 A    
C63   H33   1.108671 S    
C61   C62   1.521035 S    
C14   C15   1.401405 A    
H9    C43   1.076254 S    
C57   C58   1.521349 S    
C38   C39   1.423089 A    
C37   C44   1.421024 A    
C35   C36   1.427333 A    
O1    C1    1.325625 A    
C59   C60   1.523910 S    
C19   C24   1.407877 A    
N2    C18   1.370114 A    
O28   C63   1.416770 S    
N7    O19   1.300403 A    
C26   H6    1.075502 S    
Cu2   O8    1.940232 S    
C31   C39   1.423904 A    
C57   H18   1.115664 S    
C28   H7    1.080353 S    
N9    O23   1.300766 A    
C12   C17   1.402196 A    
C13   C14   1.404840 A    
N6    O17   1.298929 A    
N3    C56   1.369029 A    
C60   H24   1.108762 S    
C63   H32   1.114848 S    
O3    C2    1.312234 A    
C21   C22   1.413574 A    
N5    O15   1.301374 A    
O8    C4    1.312233 A    
C25   C30   1.405351 A    
C27   C28   1.405173 A    
N2    C24   1.439933 S    
O27   C61   1.412512 S    
C2    C21   1.464963 S    
C23   H4    1.083167 S    
C32   C43   1.392378 A    
C46   N10   1.420331 S    
N3    C55   1.383864 A    
O13   C57   1.411209 S    
C66   H41   1.110543 S    
C29   H8    1.082690 S    
C62   H29   1.110798 S    
C64   H34   1.110713 S    
C14   C18   1.403328 A    
Cu1   O5    1.921466 S    
C61   H28   1.115435 S    
N9    O22   1.298865 A    
O1    Cu1   1.938758 S    
O2    Cu2   1.921468 S    
H13   C53   1.082702 S    
C49   C50   1.441206 A    
O6    C3    1.328561 A    
O4    Cu2   1.947523 S    
N10   O25   1.299648 A    
C54   H16   1.065778 S    
C58   H20   1.106631 S    
C15   H3    1.083309 S    
C5    O9    1.348802 S    
Cu1   N3    2.070398 S    
C9    C16   1.418221 A    
N7    O18   1.301384 A    
N5    O14   1.301373 A    
C18   O12   1.347369 S    
C42   H10   1.080444 S    
C39   C40   1.415113 A    
C8    C13   1.411489 A    
C33   C34   1.393706 A    
C51   C55   1.435436 A    
N11   O30   1.301218 A    
C16   O27   1.383657 S    
C19   C20   1.413658 A    
C48   O26   1.395130 S    
C57   H17   1.112260 S    
N8    O21   1.296741 A    
C55   N9    1.402101 S    
C65   H38   1.117588 S    
C40   C41   1.394340 A    
N6    O16   1.299996 A    
N1    C30   1.446945 S    
C60   H25   1.110393 S    
C50   N4    1.377035 A    
C48   C49   1.439672 A    
C25   H5    1.082329 S    
C10   H1    1.083146 S    
Cu2   O6    1.938756 S    
C51   C52   1.417815 A    
C31   N5    1.434317 S    
C58   H19   1.109974 S    
C65   H37   1.109939 S    
C6    O10   1.349436 S    
C11   C12   1.403720 A    
Cu2   N4    2.058269 S    
O26   C59   1.419847 S    
C45   C52   1.391398 A    
C50   C54   1.394939 A    
C62   H30   1.110495 S    
