data_mof_unit_24386.cif
_audit_creation_date              2012-12-11T16:43:15-0500
_audit_creation_method            fapswitch 2.2
_symmetry_space_group_name_H-M    P1
_symmetry_Int_Tables_number       1
_space_group_crystal_system       triclinic
_cell_length_a                    6.929151
_cell_length_b                    23.259118
_cell_length_c                    25.832933
_cell_angle_alpha                 104.744848
_cell_angle_beta                  90.318327
_cell_angle_gamma                 90.383753
_cell_volume                      4026.07988844

loop_
_atom_site_label
_atom_site_type_symbol
_atom_type_description
_atom_site_fract_x
_atom_site_fract_y
_atom_site_fract_z
_atom_type_partial_charge
O1    O     O_R   0.505750 0.453350 0.547660 -0.536882
O2    O     O_R   0.170990 0.432220 0.437590 -0.541846
O3    O     O_R   0.005600 0.546650 0.452340 -0.540111
C1    C     C_R   0.339772 0.415876 0.417071 0.713284
O4    O     O_R   0.175720 0.446240 0.546340 -0.543244
O5    O     O_R   0.010370 0.560770 0.561860 -0.538303
C2    C     C_R   0.344802 0.434068 0.562752 0.709215
O6    O     O_R   0.500990 0.439230 0.438140 -0.538832
O7    O     O_3   0.340820 0.537560 0.504970 -0.369689
V1    V     V_3+5 0.064050 0.493030 0.499080 1.408105
O8    O     O_R   0.680940 0.567780 0.562410 -0.543904
C3    C     C_R   0.850773 0.584308 0.582669 0.709965
O9    O     O_R   0.676210 0.553760 0.453660 -0.543734
C4    C     C_R   0.845044 0.565894 0.437219 0.689466
V2    V     V_3+5 0.564640 0.506970 0.500920 1.405803
O10   O     O_3   0.837740 0.462440 0.495030 -0.365654
C5    C     C_R   0.773059 0.876021 0.115158 -0.159656
H1    H     H_    0.640388 0.888217 0.098481 0.120616
C6    C     C_R   0.761629 0.840382 0.151277 -0.143685
H2    H     H_    0.620818 0.825642 0.160844 0.099685
C7    C     C_R   0.929632 0.823273 0.174090 0.095288
C8    C     C_R   0.109632 0.842484 0.159455 -0.138653
H3    H     H_    0.241852 0.830924 0.176782 0.100105
C9    C     C_R   0.121168 0.877983 0.123136 -0.162555
H4    H     H_    0.262060 0.892303 0.113172 0.117365
C10   C     C_R   0.952926 0.895382 0.100620 -0.053833
C11   C     C_R   0.053646 0.741230 0.212742 -0.150741
H5    H     H_    0.168816 0.732914 0.183696 0.109715
C12   C     C_R   0.041236 0.705947 0.249180 -0.151704
H6    H     H_    0.147289 0.671482 0.247135 0.108378
C13   C     C_R   0.891723 0.714181 0.286956 0.080614
C14   C     C_R   0.754883 0.758665 0.287233 -0.145566
H7    H     H_    0.639716 0.766980 0.316281 0.115544
C15   C     C_R   0.767294 0.793949 0.250794 -0.148186
H8    H     H_    0.661246 0.828415 0.252841 0.112960
C16   C     C_R   0.916827 0.785721 0.213024 0.080433
C17   C     C_R   0.699058 0.657425 0.340565 -0.138986
H9    H     H_    0.566797 0.668963 0.323244 0.098795
C18   C     C_R   0.687636 0.621936 0.376897 -0.158599
H10   H     H_    0.546787 0.607599 0.386875 0.117240
C19   C     C_R   0.855945 0.604566 0.399404 -0.054563
C20   C     C_R   0.035754 0.623949 0.384850 -0.157230
H11   H     H_    0.168474 0.611779 0.401521 0.121764
C21   C     C_R   0.047069 0.659576 0.348720 -0.139105
H12   H     H_    0.187842 0.674331 0.339140 0.101446
C22   C     C_R   0.879007 0.676651 0.325909 0.094908
C23   C     C_R   0.028942 0.638834 0.665526 -0.214031
C24   C     C_R   0.864925 0.633523 0.632131 -0.085332
C25   C     C_R   0.716531 0.675508 0.646167 -0.195626
C26   C     C_R   0.732305 0.722694 0.692501 0.037246
C27   C     C_R   0.895756 0.727130 0.726136 0.057600
C28   C     C_R   0.044421 0.684869 0.712584 0.110562
C29   C     C_R   0.588593 0.766014 0.705286 -0.196917
C30   C     C_R   0.604423 0.813345 0.751192 0.261880
C31   C     C_R   0.764222 0.817104 0.786249 0.028671
C32   C     C_R   0.911137 0.773968 0.773233 0.020156
C33   C     C_R   0.074668 0.777807 0.806985 0.144467
C34   C     C_R   0.220906 0.735283 0.793168 -0.161383
C35   C     C_R   0.206327 0.689400 0.746290 -0.197245
C36   C     C_R   0.781963 0.862878 0.833709 -0.159597
C37   C     C_R   0.944056 0.866870 0.867601 -0.096134
C38   C     C_R   0.090448 0.824348 0.853707 -0.162925
H13   H     H_    0.143846 0.606587 0.655271 0.122237
H14   H     H_    0.590424 0.672130 0.620498 0.130396
H15   H     H_    0.464079 0.763494 0.679196 0.167629
H16   H     H_    0.670783 0.896119 0.844531 0.172653
H17   H     H_    0.216028 0.827173 0.879488 0.123719
H18   H     H_    0.347759 0.737844 0.818406 0.123178
H19   H     H_    0.322104 0.657466 0.736348 0.126623
C39   C     C_R   0.603832 0.175467 0.149052 -0.226320
C40   C     C_R   0.455471 0.132901 0.132946 -0.085260
C41   C     C_R   0.287933 0.137449 0.164554 -0.208590
C42   C     C_R   0.267493 0.183517 0.211289 0.085937
C43   C     C_R   0.415180 0.226518 0.226630 0.053705
C44   C     C_R   0.583656 0.222608 0.195326 0.094583
C45   C     C_R   0.101463 0.187411 0.242918 -0.190440
C46   C     C_R   0.081017 0.233841 0.289194 -0.171877
C47   C     C_R   0.225674 0.277474 0.304620 0.091776
C48   C     C_R   0.394144 0.273568 0.273315 0.053210
C49   C     C_R   0.541829 0.316570 0.288655 0.088796
C50   C     C_R   0.707862 0.312674 0.257028 -0.195120
C51   C     C_R   0.728315 0.266241 0.210754 -0.181583
C52   C     C_R   0.205505 0.324611 0.350897 -0.218563
C53   C     C_R   0.353857 0.367181 0.367002 -0.086130
C54   C     C_R   0.521387 0.362638 0.335391 -0.208863
H20   H     H_    0.732987 0.172618 0.125069 0.127190
H21   H     H_    0.173001 0.104749 0.152954 0.126022
H22   H     H_    0.986584 0.154677 0.231698 0.134750
H23   H     H_    0.951160 0.235817 0.312741 0.141253
H24   H     H_    0.076365 0.327452 0.374885 0.131484
H25   H     H_    0.636319 0.395338 0.346992 0.124808
H26   H     H_    0.822742 0.345408 0.268248 0.131847
H27   H     H_    0.858177 0.264263 0.187208 0.136079
C55   C     C_R   0.272915 0.121289 0.882481 -0.144866
H28   H     H_    0.140241 0.106688 0.897271 0.121732
C56   C     C_R   0.260670 0.156837 0.846256 -0.126451
H29   H     H_    0.119304 0.167990 0.833833 0.105645
C57   C     C_R   0.428350 0.176616 0.825412 0.096490
C58   C     C_R   0.608900 0.160038 0.842033 -0.134156
H30   H     H_    0.741014 0.175031 0.827280 0.103372
C59   C     C_R   0.621277 0.124586 0.878467 -0.146919
H31   H     H_    0.762633 0.112707 0.890283 0.118379
C60   C     C_R   0.453324 0.104580 0.899115 -0.053051
C61   C     C_R   0.539476 0.204591 0.742152 -0.135267
H32   H     H_    0.646550 0.169847 0.735767 0.136359
C62   C     C_R   0.524630 0.239036 0.705026 -0.095289
H33   H     H_    0.619516 0.230063 0.670901 0.183108
C63   C     C_R   0.385660 0.283816 0.711171 0.103127
C64   C     C_R   0.260881 0.293439 0.755139 -0.098546
H34   H     H_    0.153528 0.328096 0.760967 0.126487
C65   C     C_R   0.274580 0.258772 0.792145 -0.152757
H35   H     H_    0.177393 0.267688 0.825875 0.107899
C66   C     C_R   0.414453 0.213922 0.786223 0.068965
C67   C     C_R   0.206125 0.321767 0.641057 0.291803
C68   C     C_R   0.196856 0.358917 0.606001 -0.186193
H36   H     H_    0.066883 0.358596 0.582434 0.157153
C69   C     C_R   0.354950 0.394961 0.600240 -0.107027
C70   C     C_R   0.523219 0.393032 0.630480 -0.144477
H37   H     H_    0.647773 0.420185 0.627089 0.130338
C71   C     C_R   0.531667 0.356843 0.666266 -0.156269
H38   H     H_    0.661622 0.357174 0.689828 0.156656
C72   C     C_R   0.373391 0.321127 0.672272 0.025364
O11   O     O_R   0.308350 0.060850 0.061810 -0.541075
O12   O     O_R   0.633860 0.053770 0.953650 -0.543353
O13   O     O_R   0.798960 0.939210 0.938150 -0.540752
C73   C     C_R   0.464724 0.065929 0.937107 0.706478
O14   O     O_R   0.638360 0.067800 0.062400 -0.542413
O15   O     O_R   0.803500 0.953330 0.047670 -0.540586
C74   C     C_R   0.469570 0.084187 0.082890 0.705626
O16   O     O_R   0.303810 0.046730 0.952290 -0.536797
O17   O     O_3   0.468430 0.962490 0.995010 -0.368578
V3    V     V_3+5 0.745300 0.006960 0.000930 1.406835
O18   O     O_R   0.132880 0.946160 0.046390 -0.545607
C75   C     C_R   0.963980 0.934056 0.062810 0.682771
O19   O     O_R   0.128380 0.932130 0.937650 -0.534494
C76   C     C_R   0.958539 0.915727 0.917313 0.721553
V4    V     V_3+5 0.244670 0.992930 0.999140 1.417667
O20   O     O_3   0.971670 0.037510 0.005000 -0.370269
Br1   Br    Br    0.406057 0.872534 0.762491 -0.561285
Br2   Br    Br    0.992345 0.269531 0.642007 -0.619284

loop_
_geom_bond_atom_site_label_1
_geom_bond_atom_site_label_2
_ccdc_geom_bond_type
C31   C32   A    
O18   V4    S    
C59   H31   S    
C11   C12   A    
C42   C43   A    
C2    C69   S    
C6    H2    S    
C1    O6    A    
C49   C54   A    
C61   C62   A    
C67   C68   A    
C54   H25   S    
C33   C38   A    
C18   C19   A    
C7    C16   S    
C46   C47   A    
C63   C64   A    
C46   H23   S    
C17   H9    S    
C38   H17   S    
O17   V4    S    
C5    C10   A    
C7    C8    A    
C6    C7    A    
C9    C10   A    
C27   C32   A    
C64   C65   A    
C23   H13   S    
C62   H33   S    
C73   O16   A    
V3    O20   S    
C68   H36   S    
C32   C33   A    
O12   V3    S    
C15   H8    S    
C19   C20   A    
C60   C73   S    
O14   V3    S    
C70   H37   S    
C50   H26   S    
O8    V2    S    
C47   C52   A    
C58   H30   S    
C71   C72   A    
C68   C69   A    
C13   C22   S    
C56   C57   A    
C39   C40   A    
O1    V2    S    
C67   Br2   S    
C29   H15   S    
O7    V1    S    
C45   H22   S    
C3    C24   S    
C36   H16   S    
C59   C60   A    
C51   H27   S    
O9    C4    A    
O11   C74   A    
C55   H28   S    
C20   C21   A    
C30   Br1   S    
O15   V3    S    
C61   H32   S    
C21   C22   A    
C50   C51   A    
C45   C46   A    
C26   C29   A    
C43   C44   A    
C27   C28   A    
C23   C24   A    
O19   C76   A    
C9    H4    S    
C18   H10   S    
O4    C2    A    
C47   C48   A    
C41   C42   A    
C57   C66   S    
C26   C27   A    
C34   C35   A    
C29   C30   A    
C61   C66   A    
C36   C37   A    
C14   C15   A    
O2    C1    A    
O14   C74   A    
C12   H6    S    
C10   C75   S    
C28   C35   A    
O15   C75   A    
C40   C74   S    
C52   C53   A    
C1    C53   S    
C56   H29   S    
C5    H1    S    
C65   C66   A    
C53   C54   A    
C55   C56   A    
O3    C4    A    
C35   H19   S    
C4    C19   S    
O13   C76   A    
C34   H18   S    
C24   C25   A    
C58   C59   A    
C55   C60   A    
C57   C58   A    
O6    V2    S    
C43   C48   A    
O9    V2    S    
O18   C75   A    
C42   C45   A    
C8    C9    A    
C20   H11   S    
O17   V3    S    
C39   H20   S    
C11   H5    S    
C41   H21   S    
C71   H38   S    
O12   C73   A    
O19   V4    S    
C52   H24   S    
C30   C31   A    
C65   H35   S    
O1    C2    A    
C13   C14   A    
C21   H12   S    
C63   C72   S    
C49   C50   A    
O5    V1    S    
O8    C3    A    
C44   C51   A    
C23   C28   A    
C11   C16   A    
V4    O20   S    
O11   V4    S    
C14   H7    S    
O7    V2    S    
O4    V1    S    
C12   C13   A    
O3    V1    S    
V1    O10   S    
C69   C70   A    
O5    C3    A    
O13   V3    S    
C33   C34   A    
C62   C63   A    
C5    C6    A    
C15   C16   A    
C37   C38   A    
C70   C71   A    
C48   C49   A    
C67   C72   A    
C40   C41   A    
C17   C18   A    
C25   C26   A    
C64   H34   S    
C39   C44   A    
C25   H14   S    
C8    H3    S    
C17   C22   A    
C31   C36   A    
O16   V4    S    
V2    O10   S    
C37   C76   S    
O2    V1    S    
