data_mof_unit_31819.cif
_audit_creation_date              2012-12-11T15:22:36-0500
_audit_creation_method            fapswitch 2.2
_symmetry_space_group_name_H-M    P1
_symmetry_Int_Tables_number       1
_space_group_crystal_system       triclinic
_cell_length_a                    22.450802
_cell_length_b                    12.984957
_cell_length_c                    26.938413
_cell_angle_alpha                 90.02364
_cell_angle_beta                  90.405146
_cell_angle_gamma                 90.264841
_cell_volume                      7852.87784968

loop_
_atom_site_label
_atom_site_type_symbol
_atom_type_description
_atom_site_fract_x
_atom_site_fract_y
_atom_site_fract_z
_atom_type_partial_charge
C1    C     C_R   0.721047 0.345432 0.178542 0.545864
C2    C     C_R   0.485856 0.254598 0.896393 -0.147459
C3    C     C_R   0.011315 0.586701 0.555659 -0.118466
C4    C     C_R   0.504743 0.077858 0.394174 -0.117652
C5    C     C_R   0.499449 0.088533 0.605206 -0.121276
C6    C     C_R   0.003267 0.582439 0.394725 -0.131971
C7    C     C_R   0.998823 0.583822 0.606219 -0.124665
C8    C     C_R   0.733834 0.984596 0.377078 0.034742
C9    C     C_R   0.265674 0.981737 0.623755 0.040308
C10   C     C_R   0.237916 0.459293 0.372930 0.027375
C11   C     C_R   0.756803 0.447007 0.630607 0.025813
C12   C     C_R   0.713113 0.892163 0.397350 -0.128782
C13   C     C_R   0.024540 0.758411 0.102683 -0.130866
C14   C     C_R   0.278228 0.884346 0.604488 -0.130063
C15   C     C_R   0.186023 0.434650 0.399344 -0.123181
C16   C     C_R   0.802624 0.390598 0.608099 -0.122234
C17   C     C_R   0.711144 0.880803 0.448848 -0.115697
C18   C     C_R   0.279754 0.870728 0.553093 -0.114553
C19   C     C_R   0.188289 0.422369 0.450271 -0.124483
C20   C     C_R   0.797086 0.359851 0.558833 -0.125764
C21   C     C_R   0.727770 0.963324 0.480066 0.030526
C22   C     C_R   0.270455 0.955281 0.521258 0.031571
C23   C     C_R   0.242793 0.430560 0.475535 0.034342
C24   C     C_R   0.985870 0.754587 0.896391 -0.147459
C25   C     C_R   0.745630 0.384778 0.531869 0.034577
C26   C     C_R   0.745227 0.057281 0.459158 -0.126684
C27   C     C_R   0.261019 0.053205 0.541170 -0.126286
C28   C     C_R   0.295560 0.445690 0.448555 -0.120147
C29   C     C_R   0.698021 0.433670 0.555638 -0.116926
C30   C     C_R   0.749375 0.067063 0.408274 -0.117331
C31   C     C_R   0.258137 0.065931 0.591927 -0.115610
C32   C     C_R   0.293039 0.461399 0.397501 -0.126102
C33   C     C_R   0.703439 0.464078 0.604749 -0.124882
C34   C     C_R   0.782538 0.991932 0.559040 -0.118282
C35   C     C_R   0.512491 0.259438 0.051633 0.012390
C36   C     C_R   0.218417 0.989308 0.441807 -0.119189
C37   C     C_R   0.285588 0.483706 0.557145 -0.123985
C38   C     C_R   0.688658 0.334479 0.457206 -0.136140
C39   C     C_R   0.720150 0.344995 0.322619 0.535405
C40   C     C_R   0.278455 0.348707 0.678801 0.550607
C41   C     C_R   0.221340 0.847800 0.321545 0.545531
C42   C     C_R   0.778598 0.848311 0.678596 0.556700
C43   C     C_R   0.794167 0.966046 0.607945 -0.125096
C44   C     C_R   0.207325 0.965604 0.392484 -0.125471
C45   C     C_R   0.293000 0.466595 0.607661 -0.129050
C46   C     C_R   0.495976 0.256874 0.947867 0.011428
C47   C     C_R   0.682015 0.332039 0.406298 -0.123657
C48   C     C_R   0.705530 0.858502 0.608858 -0.127006
C49   C     C_R   0.291948 0.849873 0.392902 -0.125339
C50   C     C_R   0.211884 0.342655 0.605592 -0.140246
C51   C     C_R   0.784270 0.388548 0.395856 -0.140262
C52   C     C_R   0.693413 0.885598 0.559822 -0.122842
C53   C     C_R   0.303183 0.873988 0.442388 -0.121856
C54   C     C_R   0.205781 0.357154 0.554879 -0.130087
C55   C     C_R   0.790729 0.393457 0.447418 -0.120607
C56   C     C_R   0.733323 0.948957 0.533962 0.036737
C57   C     C_R   0.012507 0.759438 0.051630 0.012378
C58   C     C_R   0.265071 0.940857 0.467550 0.036392
C59   C     C_R   0.244349 0.424513 0.529901 0.037805
C60   C     C_R   0.742447 0.367732 0.478235 0.023001
C61   C     C_R   0.757511 0.895061 0.632389 0.024818
C62   C     C_R   0.242290 0.892146 0.368379 0.025221
C63   C     C_R   0.258485 0.391384 0.631465 0.022871
C64   C     C_R   0.729101 0.360843 0.375394 0.031275
C65   C     C_R   0.553376 0.158654 0.321160 0.534348
C66   C     C_R   0.445366 0.159156 0.678185 0.542032
C67   C     C_R   0.054283 0.658798 0.321609 0.538884
C68   C     C_R   0.995989 0.756866 0.947865 0.011394
C69   C     C_R   0.945923 0.659042 0.678511 0.543773
C70   C     C_R   0.730784 0.005579 0.324191 0.541181
C71   C     C_R   0.268795 0.004158 0.676356 0.538802
C72   C     C_R   0.231343 0.502359 0.323224 0.547580
C73   C     C_R   0.768081 0.501259 0.677287 0.547850
C74   C     C_R   0.506033 0.073814 0.105153 -0.122558
C75   C     C_R   0.474127 0.068666 0.900022 -0.118309
C76   C     C_R   0.006013 0.573826 0.105158 -0.122634
C77   C     C_R   0.974092 0.568663 0.900029 -0.118254
C78   C     C_R   0.495162 0.073196 0.054280 0.014052
C79   C     C_R   0.499550 0.165911 0.027156 0.062798
C80   C     C_R   0.481864 0.070002 0.951099 0.010561
C81   C     C_R   0.995138 0.573207 0.054286 0.014061
C82   C     C_R   0.981831 0.570004 0.951106 0.010538
C83   C     C_R   0.477028 0.978501 0.978367 -0.132154
C84   C     C_R   0.483225 0.980206 0.029756 -0.127599
C85   C     C_R   0.976974 0.478511 0.978378 -0.132131
C86   C     C_R   0.983176 0.480221 0.029766 -0.127581
C87   C     C_R   0.492419 0.164398 0.975360 0.064857
C88   C     C_R   0.999544 0.665915 0.027158 0.062794
C89   C     C_R   0.295121 0.304618 0.826654 0.562123
C90   C     C_R   0.992411 0.664397 0.975363 0.064841
C91   C     C_R   0.516188 0.351128 0.024168 -0.135868
C92   C     C_R   0.507578 0.349948 0.972666 -0.142850
C93   C     C_R   0.016224 0.851120 0.024162 -0.135850
C94   C     C_R   0.007613 0.849936 0.972660 -0.142826
C95   C     C_R   0.745545 0.946704 0.132688 0.035394
C96   C     C_R   0.258718 0.954387 0.869546 0.034342
C97   C     C_R   0.245547 0.446711 0.132688 0.035586
C98   C     C_R   0.758707 0.454361 0.869537 0.034629
C99   C     C_R   0.789247 0.991450 0.102330 -0.144944
C100  C     C_R   0.221050 0.845441 0.178545 0.544878
C101  C     C_R   0.209053 0.986724 0.896873 -0.144702
C102  C     C_R   0.289207 0.491521 0.102310 -0.145051
C103  C     C_R   0.709044 0.486704 0.896865 -0.144751
C104  C     C_R   0.799457 0.954791 0.054919 -0.125958
C105  C     C_R   0.206562 0.970723 0.947748 -0.125733
C106  C     C_R   0.299417 0.454857 0.054900 -0.126013
C107  C     C_R   0.706548 0.470688 0.947738 -0.125740
C108  C     C_R   0.767405 0.870132 0.036420 0.016197
C109  C     C_R   0.254277 0.924036 0.972757 0.017877
C110  C     C_R   0.267407 0.370133 0.036421 0.016189
C111  C     C_R   0.795119 0.804622 0.826654 0.561795
C112  C     C_R   0.754256 0.423974 0.972744 0.017843
C113  C     C_R   0.725745 0.821108 0.067313 -0.092627
C114  C     C_R   0.301711 0.884425 0.945038 -0.093165
C115  C     C_R   0.225787 0.321055 0.067332 -0.092611
C116  C     C_R   0.801685 0.384347 0.945023 -0.093227
C117  C     C_R   0.553390 0.157413 0.177749 0.546557
C118  C     C_R   0.446173 0.157082 0.822617 0.538420
C119  C     C_R   0.053391 0.657414 0.177749 0.546757
C120  C     C_R   0.946171 0.657081 0.822618 0.538494
C121  C     C_R   0.714399 0.858723 0.115166 0.078862
C122  C     C_R   0.472600 0.160852 0.872679 -0.005530
C123  C     C_R   0.303230 0.895549 0.893672 0.081378
C124  C     C_R   0.214444 0.358669 0.115187 0.078999
C125  C     C_R   0.803209 0.395493 0.893659 0.081592
C126  C     C_R   0.726142 0.808697 0.954630 -0.117265
C127  C     C_R   0.279142 0.826808 0.049945 -0.119450
C128  C     C_R   0.226161 0.308602 0.954640 -0.117228
C129  C     C_R   0.779095 0.326719 0.049928 -0.119396
C130  C     C_R   0.732248 0.795504 0.903433 -0.119236
C131  C     C_R   0.273519 0.811205 0.100529 -0.124161
C132  C     C_R   0.232266 0.295412 0.903442 -0.119309
C133  C     C_R   0.524034 0.164813 0.129052 -0.006490
C134  C     C_R   0.773475 0.311125 0.100514 -0.124294
C135  C     C_R   0.836545 0.841747 0.910028 -0.118695
C136  C     C_R   0.216837 0.968765 0.107752 -0.120374
C137  C     C_R   0.336543 0.341796 0.910025 -0.118719
C138  C     C_R   0.716845 0.468742 0.107742 -0.120463
C139  C     C_R   0.831039 0.851470 0.961166 -0.111205
C140  C     C_R   0.224489 0.986680 0.057169 -0.110433
C141  C     C_R   0.331040 0.351520 0.961164 -0.111191
C142  C     C_R   0.724494 0.486645 0.057157 -0.110416
C143  C     C_R   0.775259 0.839339 0.983882 0.035103
C144  C     C_R   0.972593 0.660845 0.872682 -0.005468
C145  C     C_R   0.253406 0.913343 0.027346 0.038937
C146  C     C_R   0.275267 0.339322 0.983886 0.035122
C147  C     C_R   0.753384 0.413279 0.027333 0.038954
C148  C     C_R   0.787180 0.815523 0.880565 0.023786
C149  C     C_R   0.239956 0.879291 0.129357 0.024658
C150  C     C_R   0.287185 0.315507 0.880567 0.023523
C151  C     C_R   0.739944 0.379252 0.129346 0.024160
C152  C     C_R   0.523129 0.167304 0.369221 0.020578
C153  C     C_R   0.469930 0.170396 0.628132 0.024140
C154  C     C_R   0.027790 0.668742 0.370995 0.023652
C155  C     C_R   0.024034 0.664818 0.129052 -0.006454
C156  C     C_R   0.973216 0.669413 0.629439 0.023201
C157  C     C_R   0.522208 0.262040 0.394277 -0.142085
C158  C     C_R   0.454262 0.257368 0.599927 -0.127021
C159  C     C_R   0.037006 0.759969 0.398095 -0.123115
C160  C     C_R   0.963964 0.760083 0.602076 -0.124478
C161  C     C_R   0.510527 0.265297 0.444951 -0.129399
C162  C     C_R   0.463964 0.259311 0.549061 -0.123676
C163  C     C_R   0.026240 0.762418 0.448813 -0.119010
C164  C     C_R   0.975550 0.762380 0.551487 -0.119906
C165  C     C_R   0.731955 0.000110 0.179777 0.562321
C166  C     C_R   0.524522 0.258410 0.102686 -0.131005
C167  C     C_R   0.268350 0.000680 0.820333 0.550611
C168  C     C_R   0.231957 0.500107 0.179779 0.561734
C169  C     C_R   0.768347 0.500673 0.820330 0.550238
C170  C     C_R   0.497331 0.174291 0.470952 0.035798
C171  C     C_R   0.490848 0.175386 0.525494 0.033856
C172  C     C_R   0.005010 0.674316 0.473197 0.036246
C173  C     C_R   0.997641 0.674713 0.527524 0.035292
C174  C     C_R   0.491577 0.081483 0.444530 -0.115150
C175  C     C_R   0.510494 0.091567 0.554345 -0.116071
C176  C     C_R   0.991610 0.585430 0.445419 -0.123366
Cr1   Cr    Cr6+3 0.756570 0.170940 0.251190 1.020099
Cr2   Cr    Cr6+3 0.374010 0.036240 0.749520 1.056575
Cr3   Cr    Cr6+3 0.125990 0.536240 0.250480 1.057271
Cr4   Cr    Cr6+3 0.874010 0.536240 0.749520 1.051332
Cr5   Cr    Cr6+3 0.243430 0.170940 0.748810 1.016078
Cr6   Cr    Cr6+3 0.256570 0.670940 0.251190 1.018654
Cr7   Cr    Cr6+3 0.743430 0.670940 0.748810 1.017084
Cr8   Cr    Cr6+3 0.623740 0.299110 0.249580 1.025667
Cr9   Cr    Cr6+3 0.376260 0.299110 0.750420 1.019033
Cr10  Cr    Cr6+3 0.123740 0.799110 0.249580 1.028033
Cr11  Cr    Cr6+3 0.876260 0.799110 0.750420 1.021493
Cr12  Cr    Cr6+3 0.625990 0.036240 0.250480 1.061259
H1    H     H_    0.464979 0.995479 0.882188 0.167239
H2    H     H_    0.338671 0.846245 0.963100 0.120279
H3    H     H_    0.201610 0.253962 0.054206 0.115727
H4    H     H_    0.838637 0.346141 0.963085 0.120260
H5    H     H_    0.535137 0.332592 0.375738 0.125348
H6    H     H_    0.430565 0.321159 0.616424 0.136197
H7    H     H_    0.056492 0.827495 0.380935 0.134137
H8    H     H_    0.943743 0.827074 0.618867 0.133017
H9    H     H_    0.533156 0.027159 0.537451 0.104532
H10   H     H_    0.478846 0.010864 0.463085 0.103409
H11   H     H_    0.030173 0.519130 0.538332 0.101787
H12   H     H_    0.504977 0.001605 0.125363 0.145094
H13   H     H_    0.973436 0.517411 0.463080 0.098694
H14   H     H_    0.511968 0.020791 0.626208 0.126417
H15   H     H_    0.503763 0.003939 0.375535 0.131706
H16   H     H_    0.006627 0.513204 0.626592 0.127463
H17   H     H_    0.995619 0.511298 0.374609 0.123753
H18   H     H_    0.515063 0.338253 0.464083 0.097775
H19   H     H_    0.447752 0.324521 0.527991 0.100395
H20   H     H_    0.037281 0.831818 0.469253 0.104866
H21   H     H_    0.964301 0.831116 0.530772 0.104722
H22   H     H_    0.699269 0.829145 0.373507 0.117979
H23   H     H_    0.964924 0.495480 0.882200 0.167303
H24   H     H_    0.286075 0.819583 0.628960 0.112054
H25   H     H_    0.142653 0.433265 0.381452 0.139391
H26   H     H_    0.844103 0.375578 0.627494 0.132105
H27   H     H_    0.814558 0.040184 0.540060 0.101571
H28   H     H_    0.188145 0.040801 0.460566 0.103423
H29   H     H_    0.313917 0.539840 0.539097 0.097804
H30   H     H_    0.651500 0.311316 0.480172 0.116249
H31   H     H_    0.834304 0.996070 0.625312 0.130479
H32   H     H_    0.168989 0.999718 0.374347 0.131437
H33   H     H_    0.328308 0.507118 0.627238 0.128083
H34   H     H_    0.004945 0.501622 0.125372 0.145026
H35   H     H_    0.640452 0.304378 0.390808 0.133830
H36   H     H_    0.468156 0.905728 0.959963 0.127519
H37   H     H_    0.479851 0.908578 0.050207 0.118214
H38   H     H_    0.968084 0.405741 0.959977 0.127532
H39   H     H_    0.979787 0.408599 0.050221 0.118225
H40   H     H_    0.698080 0.807053 0.464124 0.109294
H41   H     H_    0.286749 0.794213 0.538289 0.108011
H42   H     H_    0.146825 0.411790 0.469934 0.101507
H43   H     H_    0.833715 0.320233 0.541294 0.097734
H44   H     H_    0.654382 0.853637 0.541554 0.099165
H45   H     H_    0.879430 0.855699 0.893314 0.129321
H46   H     H_    0.340122 0.837586 0.461471 0.100975
H47   H     H_    0.173371 0.310592 0.535022 0.097359
H48   H     H_    0.832648 0.419805 0.463111 0.108956
H49   H     H_    0.676165 0.804456 0.627242 0.126817
H50   H     H_    0.319907 0.793482 0.374920 0.130208
H51   H     H_    0.183769 0.285832 0.623403 0.127185
H52   H     H_    0.821550 0.407370 0.372177 0.109678
H53   H     H_    0.756449 0.123098 0.482164 0.115872
H54   H     H_    0.255399 0.119885 0.517447 0.113511
H55   H     H_    0.338520 0.448448 0.467042 0.100231
H56   H     H_    0.191068 0.022508 0.129501 0.153235
H57   H     H_    0.657920 0.454220 0.535441 0.104251
H58   H     H_    0.762938 0.140780 0.393189 0.143493
H59   H     H_    0.251845 0.142560 0.606573 0.129135
H60   H     H_    0.333555 0.479770 0.377714 0.124567
H61   H     H_    0.667335 0.506826 0.621316 0.129680
H62   H     H_    0.485467 0.325738 0.875356 0.118771
H63   H     H_    0.538178 0.329096 0.121026 0.134873
H64   H     H_    0.985498 0.825723 0.875351 0.118910
H65   H     H_    0.038212 0.829092 0.121018 0.134953
H66   H     H_    0.510227 0.421654 0.952232 0.111431
H67   H     H_    0.379421 0.355802 0.893308 0.129330
H68   H     H_    0.526174 0.423565 0.042465 0.113758
H69   H     H_    0.010279 0.921637 0.952222 0.111525
H70   H     H_    0.026228 0.923554 0.042456 0.113804
H71   H     H_    0.814234 0.058624 0.114257 0.127712
H72   H     H_    0.173234 0.029459 0.879475 0.135418
H73   H     H_    0.314161 0.558742 0.114222 0.127587
H74   H     H_    0.673231 0.529458 0.879469 0.135176
H75   H     H_    0.682473 0.799139 0.970811 0.107834
H76   H     H_    0.300762 0.767503 0.028487 0.105698
H77   H     H_    0.182500 0.298984 0.970827 0.107859
H78   H     H_    0.691098 0.522513 0.129493 0.153311
H79   H     H_    0.800693 0.267394 0.028468 0.105739
H80   H     H_    0.693589 0.772937 0.881694 0.132967
H81   H     H_    0.291425 0.741071 0.116218 0.128373
H82   H     H_    0.193615 0.272788 0.881707 0.133117
H83   H     H_    0.791360 0.240972 0.116201 0.128350
H84   H     H_    0.830896 0.996333 0.032048 0.111340
H85   H     H_    0.167708 0.997201 0.967506 0.108992
H86   H     H_    0.330822 0.496442 0.032015 0.111322
H87   H     H_    0.667698 0.497178 0.967498 0.108982
H88   H     H_    0.870299 0.871477 0.982719 0.117093
H89   H     H_    0.701536 0.754062 0.054173 0.115724
H90   H     H_    0.205996 0.056124 0.041239 0.105756
H91   H     H_    0.370293 0.371588 0.982713 0.117063
H92   H     H_    0.706020 0.556105 0.041227 0.105779
I1    I     I_    0.651089 0.775853 0.157859 -0.419175
I2    I     I_    0.373880 0.817592 0.857256 -0.407255
I3    I     I_    0.151225 0.275700 0.157928 -0.419503
I4    I     I_    0.873850 0.317531 0.857233 -0.406696
O1    O     O_R   0.769900 0.064540 0.196060 -0.529427
O2    O     O_R   0.433710 0.069580 0.694600 -0.507760
O3    O     O_R   0.066290 0.569580 0.305400 -0.521960
O4    O     O_R   0.933710 0.569580 0.694600 -0.513927
O5    O     O_R   0.680760 0.993330 0.302620 -0.490802
O6    O     O_R   0.319240 0.993330 0.697380 -0.488309
O7    O     O_R   0.180760 0.493330 0.302620 -0.500554
O8    O     O_R   0.819240 0.493330 0.697380 -0.497246
O9    O     O_3   0.668770 0.168760 0.250420 -0.252543
O10   O     O_3   0.331230 0.168760 0.749580 -0.272052
O11   O     O_3   0.168770 0.668760 0.250420 -0.248513
O12   O     O_R   0.230100 0.064540 0.803940 -0.534853
O13   O     O_3   0.831230 0.668760 0.749580 -0.269355
O14   O     O_R   0.750800 0.274080 0.199250 -0.507182
O15   O     O_R   0.249200 0.274080 0.800750 -0.501202
O16   O     O_R   0.250800 0.774080 0.199250 -0.508209
O17   O     O_R   0.749200 0.774080 0.800750 -0.502405
O18   O     O_R   0.669990 0.371670 0.194150 -0.507405
O19   O     O_R   0.330010 0.371670 0.805850 -0.500129
O20   O     O_R   0.169990 0.871670 0.194150 -0.508720
O21   O     O_R   0.830010 0.871670 0.805850 -0.500160
O22   O     O_R   0.574600 0.238480 0.197800 -0.502793
O23   O     O_R   0.269900 0.564540 0.196060 -0.531207
O24   O     O_R   0.425400 0.238480 0.802200 -0.523450
O25   O     O_R   0.074600 0.738480 0.197800 -0.502941
O26   O     O_R   0.925400 0.738480 0.802200 -0.523754
O27   O     O_R   0.566130 0.068680 0.194240 -0.503044
O28   O     O_R   0.433870 0.068680 0.805760 -0.498841
O29   O     O_R   0.066130 0.568680 0.194240 -0.502886
O30   O     O_R   0.933870 0.568680 0.805760 -0.498708
O31   O     O_R   0.680610 0.992490 0.199570 -0.459182
O32   O     O_R   0.319390 0.992490 0.800430 -0.464656
O33   O     O_R   0.180610 0.492490 0.199570 -0.458894
O34   O     O_R   0.730100 0.564540 0.803940 -0.536413
O35   O     O_R   0.819390 0.492490 0.800430 -0.464535
O36   O     O_R   0.770060 0.065440 0.307230 -0.518442
O37   O     O_R   0.229940 0.065440 0.692770 -0.519768
O38   O     O_R   0.270060 0.565440 0.307230 -0.518946
O39   O     O_R   0.729940 0.565440 0.692770 -0.521457
O40   O     O_R   0.750960 0.274920 0.302300 -0.505652
O41   O     O_R   0.249040 0.274920 0.697700 -0.504914
O42   O     O_R   0.250960 0.774920 0.302300 -0.504467
O43   O     O_R   0.749040 0.774920 0.697700 -0.498130
O44   O     O_R   0.670160 0.372580 0.305320 -0.513379
O45   O     O_R   0.574760 0.239320 0.300850 -0.511205
O46   O     O_R   0.329840 0.372580 0.694680 -0.517124
O47   O     O_R   0.170160 0.872580 0.305320 -0.520512
O48   O     O_R   0.829840 0.872580 0.694680 -0.517793
O49   O     O_R   0.425240 0.239320 0.699150 -0.506426
O50   O     O_R   0.074760 0.739320 0.300850 -0.504744
O51   O     O_R   0.925240 0.739320 0.699150 -0.504613
O52   O     O_R   0.566290 0.069580 0.305400 -0.515128

loop_
_geom_bond_atom_site_label_1
_geom_bond_atom_site_label_2
_ccdc_geom_bond_type
C21   C26   A    
C34   C56   A    
C114  H2    S    
C113  H89   S    
C162  H19   S    
C132  C150  A    
C107  C112  A    
C38   H30   S    
Cr5   O12   S    
C120  C144  S    
Cr6   O11   S    
C136  C140  A    
C117  C133  S    
C79   C87   A    
C48   H49   S    
C135  C139  A    
C89   O15   A    
C32   H60   S    
C157  H5    S    
C72   O7    A    
C97   C124  A    
C34   H27   S    
C132  H82   S    
C17   H40   S    
C95   C99   A    
C94   H69   S    
C75   C122  A    
C29   C33   A    
C126  C143  A    
Cr7   O17   S    
C6    H17   S    
C98   C169  S    
Cr7   O43   S    
C162  C171  A    
Cr9   O24   S    
C68   C90   A    
C128  H77   S    
C25   C60   S    
C107  H87   S    
C81   C86   A    
C160  H8    S    
C115  H3    S    
C116  H4    S    
C72   O38   A    
C80   C83   A    
C42   O43   A    
C136  C149  A    
C73   O39   A    
C25   C29   A    
C109  C145  S    
C27   C31   A    
C140  H90   S    
C1    O14   A    
Cr11  O21   S    
C141  H91   S    
C47   C64   A    
C102  H73   S    
C111  O17   A    
C123  I2    S    
C17   C21   A    
Cr8   O44   S    
C120  O30   A    
C108  C113  A    
C100  O20   A    
C19   C23   A    
C70   O5    A    
Cr3   O29   S    
Cr5   O37   S    
C39   O40   A    
C125  I4    S    
C156  C160  A    
C16   C20   A    
C164  C173  A    
C158  H6    S    
Cr10  O11   S    
C137  H67   S    
C127  C145  A    
C89   C150  S    
C74   H12   S    
C22   C27   A    
Cr1   O14   S    
C36   C44   A    
C37   C45   A    
C27   H54   S    
C43   C61   A    
C170  C174  A    
C47   H35   S    
C152  C157  A    
C49   C62   A    
C30   H58   S    
Cr9   O19   S    
Cr10  O20   S    
C51   C64   A    
C140  C145  A    
C22   C58   S    
C66   C153  S    
C53   C58   A    
C138  C151  A    
C82   C85   A    
C76   C155  A    
C44   C62   A    
Cr12  O27   S    
C77   H23   S    
C70   O36   A    
C111  C148  S    
Cr1   O1    S    
C165  O31   A    
C67   O50   A    
C77   C82   A    
C49   C53   A    
C134  C151  A    
Cr3   O3    S    
C126  H75   S    
C73   O8    A    
C51   C55   A    
C127  C131  A    
C129  C147  A    
C81   C88   A    
C169  O35   A    
C12   H22   S    
C48   C52   A    
C69   O4    A    
C117  O22   A    
Cr12  O52   S    
C103  C107  A    
Cr8   O45   S    
C133  C166  A    
C53   H46   S    
Cr6   O38   S    
C41   O47   A    
C44   H32   S    
C55   H48   S    
C15   H25   S    
C85   C86   A    
C23   C59   S    
Cr4   O8    S    
C67   C154  S    
C167  O32   A    
C50   H51   S    
Cr12  O31   S    
C13   C57   A    
C170  C171  S    
C163  H20   S    
C127  H76   S    
C118  C122  S    
C157  C161  A    
C165  O1    A    
C153  C158  A    
C139  C143  A    
C98   C125  A    
C7    C156  A    
Cr4   O13   S    
C51   H52   S    
C20   H43   S    
C86   H39   S    
C121  I1    S    
C84   H37   S    
C54   C59   A    
C4    C152  A    
C71   O37   A    
C69   C156  S    
Cr5   O15   S    
Cr6   O16   S    
C66   O2    A    
C142  H92   S    
C91   C92   A    
C4    H15   S    
C68   C94   A    
C129  C134  A    
C41   O42   A    
Cr11  O26   S    
C83   C84   A    
C99   H71   S    
C8    C12   A    
Cr1   O36   S    
C23   C28   A    
C16   H26   S    
C37   C59   A    
C109  C114  A    
C38   C60   A    
C114  C123  A    
Cr1   O40   S    
C26   C30   A    
C116  C125  A    
C119  O25   A    
C1    O18   A    
C112  C116  A    
C65   O45   A    
C46   C87   A    
C167  O12   A    
C111  O21   A    
C105  C109  A    
C96   C123  A    
C18   C22   A    
C120  O26   A    
C142  C147  A    
Cr2   O28   S    
C34   C43   A    
C39   O44   A    
C11   C33   A    
C97   C168  S    
C8    C70   S    
C112  C147  S    
C105  H85   S    
C154  C159  A    
C65   O52   A    
C36   H28   S    
C128  C146  A    
C35   C79   A    
C137  C150  A    
C40   O41   A    
C89   O19   A    
C113  C121  A    
C55   C60   A    
C172  C176  A    
C92   H66   S    
C117  O27   A    
Cr1   O9    S    
C118  O28   A    
Cr2   O6    S    
C168  O23   A    
Cr3   O11   S    
C37   H29   S    
Cr2   O32   S    
Cr12  O5    S    
C26   H53   S    
Cr2   O2    S    
C15   C19   A    
C39   C64   S    
C50   C54   A    
C40   C63   S    
Cr10  O25   S    
C160  C164  A    
C75   H1    S    
C3    C7    A    
C46   C92   A    
C20   C25   A    
C126  C130  A    
C98   C103  A    
C35   C166  A    
Cr6   O23   S    
C175  H9    S    
Cr11  O48   S    
C12   C17   A    
C71   O6    A    
C97   C102  A    
C130  H80   S    
C95   C121  A    
C99   C104  A    
C4    C174  A    
C96   C101  A    
C5    C175  A    
C41   C62   S    
C95   C165  S    
C40   O46   A    
C2    C122  A    
C168  O33   A    
C24   H64   S    
C138  C142  A    
C76   C81   A    
C159  H7    S    
C9    C14   A    
C104  H84   S    
C7    H16   S    
C11   C16   A    
C110  C146  S    
C28   C32   A    
C164  H21   S    
C96   C167  S    
C33   H61   S    
C6    C154  A    
C141  C146  A    
C83   H36   S    
C88   C90   A    
C11   C73   S    
C161  H18   S    
Cr9   O49   S    
C104  C108  A    
Cr11  O51   S    
C137  C141  A    
C115  C124  A    
C29   H57   S    
C43   H31   S    
C9    C71   S    
C49   H50   S    
C18   H41   S    
C21   C56   S    
C100  C149  S    
C166  H63   S    
C82   C90   A    
C14   H24   S    
C8    C30   A    
C45   H33   S    
C24   C144  A    
C103  H74   S    
C1    C151  S    
C19   H42   S    
C24   C68   A    
C93   H70   S    
C74   C78   A    
C110  C115  A    
Cr7   O13   S    
C108  C143  S    
Cr7   O39   S    
C101  H72   S    
C93   C94   A    
C14   C18   A    
C106  H86   S    
C2    C46   A    
Cr4   O30   S    
C80   C87   A    
C36   C58   A    
C10   C15   A    
C2    H62   S    
C69   O51   A    
C91   H68   S    
Cr10  O50   S    
C74   C133  A    
C66   O49   A    
C13   C155  A    
C67   O3    A    
C3    C173  A    
C118  O24   A    
Cr2   O10   S    
C3    H11   S    
C135  H45   S    
Cr3   O7    S    
C28   H55   S    
C100  O16   A    
C75   C80   A    
C42   O48   A    
Cr12  O9    S    
C129  H79   S    
Cr5   O41   S    
C57   C93   A    
C31   H59   S    
C54   H47   S    
C128  C132  A    
C50   C63   A    
C101  C105  A    
C174  H10   S    
C136  H56   S    
C130  C148  A    
Cr7   O34   S    
Cr5   O10   S    
C5    H14   S    
C9    C31   A    
C78   C79   A    
C52   H44   S    
Cr8   O22   S    
C138  H78   S    
C76   H34   S    
C134  H83   S    
C171  C175  A    
C45   C63   A    
Cr4   O4    S    
C163  C172  A    
C10   C32   A    
Cr8   O9    S    
C131  H81   S    
C13   H65   S    
C119  O29   A    
C42   C61   S    
C38   C47   A    
C161  C170  A    
C169  O34   A    
Cr10  O47   S    
C159  C163  A    
C139  H88   S    
C172  C173  S    
C106  C110  A    
C124  I3    S    
C119  C155  S    
C176  H13   S    
Cr3   O33   S    
Cr9   O46   S    
C85   H38   S    
Cr6   O42   S    
C57   C88   A    
C65   C152  S    
C77   C144  A    
Cr11  O13   S    
C48   C61   A    
C6    C176  A    
C5    C153  A    
C102  C106  A    
C131  C149  A    
C158  C162  A    
C78   C84   A    
C135  C148  A    
Cr8   O18   S    
Cr9   O10   S    
C52   C56   A    
C10   C72   S    
Cr4   O35   S    
C35   C91   A    
