data_mof_unit_39832.cif
_audit_creation_date              2012-12-11T16:07:36-0500
_audit_creation_method            fapswitch 2.2
_symmetry_space_group_name_H-M    P1
_symmetry_Int_Tables_number       1
_space_group_crystal_system       triclinic
_cell_length_a                    7.006258
_cell_length_b                    14.461198
_cell_length_c                    15.938345
_cell_angle_alpha                 90.337151
_cell_angle_beta                  89.981314
_cell_angle_gamma                 89.981878
_cell_volume                      1614.8272054

loop_
_atom_site_label
_atom_site_type_symbol
_atom_type_description
_atom_site_fract_x
_atom_site_fract_y
_atom_site_fract_z
_atom_type_partial_charge
O1    O     O_R   0.494320 0.415010 0.412140 -0.545564
O2    O     O_R   0.824010 0.404260 0.587250 -0.546893
O3    O     O_R   0.994320 0.584990 0.587860 -0.524692
C1    C     C_R   0.653907 0.382581 0.616536 0.708091
O4    O     O_R   0.824040 0.403870 0.412760 -0.516356
O5    O     O_R   0.994350 0.584590 0.412130 -0.528968
C2    C     C_R   0.655864 0.381873 0.383513 0.704189
O6    O     O_R   0.494300 0.415410 0.587870 -0.538149
O7    O     O_3   0.660800 0.559290 0.500000 -0.377525
V1    V     V_3+5 0.935650 0.489000 0.500000 1.457877
O8    O     O_R   0.324060 0.595740 0.412750 -0.537150
C3    C     C_R   0.155858 0.622271 0.387375 0.796712
O9    O     O_R   0.324040 0.596130 0.587240 -0.553514
C4    C     C_R   0.155412 0.617280 0.616561 0.721403
V2    V     V_3+5 0.435660 0.511000 0.500000 1.401845
O10   O     O_3   0.160640 0.440710 0.500000 -0.373781
C5    C     C_3   0.015715 0.679254 0.764879 0.328116
C6    C     C_3   0.180747 0.709090 0.821726 0.261919
C7    C     C_3   0.121234 0.810934 0.812667 -0.107754
C8    C     C_3   0.952122 0.781389 0.755184 -0.264141
C9    C     C_3   0.085019 0.789368 0.676634 -0.277662
C10   C     C_3   0.251215 0.817645 0.735238 0.368661
C11   C     C_3   0.312444 0.716148 0.744962 0.000863
C12   C     C_3   0.145641 0.686546 0.687286 -0.113682
H1    H     H_    0.807251 0.811801 0.759060 0.170693
H2    H     H_    0.048300 0.823521 0.616584 0.135598
C13   C     C_3   0.314080 0.828430 0.238142 0.214605
H3    H     H_    0.431231 0.801945 0.196845 0.086672
C14   C     C_3   0.308118 0.772870 0.321492 -0.108354
H4    H     H_    0.272430 0.824498 0.370630 0.198608
H5    H     H_    0.214427 0.706087 0.103964 0.156670
C15   C     C_3   0.112515 0.716061 0.156832 -0.534225
C16   C     C_3   0.956596 0.830204 0.254432 -0.370133
C17   C     C_3   0.122277 0.816589 0.190083 -0.002269
H6    H     H_    0.816831 0.828570 0.221432 0.133740
H7    H     H_    0.970426 0.899723 0.283849 0.188903
C18   C     C_3   0.148665 0.695643 0.317524 0.021520
C19   C     C_3   0.152208 0.645124 0.229178 0.616822
C20   C     C_3   0.960161 0.752457 0.323008 -0.066662
H8    H     H_    0.847084 0.702905 0.306499 0.191385
H9    H     H_    0.968100 0.704032 0.129677 0.175744
C21   C     C_3   0.534450 0.219400 0.654093 -0.034884
H10   H     H_    0.639886 0.187816 0.610103 0.135544
C22   C     C_3   0.507020 0.147076 0.727956 0.464192
C23   C     C_3   0.537173 0.352740 0.767883 -0.011666
C24   C     C_3   0.837131 0.279865 0.715360 -0.476477
C25   C     C_3   0.634921 0.310842 0.686358 0.026704
H11   H     H_    0.915239 0.340525 0.741058 0.178821
H12   H     H_    0.920525 0.252741 0.661260 0.169717
C26   C     C_3   0.614740 0.184615 0.809384 0.035809
C27   C     C_3   0.533280 0.279606 0.840209 0.173120
C28   C     C_3   0.825352 0.204152 0.783320 -0.454207
H13   H     H_    0.891685 0.139469 0.759162 0.210663
H14   H     H_    0.910748 0.226715 0.838689 0.181064
H15   H     H_    0.632572 0.409701 0.789760 0.112387
H16   H     H_    0.631407 0.304961 0.890780 0.036947
C29   C     C_3   0.557508 0.353058 0.230595 -0.030157
H17   H     H_    0.406284 0.369432 0.245403 0.151263
C30   C     C_3   0.559247 0.281067 0.157292 -0.412749
H18   H     H_    0.653832 0.303531 0.105080 0.144391
H19   H     H_    0.412894 0.275985 0.130430 0.145132
H20   H     H_    0.376386 0.252886 0.355444 0.141525
H21   H     H_    0.343607 0.161330 0.240796 0.141342
C31   C     C_3   0.520107 0.226020 0.337988 -0.082717
C32   C     C_3   0.851569 0.271527 0.291064 0.237686
C33   C     C_3   0.648639 0.310607 0.312198 0.054192
H22   H     H_    0.910689 0.241946 0.349980 0.095445
C34   C     C_3   0.626823 0.185045 0.188236 0.025165
C35   C     C_3   0.494310 0.158318 0.262292 -0.322685
C36   C     C_3   0.839247 0.195979 0.220789 -0.007928
H23   H     H_    0.926514 0.220489 0.166801 0.151338
H24   H     H_    0.518461 0.085744 0.280994 0.171050
O11   O     O_R   0.771990 0.083520 0.910980 -0.549895
O12   O     O_R   0.442180 0.095020 0.086060 -0.541153
O13   O     O_R   0.271950 0.914280 0.086680 -0.531570
C37   C     C_R   0.611644 0.115427 0.116404 0.690322
O14   O     O_R   0.442270 0.094630 0.911580 -0.523706
O15   O     O_R   0.272040 0.913890 0.910940 -0.522239
C38   C     C_R   0.610097 0.115019 0.881327 0.761710
O16   O     O_R   0.771900 0.083910 0.086710 -0.547376
O17   O     O_3   0.605520 0.939610 0.998840 -0.369357
V3    V     V_3+5 0.330640 0.009880 0.998810 1.470736
O18   O     O_R   0.942330 0.902710 0.911540 -0.544847
C39   C     C_R   0.111133 0.880883 0.882789 0.763503
O19   O     O_R   0.942240 0.903100 0.086030 -0.555297
C40   C     C_R   0.110583 0.883770 0.116888 0.744317
V4    V     V_3+5 0.830640 0.987830 0.998780 1.420365
O20   O     O_3   0.105630 0.058150 0.998800 -0.379951
O21   O     O_3   0.228125 0.667437 0.897910 -0.657513
H25   H     H_    0.257970 0.602187 0.883747 0.288151
C41   C     C_3   0.504571 0.742504 0.347442 -0.845617
H26   H     H_    0.547491 0.677744 0.315737 0.251522
H27   H     H_    0.601476 0.799345 0.331414 0.220078
H28   H     H_    0.511576 0.733932 0.416553 0.230987
O22   O     O_3   0.328309 0.599288 0.217862 -0.658879
H29   H     H_    0.420742 0.641445 0.190720 0.263625
C42   C     C_3   0.917479 0.790532 0.413133 -0.828502
H30   H     H_    0.831945 0.739599 0.448699 0.229800
H31   H     H_    0.045587 0.802507 0.452152 0.184519
H32   H     H_    0.836604 0.856513 0.411570 0.218513
O23   O     O_3   0.008110 0.577562 0.227259 -0.650486
H33   H     H_    0.025628 0.541926 0.174369 0.307581
C43   C     C_3   0.358210 0.231473 0.596106 -0.805097
H34   H     H_    0.309932 0.163311 0.572037 0.190882
H35   H     H_    0.237885 0.265736 0.627725 0.224872
H36   H     H_    0.391946 0.271033 0.539002 0.232664
O24   O     O_3   0.898579 0.603109 0.780771 -0.658791
H37   H     H_    0.860970 0.608767 0.840534 0.287125
O25   O     O_3   0.595228 0.062946 0.704677 -0.651576
H38   H     H_    0.539605 0.042243 0.650398 0.296467
C44   C     C_3   0.292614 0.125116 0.743945 -0.643068
H39   H     H_    0.212417 0.188120 0.760541 0.220611
H40   H     H_    0.224630 0.094200 0.687676 0.174378
H41   H     H_    0.270680 0.071350 0.791741 0.230398
C45   C     C_3   0.343017 0.401479 0.756779 -0.687680
H42   H     H_    0.232536 0.352646 0.736217 0.222501
H43   H     H_    0.296275 0.431878 0.817539 0.189632
H44   H     H_    0.350693 0.460595 0.713456 0.201309
O26   O     O_3   0.350034 0.269199 0.875394 -0.648149
H45   H     H_    0.338437 0.314428 0.922250 0.278815
C46   C     C_3   0.644822 0.444904 0.201350 -0.634335
H46   H     H_    0.786998 0.434008 0.172897 0.239009
H47   H     H_    0.553200 0.474992 0.151676 0.206217
H48   H     H_    0.654966 0.495692 0.253601 0.230983
O27   O     O_3   0.975758 0.342575 0.266404 -0.641997
H49   H     H_    0.106104 0.315953 0.267194 0.266189
C47   C     C_3   0.933901 0.104324 0.249759 -0.825205
H50   H     H_    0.005264 0.068691 0.196556 0.237703
H51   H     H_    0.047857 0.116757 0.296785 0.198690
H52   H     H_    0.829897 0.055799 0.277442 0.198149
C48   C     C_3   0.594979 0.173255 0.415239 -0.836955
H53   H     H_    0.479199 0.129768 0.441496 0.224105
H54   H     H_    0.715111 0.126653 0.399153 0.226584
H55   H     H_    0.646709 0.221652 0.464194 0.189409
O28   O     O_3   0.376570 0.890656 0.720054 -0.636461
H56   H     H_    0.440273 0.874984 0.666282 0.282207
C49   C     C_3   0.513761 0.678978 0.743595 -0.672839
H57   H     H_    0.588388 0.705141 0.800156 0.220917
H58   H     H_    0.510972 0.602424 0.745743 0.208794
H59   H     H_    0.587882 0.701619 0.685715 0.215543
O29   O     O_3   0.346663 0.922542 0.256024 -0.660159
H60   H     H_    0.486798 0.930166 0.261652 0.265639

loop_
_geom_bond_atom_site_label_1
_geom_bond_atom_site_label_2
_ccdc_geom_bond_type
C36   C47   S    
O18   V4    S    
C9    H2    S    
O23   H33   S    
C13   C14   S    
O22   H29   S    
C29   C33   S    
C1    O6    A    
C48   H55   S    
C26   C38   S    
C5    C8    S    
O17   V3    S    
O28   H56   S    
O19   C40   A    
C49   H58   S    
C24   H12   S    
C16   C20   S    
O12   C37   A    
C18   C19   S    
C6    C7    S    
C19   O23   S    
C5    O24   S    
O5    C3    A    
C20   C42   S    
C32   H22   S    
C8    H1    S    
C23   C27   S    
C32   C36   S    
C24   C28   S    
C16   H7    S    
C27   H16   S    
C17   C40   S    
C4    C12   S    
C3    C18   S    
C23   C45   S    
O11   V4    S    
C46   H48   S    
H20   C31   S    
C43   H34   S    
C16   H6    S    
O8    V2    S    
H21   C35   S    
C34   C35   S    
C45   H43   S    
C19   O22   S    
C27   O26   S    
C15   H9    S    
C36   H23   S    
O1    V2    S    
C15   C19   S    
C44   H41   S    
O7    V1    S    
C22   O25   S    
C23   C25   S    
C30   H18   S    
O9    C4    A    
C21   C43   S    
C21   C22   S    
O12   V3    S    
C42   H31   S    
C28   H14   S    
C42   H30   S    
O19   V4    S    
C13   C17   S    
C49   H59   S    
C24   H11   S    
C30   H19   S    
C5    C12   S    
V2    O10   S    
C6    C11   S    
C7    C10   S    
C43   H35   S    
O25   H38   S    
C41   H26   S    
O4    C2    A    
C26   C27   S    
C32   O27   S    
C35   H24   S    
O2    C1    A    
C47   H51   S    
C14   H4    S    
C30   C34   S    
C41   H27   S    
O15   V3    S    
O13   C40   A    
C26   C28   S    
O18   C39   A    
C31   C48   S    
C11   C12   S    
C45   H44   S    
C5    C6    S    
O11   C38   A    
O14   C38   A    
C44   H40   S    
C31   C35   S    
C31   C33   S    
C46   H46   S    
O17   V4    S    
O3    C4    A    
O6    V2    S    
O9    V2    S    
O27   H49   S    
C34   C37   S    
C21   H10   S    
O24   H37   S    
C7    C39   S    
O2    V1    S    
C14   C41   S    
C42   H32   S    
C28   H13   S    
C22   C26   S    
C24   C25   S    
C44   H39   S    
O1    C2    A    
C6    O21   S    
C11   C49   S    
H5    C15   S    
C37   O16   A    
C48   H54   S    
O5    V1    S    
O26   H45   S    
O13   V3    S    
C47   H50   S    
O16   V4    S    
C49   H57   S    
C10   O28   S    
C7    C8    S    
O7    V2    S    
C47   H52   S    
O4    V1    S    
C18   C20   S    
O3    V1    S    
V1    O10   S    
O29   H60   S    
C2    C33   S    
C29   H17   S    
O14   V3    S    
V3    O20   S    
C13   O29   S    
C16   C17   S    
C43   H36   S    
C21   C25   S    
C46   H47   S    
C29   C30   S    
C29   C46   S    
C20   H8    S    
C22   C44   S    
O15   C39   A    
C8    C9    S    
C23   H15   S    
V4    O20   S    
C34   C36   S    
C32   C33   S    
C9    C12   S    
C14   C18   S    
C13   H3    S    
C10   C11   S    
C45   H42   S    
O21   H25   S    
C9    C10   S    
C48   H53   S    
O8    C3    A    
C15   C17   S    
C41   H28   S    
C1    C25   S    
