data_mof_unit_26738.cif
_audit_creation_date              2012-12-10T16:41:56-0500
_audit_creation_method            fapswitch 2.2
_symmetry_space_group_name_H-M    P1
_symmetry_Int_Tables_number       1
_space_group_crystal_system       triclinic
_cell_length_a                    10.899405
_cell_length_b                    8.685235
_cell_length_c                    7.547191
_cell_angle_alpha                 102.780753
_cell_angle_beta                  95.534453
_cell_angle_gamma                 93.785053
_cell_volume                      690.683598411

loop_
_atom_site_label
_atom_site_type_symbol
_atom_type_description
_atom_site_fract_x
_atom_site_fract_y
_atom_site_fract_z
_atom_type_partial_charge
C1    C     C_R   0.496240 0.200031 0.453404 0.869148
C2    C     C_2   0.515266 0.968035 0.570554 -0.357854
C3    C     C_R   0.265553 0.494320 0.499363 0.834002
C4    C     C_R   0.506230 0.799893 0.546250 0.891624
C5    C     C_R   0.734627 0.508114 0.501016 0.802999
C6    C     C_2   0.922612 0.474715 0.357274 -0.197402
C7    C     C_2   0.867411 0.536034 0.505857 -0.149887
C8    C     C_2   0.056621 0.488751 0.353795 -0.152601
C9    C     C_2   0.133089 0.477138 0.498863 -0.298942
C10   C     C_2   0.491630 0.031579 0.427500 -0.341288
Cu1   Cu    Cu3+1 0.513740 0.517380 0.684380 0.954338
Cu2   Cu    Cu3+1 0.486260 0.482620 0.315620 0.956468
H1    H     H_    0.867562 0.409678 0.232068 0.172010
H2    H     H_    0.091641 0.501770 0.227412 0.181586
H3    H     H_    0.098087 0.452033 0.620344 0.156897
H4    H     H_    0.466774 0.959382 0.289718 0.178565
H5    H     H_    0.543225 0.039506 0.707051 0.163874
N1    N     N_2   0.465540 0.456420 0.038510 -0.106524
N2    N     N_2   0.534460 0.543580 0.961490 -0.165419
O1    O     O_R   0.508930 0.286130 0.619780 -0.597182
O2    O     O_R   0.485720 0.256780 0.308360 -0.593765
O3    O     O_R   0.333540 0.514670 0.655670 -0.595366
O4    O     O_R   0.310330 0.485320 0.344250 -0.583109
O5    O     O_R   0.514280 0.743220 0.691640 -0.597918
O6    O     O_R   0.491070 0.713870 0.380220 -0.586100
O7    O     O_R   0.689670 0.514680 0.655750 -0.587883
O8    O     O_R   0.666460 0.485330 0.344330 -0.591486
C11   C     C_1   0.932523 0.643953 0.667578 0.267220
N3    N     N_1   0.983985 0.730241 0.796538 -0.285386
C12   C     C_3   0.400415 0.309100 0.936085 -0.353573
H6    H     H_    0.334029 0.268069 0.021922 0.163300
H7    H     H_    0.343899 0.319979 0.812059 0.189939
H8    H     H_    0.466395 0.217946 0.909793 0.166602
C13   C     C_1   0.614123 0.664967 0.073073 0.540014
N4    N     N_1   0.681655 0.766562 0.164032 -0.346901

loop_
_geom_bond_atom_site_label_1
_geom_bond_atom_site_label_2
_ccdc_geom_bond_type
C2    C4    S    
Cu1   Cu2   S    
C1    O2    A    
C6    C7    D    
N1    C12   S    
Cu1   O3    S    
C3    O4    A    
C12   H8    S    
Cu2   O6    S    
C4    O6    A    
C9    H3    S    
C10   H4    S    
C2    H5    S    
C12   H7    S    
Cu2   O4    S    
Cu1   N2    S    
C3    C9    S    
C6    C8    S    
C11   N3    T    
C13   N4    T    
C12   H6    S    
C4    O5    A    
Cu1   O1    S    
C1    C10   S    
Cu2   O8    S    
C5    O7    A    
C2    C10   D    
Cu1   O5    S    
C6    H1    S    
N1    N2    D    
Cu2   N1    S    
C5    C7    S    
C1    O1    A    
C8    H2    S    
Cu1   O7    S    
C5    O8    A    
Cu2   O2    S    
C7    C11   S    
C8    C9    D    
C3    O3    A    
N2    C13   S    
