data_mof_unit_28710.cif
_audit_creation_date              2012-12-11T14:17:38-0500
_audit_creation_method            fapswitch 2.2
_symmetry_space_group_name_H-M    P1
_symmetry_Int_Tables_number       1
_space_group_crystal_system       triclinic
_cell_length_a                    6.945278
_cell_length_b                    13.664912
_cell_length_c                    20.395062
_cell_angle_alpha                 102.199947
_cell_angle_beta                  90.404101
_cell_angle_gamma                 90.294255
_cell_volume                      1891.82170988

loop_
_atom_site_label
_atom_site_type_symbol
_atom_type_description
_atom_site_fract_x
_atom_site_fract_y
_atom_site_fract_z
_atom_type_partial_charge
O1    O     O_R   0.506860 0.599390 0.449240 -0.542231
O2    O     O_R   0.180220 0.594600 0.586780 -0.541253
O3    O     O_R   0.004500 0.400610 0.550760 -0.545032
C1    C     C_R   0.349252 0.615933 0.613530 0.768945
O4    O     O_R   0.177490 0.611290 0.451970 -0.542720
O5    O     O_R   0.001750 0.417420 0.414990 -0.544068
C2    C     C_R   0.345781 0.637646 0.434988 0.690359
O6    O     O_R   0.509610 0.582580 0.585010 -0.530080
O7    O     O_3   0.337420 0.436370 0.488020 -0.380391
V1    V     V_3+5 0.064680 0.511800 0.502220 1.460553
O8    O     O_R   0.671710 0.405400 0.413220 -0.552437
C3    C     C_R   0.839578 0.384038 0.386537 0.722290
O9    O     O_R   0.674440 0.388710 0.548030 -0.532546
C4    C     C_R   0.843640 0.362627 0.565097 0.786732
V2    V     V_3+5 0.564010 0.488200 0.497780 1.461999
O10   O     O_3   0.841140 0.563630 0.511980 -0.369918
C5    C     C_R   0.921613 0.116566 0.613678 -0.092858
H1    H     H_    0.921498 0.167507 0.521317 0.131904
H2    H     H_    0.951915 0.040253 0.588407 0.183923
C6    C     C_R   0.855967 0.286572 0.605594 -0.117565
C7    C     C_R   0.844722 0.313951 0.929859 -0.201927
C8    C     C_R   0.855596 0.392631 0.895929 0.028976
C9    C     C_R   0.870570 0.369833 0.825593 -0.112912
C10   C     C_R   0.867812 0.269586 0.788359 0.079785
C11   C     C_R   0.874249 0.191521 0.824736 -0.031175
C12   C     C_R   0.869273 0.244105 0.716471 -0.103354
C13   C     C_R   0.903525 0.142737 0.683756 -0.051700
C14   C     C_R   0.917704 0.068130 0.721097 0.620242
C15   C     C_R   0.897951 0.091814 0.790196 -0.261640
C16   C     C_R   0.834014 0.314237 0.675314 0.562077
C17   C     C_R   0.902709 0.188560 0.575154 -0.303791
C18   C     C_R   0.860591 0.214870 0.895394 -0.056120
H3    H     H_    0.828329 0.329294 0.983855 0.097101
H4    H     H_    0.897029 0.431443 0.801611 0.185751
H5    H     H_    0.905687 0.030991 0.816587 0.139609
C19   C     C_2   0.005259 0.288392 0.285402 -0.134457
C20   C     C_2   0.841889 0.315600 0.319749 -0.305936
H6    H     H_    0.142366 0.316743 0.307723 0.133329
H7    H     H_    0.703272 0.287640 0.299175 0.126051
C21   C     C_2   0.014040 0.220207 0.217816 -0.139778
C22   C     C_2   0.859017 0.183401 0.180302 -0.305611
H8    H     H_    0.156949 0.200448 0.198270 0.131822
H9    H     H_    0.714879 0.202380 0.198298 0.127577
C23   C     C_2   0.204014 0.789850 0.782431 -0.083953
C24   C     C_2   0.363048 0.814685 0.820332 -0.315100
H10   H     H_    0.066243 0.820299 0.801439 0.146340
H11   H     H_    0.501488 0.784264 0.802703 0.133724
C25   C     C_2   0.202785 0.721226 0.714963 -0.077742
C26   C     C_2   0.361270 0.684045 0.680385 -0.289340
H12   H     H_    0.061525 0.701669 0.692726 0.154646
H13   H     H_    0.504386 0.703278 0.700528 0.141022
C27   C     C_R   0.310591 0.886848 0.386645 -0.158521
H14   H     H_    0.305638 0.836773 0.479426 0.121053
H15   H     H_    0.287223 0.010712 0.303116 0.124561
H16   H     H_    0.287694 0.964220 0.411376 0.115674
C28   C     C_R   0.351308 0.714597 0.394978 -0.032779
C29   C     C_R   0.393575 0.685330 0.071232 -0.166152
C30   C     C_R   0.408208 0.609928 0.107131 -0.124895
C31   C     C_R   0.394373 0.632159 0.176816 -0.172833
C32   C     C_R   0.365130 0.731662 0.212689 0.077000
C33   C     C_R   0.348199 0.808545 0.175325 0.064778
C34   C     C_R   0.353919 0.757604 0.284277 0.073528
C35   C     C_R   0.325110 0.859373 0.316543 0.140021
C36   C     C_R   0.309189 0.933067 0.278777 -0.204487
C37   C     C_R   0.320631 0.908288 0.209376 -0.198706
C38   C     C_R   0.368488 0.686167 0.325220 -0.217178
C39   C     C_R   0.321783 0.814714 0.425523 -0.163137
C40   C     C_R   0.362913 0.784283 0.104481 -0.095047
H17   H     H_    0.388005 0.607534 0.304651 0.093508
H18   H     H_    0.406525 0.666468 0.017127 0.125308
H19   H     H_    0.408309 0.569660 0.200933 0.109220
H20   H     H_    0.431550 0.533497 0.080718 0.126406
H21   H     H_    0.307473 0.968447 0.182611 0.122947
O11   O     O_R   0.203230 0.917310 0.915020 -0.536901
O12   O     O_R   0.535500 0.888690 0.048040 -0.549914
O13   O     O_R   0.711080 0.082610 0.085000 -0.542657
C41   C     C_R   0.367342 0.861972 0.064731 0.688027
O14   O     O_R   0.532630 0.905370 0.913230 -0.550811
O15   O     O_R   0.708190 0.099410 0.949230 -0.536283
C42   C     C_R   0.364090 0.883851 0.886657 0.750202
O16   O     O_R   0.206120 0.900510 0.050790 -0.544316
O17   O     O_3   0.375360 0.063570 0.011990 -0.369317
V3    V     V_3+5 0.648170 0.988200 0.997780 1.394607
O18   O     O_R   0.038240 0.111390 0.951940 -0.540165
C43   C     C_R   0.869249 0.137298 0.934909 0.702599
O19   O     O_R   0.041120 0.094710 0.086750 -0.543338
C44   C     C_R   0.872746 0.115701 0.113523 0.741495
V4    V     V_3+5 0.148810 0.011930 0.002180 1.412533
O20   O     O_3   0.871750 0.936430 0.988010 -0.384370
F1    F     F_    0.946899 0.970993 0.690502 -0.702360
F2    F     F_    0.767406 0.407686 0.700583 -0.729850
C45   C     C_R   0.854923 0.498514 0.934355 0.102866
C46   C     C_R   0.938377 0.524409 0.999049 -0.129911
C47   C     C_R   0.931885 0.622810 0.035918 -0.134397
C48   C     C_R   0.848281 0.697364 0.008189 -0.068215
C49   C     C_R   0.767085 0.673432 0.943920 -0.134975
C50   C     C_R   0.768496 0.574574 0.907361 -0.157692
H22   H     H_    0.010028 0.469033 0.021247 0.104474
H23   H     H_    0.992441 0.641411 0.086063 0.135574
H24   H     H_    0.845389 0.773397 0.036965 0.147470
H25   H     H_    0.700546 0.731199 0.922714 0.128058
H26   H     H_    0.699438 0.557676 0.858491 0.138173

loop_
_geom_bond_atom_site_label_1
_geom_bond_atom_site_label_2
_ccdc_geom_bond_type
C46   C47   A    
C48   C49   A    
C1    O6    A    
C30   H20   S    
C6    C16   A    
C12   C13   A    
C7    C8    A    
C19   C20   D    
C10   C12   A    
O5    C3    A    
O19   V4    S    
C38   H17   S    
C7    H3    S    
V2    O10   S    
C37   H21   S    
C32   C34   A    
C3    C20   S    
O1    C2    A    
O8    V2    S    
O14   V3    S    
C26   H13   S    
C9    C10   A    
O1    V2    S    
C29   H18   S    
O7    V1    S    
C50   H26   S    
O17   V4    S    
C27   H16   S    
C11   C18   A    
C21   H8    S    
C31   C32   A    
O11   C42   A    
O9    C4    A    
C22   H9    S    
C2    C28   S    
V3    O20   S    
O13   V3    S    
C23   H10   S    
C45   C50   A    
C24   H11   S    
C11   C15   A    
C22   C44   S    
C7    C18   A    
C34   C38   A    
C5    C13   A    
C4    C6    S    
C19   C21   S    
O18   C43   A    
O4    C2    A    
O19   C44   A    
C30   C31   A    
C32   C33   A    
O2    C1    A    
C34   C35   A    
C41   O16   A    
C25   C26   D    
C9    H4    S    
C49   C50   A    
C10   C11   A    
O12   C41   A    
O13   C44   A    
O3    C4    A    
C21   C22   D    
C12   C16   A    
O6    V2    S    
O9    V2    S    
C5    C17   A    
C29   C40   A    
O2    V1    S    
O15   C43   A    
C23   C24   D    
C40   C41   S    
C14   C15   A    
C48   H24   S    
O18   V4    S    
C27   C39   A    
C16   F2    S    
C27   C35   A    
O5    V1    S    
O8    C3    A    
C28   C39   A    
C15   H5    S    
C1    C26   S    
C36   C37   A    
C19   H6    S    
O7    V2    S    
O4    V1    S    
C20   H7    S    
O3    V1    S    
V1    O10   S    
O15   V3    S    
C33   C40   A    
O12   V3    S    
C29   C30   A    
H15   C36   S    
C47   H23   S    
C28   C38   A    
C18   C43   S    
C25   H12   S    
C45   C46   A    
C5    H2    S    
C24   C42   S    
O14   C42   A    
C47   C48   A    
H14   C39   S    
O16   V4    S    
C35   C36   A    
C33   C37   A    
V4    O20   S    
O17   V3    S    
C13   C14   A    
C8    C45   S    
C8    C9    A    
C14   F1    S    
H1    C17   S    
O11   V4    S    
C49   H25   S    
C46   H22   S    
C23   C25   S    
C31   H19   S    
C6    C17   A    
