data_mof_unit_8425.cif
_audit_creation_date              2012-12-11T15:49:03-0500
_audit_creation_method            fapswitch 2.2
_symmetry_space_group_name_H-M    P1
_symmetry_Int_Tables_number       1
_space_group_crystal_system       triclinic
_cell_length_a                    21.665134
_cell_length_b                    7.180933
_cell_length_c                    14.900737
_cell_angle_alpha                 90.156123
_cell_angle_beta                  106.418701
_cell_angle_gamma                 90.041305
_cell_volume                      2223.65236538

loop_
_atom_site_label
_atom_site_type_symbol
_atom_type_description
_atom_site_fract_x
_atom_site_fract_y
_atom_site_fract_z
_atom_type_partial_charge
O1    O     O_R   0.335860 0.638190 0.002110 -0.548773
O2    O     O_R   0.664140 0.361810 0.997890 -0.548773
O3    O     O_R   0.164140 0.138190 0.997890 -0.548662
O4    O     O_R   0.835860 0.861810 0.002110 -0.548662
O5    O     O_R   0.217530 0.305920 0.861960 -0.540650
O6    O     O_R   0.782470 0.694080 0.138040 -0.540650
O7    O     O_R   0.282470 0.805920 0.138040 -0.540235
O8    O     O_R   0.717530 0.194080 0.861960 -0.540235
C1    C     C_R   0.205707 0.476345 0.825870 0.709750
C2    C     C_R   0.794293 0.523655 0.174130 0.709750
C3    C     C_R   0.294253 0.976980 0.174069 0.710026
C4    C     C_R   0.705747 0.023019 0.825931 0.710027
O9    O     O_R   0.338690 0.308320 0.993240 -0.501883
O10   O     O_R   0.661310 0.691680 0.006760 -0.501883
O11   O     O_R   0.161310 0.808320 0.006760 -0.502085
O12   O     O_R   0.838690 0.191680 0.993240 -0.502084
O13   O     O_R   0.286170 0.140430 0.130100 -0.539014
O14   O     O_R   0.713830 0.859570 0.869900 -0.539015
O15   O     O_R   0.213830 0.640430 0.869900 -0.538880
O16   O     O_R   0.786170 0.359570 0.130100 -0.538880
C5    C     C_R   0.364955 0.476961 0.997642 0.747804
C6    C     C_R   0.635045 0.523039 0.002358 0.747803
C7    C     C_R   0.135041 0.976882 0.002334 0.747399
C8    C     C_R   0.864959 0.023118 0.997666 0.747400
O17   O     O_3   0.232630 0.472410 0.044750 -0.371760
O18   O     O_3   0.767370 0.527590 0.955250 -0.371760
O19   O     O_3   0.267370 0.972410 0.955250 -0.371600
O20   O     O_3   0.732630 0.027590 0.044750 -0.371600
V1    V     V_3+5 0.253220 0.196620 0.991700 1.529750
V2    V     V_3+5 0.746780 0.803380 0.008300 1.529750
V3    V     V_3+5 0.246780 0.696620 0.008300 1.529343
V4    V     V_3+5 0.753220 0.303380 0.991700 1.529343
C9    C     C_R   0.032056 0.828839 0.018052 0.650586
C10   C     C_R   0.967943 0.171161 0.981947 0.650587
C11   C     C_R   0.467755 0.328864 0.981446 0.650134
C12   C     C_R   0.532244 0.671135 0.018553 0.650133
C13   C     C_R   0.967214 0.842243 0.016210 -0.280499
C14   C     C_R   0.032785 0.157757 0.983790 -0.280499
C15   C     C_R   0.532613 0.342176 0.983335 -0.281192
C16   C     C_R   0.467387 0.657824 0.016665 -0.281192
H1    H     H_    0.943164 0.717640 0.029745 0.219187
H2    H     H_    0.056836 0.282359 0.970255 0.219186
H3    H     H_    0.556528 0.217558 0.969426 0.217966
H4    H     H_    0.443471 0.782442 0.030574 0.217966
C17   C     C_R   0.934020 0.012895 0.998226 -0.273699
C18   C     C_R   0.065980 0.987105 0.001773 -0.273699
C19   C     C_R   0.565990 0.512797 0.001811 -0.272240
C20   C     C_R   0.434010 0.487203 0.998189 -0.272240
C21   C     C_R   0.677654 0.014729 0.724709 -0.125366
C22   C     C_R   0.322346 0.985270 0.275291 -0.125367
C23   C     C_R   0.822240 0.518470 0.275498 -0.125806
C24   C     C_R   0.177759 0.481529 0.724502 -0.125807
C25   C     C_R   0.689827 0.015019 0.568750 0.694398
C26   C     C_R   0.310173 0.984953 0.431250 0.694396
C27   C     C_R   0.811299 0.560266 0.430985 0.688828
C28   C     C_R   0.188701 0.439736 0.569015 0.688829
C29   C     C_R   0.717048 0.018829 0.665268 -0.218406
C30   C     C_R   0.282952 0.981149 0.334732 -0.218403
C31   C     C_R   0.783755 0.551502 0.334632 -0.216431
C32   C     C_R   0.216245 0.448501 0.665367 -0.216427
C33   C     C_R   0.610816 0.007415 0.688035 -0.213790
C34   C     C_R   0.389184 0.992596 0.311965 -0.213790
C35   C     C_R   0.888606 0.494994 0.312433 -0.213294
C36   C     C_R   0.111394 0.505002 0.687567 -0.213296
C37   C     C_R   0.581466 0.005287 0.590218 0.012503
C38   C     C_R   0.418533 0.994708 0.409782 0.012502
C39   C     C_R   0.918448 0.507528 0.409989 0.013183
C40   C     C_R   0.081552 0.492469 0.590011 0.013182
C41   C     C_R   0.622479 0.008681 0.530722 -0.011115
C42   C     C_R   0.377521 0.991300 0.469278 -0.011113
C43   C     C_R   0.878264 0.540031 0.469117 -0.009315
C44   C     C_R   0.121735 0.459968 0.530883 -0.009312
C45   C     C_R   0.513097 0.000771 0.549787 0.098222
C46   C     C_R   0.486903 0.999222 0.450213 0.098222
C47   C     C_R   0.986607 0.491700 0.450415 0.098098
C48   C     C_R   0.013392 0.508297 0.549585 0.098099
C49   C     C_R   0.529936 0.001818 0.394419 -0.201813
C50   C     C_R   0.470064 0.998163 0.605581 -0.201813
C51   C     C_R   0.971116 0.539291 0.605036 -0.200677
C52   C     C_R   0.028884 0.460707 0.394964 -0.200678
C53   C     C_R   0.596033 0.006439 0.433955 -0.111556
C54   C     C_R   0.403967 0.993535 0.566045 -0.111555
C55   C     C_R   0.905226 0.554391 0.565539 -0.111570
C56   C     C_R   0.094773 0.445608 0.434462 -0.111570
H5    H     H_    0.626688 0.008617 0.387707 0.192624
H6    H     H_    0.373312 0.991344 0.612293 0.192624
H7    H     H_    0.875183 0.578950 0.611489 0.191669
H8    H     H_    0.124817 0.421051 0.388512 0.191669
H9    H     H_    0.416449 0.994846 0.261754 0.122135
H10   H     H_    0.583551 0.005188 0.738246 0.122134
H11   H     H_    0.084685 0.527800 0.737526 0.123285
H12   H     H_    0.915315 0.472192 0.262474 0.123284
H13   H     H_    0.231106 0.974808 0.306246 0.145221
H14   H     H_    0.768894 0.025158 0.693754 0.145220
H15   H     H_    0.267620 0.428273 0.694042 0.146470
H16   H     H_    0.732380 0.571733 0.305958 0.146471
H17   H     H_    0.514392 0.000515 0.319195 0.137303
H18   H     H_    0.485607 0.999455 0.680805 0.137303
H19   H     H_    0.987138 0.553380 0.679932 0.136306
H20   H     H_    0.012862 0.446619 0.320069 0.136306
F1    F     F_    0.061256 0.660522 0.036805 -0.668079
F2    F     F_    0.938744 0.339478 0.963194 -0.668079
F3    F     F_    0.438360 0.160564 0.962171 -0.668658
F4    F     F_    0.561640 0.839435 0.037829 -0.668658
F5    F     F_    0.729408 0.018822 0.512473 -0.651923
F6    F     F_    0.270592 0.981132 0.487527 -0.651929
F7    F     F_    0.772530 0.592149 0.486870 -0.653215
F8    F     F_    0.227470 0.407854 0.513131 -0.653221

loop_
_geom_bond_atom_site_label_1
_geom_bond_atom_site_label_2
_ccdc_geom_bond_type
O17   V3    S    
C55   H7    S    
O1    C5    A    
C27   C31   A    
O19   V1    S    
O13   V1    S    
C45   C46   A    
O3    C7    A    
C48   C51   A    
C52   C56   A    
O15   V3    S    
C4    C21   S    
C21   C29   A    
O18   V4    S    
O5    C1    A    
C10   F2    S    
C9    F1    S    
C8    C17   S    
C36   C40   A    
O9    V1    S    
C30   H13   S    
C14   H2    S    
C11   F3    S    
O16   V4    S    
O4    C8    A    
C2    C23   S    
C38   C46   A    
C34   H9    S    
O1    V3    S    
C37   C45   A    
C12   C19   A    
O2    V4    S    
O3    V1    S    
O12   V4    S    
C28   F8    S    
C24   C32   A    
C1    O15   A    
C2    O16   A    
C28   C44   A    
C46   C49   A    
C35   H12   S    
C50   H18   S    
C45   C50   A    
C49   H17   S    
O14   V2    S    
C47   C52   A    
C43   C55   A    
C23   C35   A    
C40   C44   A    
C5    C20   S    
O11   C7    A    
C6    C19   S    
C25   C41   A    
O12   C8    A    
C7    C18   S    
C52   H20   S    
C9    C18   A    
C1    C24   S    
O10   V2    S    
C11   C20   A    
C53   H5    S    
O7    C3    A    
O5    V1    S    
C35   C39   A    
C21   C33   A    
C34   C38   A    
C22   C30   A    
C12   C16   A    
O7    V3    S    
C24   C36   A    
C25   C29   A    
C15   H3    S    
C54   H6    S    
C9    C13   A    
C28   C32   A    
C27   F7    S    
O8    V4    S    
C11   C15   A    
C47   C48   A    
O2    C6    A    
C33   C37   A    
C50   C54   A    
C26   C42   A    
C49   C53   A    
O8    C4    A    
O9    C5    A    
C10   C17   A    
C26   F6    S    
C44   C56   A    
O6    V2    S    
C29   H14   S    
C22   C34   A    
C39   C47   A    
C31   H16   S    
C13   C17   A    
C33   H10   S    
C15   C19   A    
C26   C30   A    
C51   H19   S    
C16   C20   A    
C3    O13   A    
C10   C14   A    
C56   H8    S    
O6    C2    A    
O11   V3    S    
C40   C48   A    
C12   F4    S    
O10   C6    A    
O20   V2    S    
C3    C22   S    
C51   C55   A    
C38   C42   A    
C37   C41   A    
C39   C43   A    
C13   H1    S    
C42   C54   A    
O4    V2    S    
C14   C18   A    
C41   C53   A    
C32   H15   S    
C25   F5    S    
C16   H4    S    
C23   C31   A    
C4    O14   A    
C36   H11   S    
C27   C43   A    
