data_mof_unit_58593.cif
_audit_creation_date              2013-03-05T16:42:22-0500
_audit_creation_method            fapswitch 2.2
_symmetry_space_group_name_H-M    P1
_symmetry_Int_Tables_number       1
_space_group_crystal_system       triclinic
_cell_length_a                    9.851865
_cell_length_b                    10.668476
_cell_length_c                    15.564659
_cell_angle_alpha                 90.229952
_cell_angle_beta                  67.379956
_cell_angle_gamma                 90.363612
_cell_volume                      1510.03981836

loop_
_atom_site_label
_atom_site_type_symbol
_atom_site_description
_atom_site_fract_x
_atom_site_fract_y
_atom_site_fract_z
_atom_type_partial_charge
O1    O     O_R   0.385310 0.683210 0.499990 -0.597835
O2    O     O_R   0.614650 0.683240 0.500000 -0.558813
C1    C     C_R   0.498414 0.740201 0.503025 0.947236
O3    O     O_R   0.319830 0.499970 0.632240 -0.629740
O4    O     O_R   0.549170 0.500000 0.632250 -0.600049
C2    C     C_R   0.407916 0.500210 0.675998 0.895926
Zn1   Zn    Zn3+2 0.346870 0.499980 0.499990 1.005770
Zn2   Zn    Zn3+2 0.653130 0.500020 0.500010 1.048089
O5    O     O_R   0.385350 0.316760 0.500000 -0.630344
O6    O     O_R   0.614690 0.316790 0.500010 -0.590110
O7    O     O_R   0.450830 0.500000 0.367750 -0.540740
O8    O     O_R   0.680170 0.500030 0.367760 -0.587246
C3    C     C_R   0.495949 0.260230 0.506109 0.950784
C4    C     C_R   0.592552 0.502798 0.323493 0.958969
C5    C     C_R   0.351465 0.517573 0.776461 -0.065490
C6    C     C_R   0.652925 0.510729 0.221014 -0.400553
C7    C     C_R   0.196778 0.631871 0.912676 -0.067015
C8    C     C_R   0.224077 0.586795 0.823409 -0.161142
C9    C     C_R   0.444639 0.486091 0.821084 -0.196016
C10   C     C_R   0.427757 0.540128 0.906407 0.078777
C11   C     C_R   0.299733 0.612085 0.953411 0.169758
C12   C     C_R   0.536337 0.527209 0.944836 0.066851
C13   C     C_R   0.505833 0.572643 0.035848 0.134993
C14   C     C_R   0.381891 0.650396 0.078257 -0.088107
C15   C     C_R   0.279637 0.668228 0.038210 -0.191635
C16   C     C_R   0.676557 0.475183 0.894272 -0.210728
C17   C     C_R   0.780387 0.463827 0.933668 -0.091050
C18   C     C_R   0.743239 0.491807 0.027414 -0.111757
C19   C     C_R   0.602370 0.540756 0.080538 -0.103857
C20   C     C_R   0.842864 0.466349 0.069512 0.546211
C21   C     C_R   0.800237 0.479211 0.165722 0.138067
C22   C     C_R   0.556604 0.543836 0.177693 0.523127
H1    H     H_    0.185535 0.727729 0.073176 0.170113
H2    H     H_    0.887441 0.426151 0.891552 0.196271
H3    H     H_    0.099256 0.687478 0.947852 0.143059
H4    H     H_    0.150732 0.611995 0.789429 0.176036
H5    H     H_    0.534314 0.423843 0.784963 0.181769
H6    H     H_    0.365448 0.703715 0.140513 0.210810
H7    H     H_    0.711930 0.445501 0.822998 0.141134
C23   C     C_R   0.375173 0.935873 0.505080 0.137092
C24   C     C_R   0.487500 0.871710 0.518662 -0.319666
C25   C     C_R   0.578998 0.935033 0.555173 0.547699
C26   C     C_R   0.574907 0.065520 0.560509 0.195088
C27   C     C_R   0.481552 0.129348 0.525463 -0.326890
C28   C     C_R   0.372593 0.063273 0.507965 0.120628
C29   C     C_3   0.321573 0.072155 0.429208 -0.446886
C30   C     C_3   0.324469 0.930056 0.426149 -0.388419
H8    H     H_    0.208659 0.110977 0.451877 0.230241
H9    H     H_    0.404494 0.116446 0.366070 0.198130
H10   H     H_    0.213325 0.886957 0.447141 0.248311
H11   H     H_    0.409177 0.891441 0.361312 0.194300
C31   C     C_R   0.903046 0.593819 0.543677 0.198931
N1    N     N_R   0.856900 0.500860 0.500610 -0.113935
C32   C     C_R   0.957981 0.414345 0.449661 -0.010470
H12   H     H_    0.926820 0.343771 0.410495 0.176192
C33   C     C_R   0.102083 0.414405 0.449592 -0.054843
H13   H     H_    0.179896 0.343995 0.410241 0.161156
N2    N     N_R   0.142540 0.500820 0.500610 -0.149216
C34   C     C_R   0.045763 0.593533 0.543759 0.159464
C35   C     C_3   0.990825 0.624168 0.644738 0.403794
C36   C     C_3   0.836817 0.624920 0.644889 -0.500552
H14   H     H_    0.010243 0.549097 0.687965 0.072914
H15   H     H_    0.766251 0.548043 0.686419 0.159470
H16   H     H_    0.785035 0.718813 0.658661 0.297885
F1    F     F_    0.980710 0.425573 0.017494 -0.629838
F2    F     F_    0.673067 0.871450 0.583631 -0.625863
N3    N     N_R   0.666754 0.130912 0.598861 0.250169
O9    O     O_R   0.610585 0.216419 0.662342 -0.405785
O10   O     O_R   0.802169 0.096307 0.578070 -0.327527
F3    F     F_    0.412891 0.564974 0.231165 -0.647290
F4    F     F_    0.037113 0.742071 0.659648 -0.620192
N4    N     N_R   0.905958 0.454869 0.206049 0.253205
O11   O     O_R   0.955042 0.547124 0.241120 -0.369211
O12   O     O_R   0.973949 0.347896 0.191220 -0.329609

loop_
_geom_bond_atom_site_label_1
_geom_bond_atom_site_label_2
_geom_bond_distance
_ccdc_geom_bond_type
C5    C8    1.398710 A    
C23   C30   1.494575 S    
C24   C25   1.405390 A    
C9    C10   1.395991 A    
C28   C29   1.496593 S    
C31   N1    1.364883 A    
C6    C21   1.415294 A    
Zn1   O7    1.914119 S    
C29   H9    1.112499 S    
C16   C17   1.386253 A    
C13   C19   1.420910 A    
C18   C19   1.416144 A    
C19   C22   1.402281 A    
C31   C36   1.491770 S    
O4    C2    1.292811 A    
O7    C4    1.297938 A    
C16   H7    1.074049 S    
C33   H13   1.081445 S    
C35   H14   1.111760 S    
C36   H15   1.106867 S    
O5    C3    1.283936 A    
C9    H5    1.077030 S    
C2    C5    1.455573 S    
C29   C30   1.516650 S    
C1    C24   1.420647 S    
C14   H6    1.079238 S    
C13   C14   1.415356 A    
Zn1   N2    2.009416 S    
C34   C35   1.487860 S    
O3    Zn1   1.971364 S    
C30   H10   1.112095 S    
C29   H8    1.111863 S    
C17   H2    1.083997 S    
C23   C28   1.359803 A    
C32   C33   1.419256 A    
N3    O9    1.301245 A    
C14   C15   1.387782 A    
N4    O12   1.301166 A    
C22   F3    1.358028 S    
C35   F4    1.384113 S    
N2    C34   1.361066 A    
N1    C32   1.367755 A    
C7    C11   1.404933 A    
C35   C36   1.516432 S    
O1    C1    1.282654 A    
C36   H16   1.109150 S    
C5    C9    1.390692 A    
C26   C27   1.415617 A    
C31   C34   1.406542 A    
Zn2   O8    1.971361 S    
C7    C8    1.393872 A    
O3    C2    1.292903 A    
C23   C24   1.388744 A    
O8    C4    1.295642 A    
C4    C6    1.475061 S    
C25   C26   1.394148 A    
C27   C28   1.391806 A    
Zn1   O5    1.993473 S    
C11   C15   1.390735 A    
C32   H12   1.081715 S    
C21   N4    1.433145 S    
O1    Zn1   1.988770 S    
Zn2   O6    1.988770 S    
O2    Zn2   1.993473 S    
C10   C12   1.419770 A    
N4    O11   1.301225 A    
O6    C3    1.283614 A    
Zn2   N1    2.011089 S    
O4    Zn2   1.914119 S    
C30   H11   1.112547 S    
C6    C22   1.406497 A    
C18   C20   1.402125 A    
O2    C1    1.284516 A    
C20   C21   1.397487 A    
C33   N2    1.368308 A    
C20   F1    1.359377 S    
C10   C11   1.418923 A    
C26   N3    1.437338 S    
C12   C16   1.416233 A    
C17   C18   1.392546 A    
C25   F2    1.356984 S    
C12   C13   1.414507 A    
C7    H3    1.083870 S    
N3    O10   1.301544 A    
C8    H4    1.082453 S    
C3    C27   1.424274 S    
C15   H1    1.084064 S    
