data_mof_unit_43106.cif
_audit_creation_date              2012-12-10T19:12:35-0500
_audit_creation_method            fapswitch 2.2
_symmetry_space_group_name_H-M    P1
_symmetry_Int_Tables_number       1
_space_group_crystal_system       triclinic
_cell_length_a                    15.730874
_cell_length_b                    10.688091
_cell_length_c                    9.708071
_cell_angle_alpha                 89.252181
_cell_angle_beta                  89.699347
_cell_angle_gamma                 90.780849
_cell_volume                      1631.9326082

loop_
_atom_site_label
_atom_site_type_symbol
_atom_type_description
_atom_site_fract_x
_atom_site_fract_y
_atom_site_fract_z
_atom_type_partial_charge
C1    C     C_R   0.502081 0.257550 0.500541 0.868460
C2    C     C_3   0.585807 0.928583 0.582710 -0.247631
C3    C     C_3   0.428561 0.066383 0.581357 -0.340972
C4    C     C_R   0.337868 0.499757 0.500289 0.929059
C5    C     C_3   0.499427 0.074638 0.349110 -0.395684
C6    C     C_3   0.505809 0.121096 0.500640 0.002056
C7    C     C_3   0.508802 0.878239 0.495747 0.023492
C8    C     C_3   0.425522 0.924006 0.565772 -0.465382
C9    C     C_3   0.510856 0.932642 0.344106 -0.177809
C10   C     C_3   0.458083 0.383516 0.085472 -0.296710
C11   C     C_3   0.456815 0.382077 0.922703 -0.064019
C12   C     C_3   0.083049 0.495161 0.499773 0.170429
C13   C     C_3   0.450340 0.606160 0.078550 -0.245220
C14   C     C_3   0.585890 0.506528 0.080451 -0.208269
C15   C     C_3   0.455269 0.608783 0.916501 -0.268572
C16   C     C_R   0.503841 0.742121 0.498659 0.904027
C17   C     C_3   0.586433 0.501617 0.918221 -0.257749
C18   C     C_R   0.662003 0.496814 0.499836 0.980614
C19   C     C_3   0.972797 0.374206 0.500874 0.026006
C20   C     C_3   0.029696 0.433132 0.386417 -0.324420
C21   C     C_1   0.249068 0.498121 0.500923 -0.163702
C22   C     C_1   0.750625 0.492237 0.499442 -0.108862
C23   C     C_3   0.970345 0.551896 0.610778 -0.258615
C24   C     C_3   0.027691 0.434507 0.614044 -0.222374
C25   C     C_2   0.588698 0.897185 0.260304 0.497843
C26   C     C_2   0.944189 0.239957 0.503520 0.432294
C27   C     C_2   0.366839 0.364059 0.872304 0.453882
C28   C     C_2   0.944044 0.614653 0.255613 0.386975
C29   C     C_2   0.055618 0.745647 0.494820 0.370127
C30   C     C_2   0.619479 0.135026 0.695250 0.960841
C31   C     C_2   0.672275 0.869917 0.559635 0.923641
C32   C     C_3   0.916535 0.489947 0.497806 0.158352
C33   C     C_3   0.027167 0.611236 0.496615 -0.006356
C34   C     C_3   0.972604 0.549909 0.384858 -0.046092
C35   C     C_1   0.173844 0.496584 0.500793 0.018026
C36   C     C_1   0.825750 0.489916 0.498919 0.076749
C37   C     C_3   0.591563 0.072959 0.562964 -0.233748
H1    H     H_    0.055211 0.384552 0.294955 0.153673
H2    H     H_    0.393012 0.372455 0.130023 0.149142
H3    H     H_    0.493810 0.300888 0.122986 0.165771
H4    H     H_    0.492979 0.299059 0.889517 0.196428
H5    H     H_    0.382676 0.600227 0.112236 0.154439
H6    H     H_    0.390638 0.616901 0.872258 0.146094
H7    H     H_    0.618043 0.594081 0.114345 0.169453
H8    H     H_    0.623907 0.427854 0.122353 0.174001
H9    H     H_    0.622404 0.418614 0.884207 0.162876
H10   H     H_    0.621309 0.584915 0.875764 0.173932
H11   H     H_    0.475726 0.695815 0.118443 0.138258
H12   H     H_    0.570021 0.906072 0.692420 0.153264
H13   H     H_    0.489838 0.695382 0.882396 0.165399
H14   H     H_    0.944790 0.600695 0.702056 0.167907
H15   H     H_    0.051894 0.386644 0.707849 0.154960
H16   H     H_    0.642073 0.095902 0.485369 0.192671
H17   H     H_    0.590340 0.807414 0.210116 0.081937
H18   H     H_    0.991140 0.166608 0.506011 0.060319
H19   H     H_    0.318007 0.430328 0.898999 0.044664
H20   H     H_    0.991062 0.652865 0.184006 0.072287
H21   H     H_    0.008550 0.818849 0.492961 0.087515
H22   H     H_    0.706194 0.245452 0.788462 0.339965
H23   H     H_    0.433279 0.089634 0.692219 0.252136
H24   H     H_    0.746256 0.752394 0.453614 0.354431
H25   H     H_    0.416185 0.880350 0.669675 0.195502
H26   H     H_    0.435855 0.098380 0.306586 0.167205
H27   H     H_    0.546636 0.124279 0.281595 0.219492
H28   H     H_    0.455048 0.894259 0.287481 0.110276
H29   H     H_    0.368294 0.106852 0.542294 0.185569
H30   H     H_    0.369354 0.896926 0.502845 0.196778
N1    N     N_3   0.498170 0.499750 0.138610 -0.049313
N2    N     N_3   0.498850 0.496730 0.861320 -0.076096
O1    O     O_R   0.499980 0.314910 0.616040 -0.597081
O2    O     O_2   0.868692 0.212293 0.502861 -0.506376
O3    O     O_2   0.347351 0.273107 0.804049 -0.598522
O4    O     O_2   0.868569 0.624850 0.230198 -0.556039
O5    O     O_2   0.131076 0.773520 0.495351 -0.574815
O6    O     O_2   0.579576 0.117508 0.802345 -0.664752
O7    O     O_R   0.692569 0.210898 0.694281 -0.756012
O8    O     O_2   0.732233 0.903857 0.630349 -0.583083
O9    O     O_R   0.684530 0.777405 0.461679 -0.812338
O10   O     O_R   0.500040 0.314680 0.383960 -0.644598
O11   O     O_R   0.376750 0.500100 0.616020 -0.608345
O12   O     O_R   0.376810 0.499870 0.383940 -0.628506
O13   O     O_R   0.499960 0.685320 0.616040 -0.644866
O14   O     O_R   0.500020 0.685090 0.383960 -0.641988
O15   O     O_R   0.623190 0.500130 0.616060 -0.627025
O16   O     O_R   0.623250 0.499900 0.383980 -0.607163
O17   O     O_2   0.650853 0.966482 0.249246 -0.541379
Zn1   Zn    Zn3+2 0.499960 0.500150 0.654960 0.953078
Zn2   Zn    Zn3+2 0.500040 0.499850 0.345040 0.928184

loop_
_geom_bond_atom_site_label_1
_geom_bond_atom_site_label_2
_ccdc_geom_bond_type
C24   H15   S    
C17   N2    S    
C4    C21   S    
C2    C7    S    
O15   Zn1   S    
C3    C6    S    
C26   H18   S    
C9    C25   S    
C7    C8    S    
C28   H20   S    
C32   C36   S    
C4    O11   A    
O11   Zn1   S    
C5    C6    S    
C19   C32   S    
O13   Zn1   S    
C29   C33   S    
C20   H1    S    
C5    H26   S    
C10   H3    S    
C15   H13   S    
C19   C26   S    
O10   Zn2   S    
C4    O12   A    
C19   C20   S    
C23   C33   S    
C18   O15   A    
C23   C24   S    
N2    Zn1   S    
C37   H16   S    
C3    H23   S    
O14   Zn2   S    
C28   C34   S    
O1    Zn1   S    
C26   O2    D    
C14   C17   S    
C28   O4    D    
C13   H5    S    
C31   O8    D    
C14   H8    S    
C15   N2    S    
C18   O16   A    
C1    C6    S    
C25   H17   S    
C3    C8    S    
C27   H19   S    
C29   O5    D    
C16   O14   A    
C30   C37   S    
C2    C31   S    
C32   C34   S    
C5    C9    S    
C2    H12   S    
C30   O7    S    
C23   H14   S    
C11   C27   S    
H24   O9    S    
C12   C20   S    
C16   O13   A    
C33   C34   S    
C6    C37   S    
C17   H9    S    
C12   C35   S    
C7    C16   S    
C13   C15   S    
C1    O10   A    
C3    H29   S    
C31   O9    S    
C14   H7    S    
O16   Zn2   S    
C7    C9    S    
C18   C22   S    
C17   H10   S    
C13   H11   S    
C11   N2    S    
C21   C35   T    
C10   N1    S    
C22   C36   T    
C12   C24   S    
C1    O1    A    
C23   C32   S    
C19   C24   S    
C15   H6    S    
C30   O6    D    
C2    C37   S    
N1    Zn2   S    
C25   O17   D    
C11   H4    S    
C9    H28   S    
O12   Zn2   S    
C10   C11   S    
C20   C34   S    
C29   H21   S    
C5    H27   S    
C8    H30   S    
C14   N1    S    
C10   H2    S    
C12   C33   S    
H22   O7    S    
C27   O3    D    
C8    H25   S    
C13   N1    S    
