data_mof_unit_12895.cif
_audit_creation_date              2012-12-10T16:43:23-0500
_audit_creation_method            fapswitch 2.2
_symmetry_space_group_name_H-M    P1
_symmetry_Int_Tables_number       1
_space_group_crystal_system       triclinic
_cell_length_a                    10.753174
_cell_length_b                    8.676177
_cell_length_c                    7.439067
_cell_angle_alpha                 103.252558
_cell_angle_beta                  93.128732
_cell_angle_gamma                 91.792833
_cell_volume                      673.863339224

loop_
_atom_site_label
_atom_site_type_symbol
_atom_type_description
_atom_site_fract_x
_atom_site_fract_y
_atom_site_fract_z
_atom_type_partial_charge
C1    C     C_R   0.496673 0.199670 0.453044 0.906498
C2    C     C_R   0.066176 0.661864 0.591111 0.022970
C3    C     C_R   0.129476 0.520243 0.519858 -0.132233
C4    C     C_R   0.062799 0.378339 0.437847 -0.233128
C5    C     C_R   0.934137 0.370870 0.426122 0.352907
C6    C     C_R   0.870399 0.509024 0.487592 -0.139432
C7    C     C_2   0.495590 0.031601 0.426632 -0.317618
C8    C     C_2   0.508316 0.968468 0.572770 -0.326309
C9    C     C_R   0.263405 0.514715 0.507185 0.860384
C10   C     C_R   0.505268 0.800355 0.546669 0.895121
C11   C     C_R   0.736986 0.497271 0.495155 0.846600
C12   C     C_R   0.124783 0.808915 0.691638 0.342790
C13   C     C_R   0.057651 0.947011 0.727921 -0.133571
C14   C     C_R   0.931390 0.942147 0.678095 -0.113799
C15   C     C_R   0.869501 0.797944 0.599063 -0.121345
C16   C     C_R   0.934789 0.656336 0.558718 -0.008747
Cu1   Cu    Cu3+1 0.513920 0.517380 0.684380 1.018461
Cu2   Cu    Cu3+1 0.486080 0.482620 0.315620 1.010343
H1    H     H_    0.111668 0.271521 0.384369 0.176502
H2    H     H_    0.597278 0.620647 0.050931 0.234146
H3    H     H_    0.102712 0.058619 0.802228 0.174272
H4    H     H_    0.880168 0.049604 0.708048 0.186514
H5    H     H_    0.770201 0.798599 0.567766 0.125162
H6    H     H_    0.483865 0.959526 0.285918 0.201169
H7    H     H_    0.520151 0.040531 0.713468 0.197465
H8    H     H_    0.402674 0.379421 0.949075 0.234156
N1    N     N_2   0.465100 0.456430 0.038520 -0.199848
N2    N     N_2   0.534900 0.543570 0.961480 -0.191479
O1    O     O_R   0.509050 0.286130 0.619770 -0.595323
O2    O     O_R   0.485540 0.256780 0.308360 -0.566635
O3    O     O_R   0.331410 0.514680 0.655740 -0.545815
O4    O     O_R   0.307900 0.485330 0.344330 -0.578944
O5    O     O_R   0.514460 0.743220 0.691640 -0.541265
O6    O     O_R   0.490950 0.713870 0.380230 -0.594269
O7    O     O_R   0.692100 0.514670 0.655670 -0.582539
O8    O     O_R   0.668590 0.485320 0.344260 -0.573905
Cl1   Cl    Cl    0.270335 0.828253 0.813302 -0.637594
Cl2   Cl    Cl    0.855224 0.185930 0.333835 -0.651659

loop_
_geom_bond_atom_site_label_1
_geom_bond_atom_site_label_2
_ccdc_geom_bond_type
C3    C9    S    
C7    H6    S    
Cu1   O1    S    
C4    H1    S    
C2    C12   A    
C14   H4    S    
C11   O7    A    
C2    C3    A    
C13   H3    S    
C7    C8    D    
C10   O6    A    
C1    C7    S    
C13   C14   A    
C8    H7    S    
Cu2   O6    S    
H8    N1    S    
Cu1   O5    S    
Cu2   O2    S    
C15   H5    S    
C11   O8    A    
Cu1   Cu2   S    
C10   O5    A    
C5    C6    A    
Cu1   O3    S    
Cu2   O4    S    
C1    O1    A    
C6    C16   A    
C15   C16   A    
N1    N2    D    
C2    C16   A    
C12   C13   A    
C8    C10   S    
C12   Cl1   S    
C6    C11   S    
C9    O3    A    
C14   C15   A    
C1    O2    A    
Cu1   O7    S    
H2    N2    S    
C9    O4    A    
C5    Cl2   S    
Cu1   N2    S    
Cu2   O8    S    
Cu2   N1    S    
C3    C4    A    
C4    C5    A    
