data_mof_unit_37505.cif
_audit_creation_date              2012-12-10T17:32:13-0500
_audit_creation_method            fapswitch 2.2
_symmetry_space_group_name_H-M    P1
_symmetry_Int_Tables_number       1
_space_group_crystal_system       triclinic
_cell_length_a                    12.361212
_cell_length_b                    13.04772
_cell_length_c                    15.011033
_cell_angle_alpha                 77.35005
_cell_angle_beta                  101.446738
_cell_angle_gamma                 116.539447
_cell_volume                      2099.28962951

loop_
_atom_site_label
_atom_site_type_symbol
_atom_type_description
_atom_site_fract_x
_atom_site_fract_y
_atom_site_fract_z
_atom_type_partial_charge
C1    C     C_R   0.854991 0.285141 0.508787 0.943723
C2    C     C_R   0.089125 0.597914 0.090637 -0.081941
C3    C     C_R   0.845981 0.302441 0.058933 0.587080
C4    C     C_R   0.844523 0.301928 0.965780 0.148151
C5    C     C_R   0.923092 0.401524 0.912166 -0.076299
C6    C     C_R   0.006939 0.500039 0.954052 -0.114351
C7    C     C_R   0.089504 0.599234 0.901718 -0.047424
C8    C     C_R   0.171936 0.695361 0.945635 0.514914
C9    C     C_R   0.172381 0.695032 0.038847 0.185005
C10   C     C_R   0.919560 0.405475 0.817547 0.569440
C11   C     C_R   0.000867 0.502072 0.766803 -0.214738
C12   C     C_R   0.999560 0.499670 0.670657 0.914923
C13   C     C_R   0.085886 0.598822 0.806888 0.146961
C14   C     C_R   0.270852 0.040804 0.414316 0.277721
C15   C     C_R   0.226617 0.840480 0.482639 -0.195967
C16   C     C_R   0.810456 0.078377 0.579690 0.119884
C17   C     C_R   0.721999 0.982229 0.628232 0.561274
C18   C     C_R   0.598628 0.960093 0.607507 0.151458
C19   C     C_R   0.559777 0.021303 0.527061 -0.072042
C20   C     C_R   0.647682 0.123388 0.483733 -0.171160
C21   C     C_R   0.435546 0.986915 0.491289 0.027120
C22   C     C_R   0.397157 0.065231 0.428035 -0.087088
C23   C     C_R   0.144924 0.714873 0.490339 0.862007
C24   C     C_R   0.485837 0.162672 0.380048 0.122905
C25   C     C_R   0.609326 0.186389 0.405168 0.646841
C26   C     C_R   0.350538 0.872312 0.509436 -0.163856
C27   C     C_R   0.184630 0.928253 0.447908 0.221494
C28   C     C_R   0.772296 0.159255 0.518895 -0.197196
C29   C     C_R   0.344666 0.323783 0.645915 0.494085
C30   C     C_R   0.751488 0.637151 0.368306 0.333388
C31   C     C_R   0.644234 0.652269 0.332889 0.016946
C32   C     C_R   0.540749 0.590356 0.378461 0.588677
C33   C     C_R   0.546125 0.524875 0.465849 -0.096829
C34   C     C_R   0.999938 0.499188 0.329417 1.002180
C35   C     C_R   0.653182 0.504311 0.495987 0.017127
C36   C     C_R   0.445425 0.470928 0.520434 -0.245495
C37   C     C_R   0.445978 0.383914 0.595887 -0.304255
C38   C     C_R   0.547591 0.358488 0.620214 0.681587
C39   C     C_R   0.649147 0.419319 0.572823 -0.200943
C40   C     C_R   0.344805 0.501095 0.505187 0.739712
C41   C     C_R   0.244967 0.351102 0.622132 0.560362
C42   C     C_R   0.083979 0.596829 0.183647 0.522219
C43   C     C_R   0.002091 0.499235 0.233476 -0.347869
C44   C     C_R   0.925962 0.400494 0.193613 0.564635
C45   C     C_R   0.925840 0.400196 0.100450 -0.135832
C46   C     C_R   0.007480 0.499426 0.048294 -0.175509
Cu1   Cu    Cu3+1 0.098270 0.475420 0.521130 1.088408
Cu2   Cu    Cu3+1 0.901730 0.524580 0.478870 1.004055
H1    H     H_    0.381700 0.805810 0.540678 0.216999
H2    H     H_    0.721310 0.393372 0.597352 0.236986
N1    N     N_R   0.246280 0.438190 0.553160 -0.341848
N2    N     N_R   0.754320 0.561190 0.447410 -0.221912
O1    O     O_R   0.972510 0.318130 0.526570 -0.557766
O2    O     O_R   0.806530 0.359650 0.490890 -0.578217
O3    O     O_R   0.082980 0.479210 0.647590 -0.530757
O4    O     O_R   0.917000 0.520730 0.611900 -0.615783
O5    O     O_R   0.193470 0.640350 0.509110 -0.524741
O6    O     O_R   0.027490 0.681870 0.473430 -0.575538
O7    O     O_R   0.083000 0.479270 0.388100 -0.540960
O8    O     O_R   0.917020 0.520790 0.352410 -0.539900
F1    F     F_    0.156106 0.690374 0.226861 -0.632834
N3    N     N_2   0.450098 0.223892 0.297482 -0.427353
H3    H     H_    0.417516 0.180868 0.241145 0.269083
C47   C     C_3   0.513969 0.348842 0.278950 -0.528670
H4    H     H_    0.447018 0.386058 0.250494 0.218244
H5    H     H_    0.578544 0.373894 0.227823 0.256414
H6    H     H_    0.564494 0.385528 0.342606 0.219664
N4    N     N_2   0.231575 0.129500 0.373503 -0.422638
H7    H     H_    0.231699 0.152602 0.303381 0.273897
C48   C     C_3   0.268730 0.223130 0.425664 -0.649872
H8    H     H_    0.222319 0.279915 0.392252 0.238007
H9    H     H_    0.368396 0.275685 0.429155 0.244556
H10   H     H_    0.242854 0.187852 0.496481 0.214853
N5    N     N_2   0.936579 0.099111 0.592583 -0.360649
H11   H     H_    0.978964 0.138843 0.533846 0.253702
C49   C     C_3   0.976529 0.012085 0.644287 -0.455118
H12   H     H_    0.074071 0.040450 0.637366 0.206544
H13   H     H_    0.923325 0.928347 0.617393 0.203306
H14   H     H_    0.969688 0.002282 0.718526 0.290019
N6    N     N_2   0.517154 0.887140 0.673687 -0.461838
H15   H     H_    0.538775 0.822141 0.713359 0.298922
C50   C     C_3   0.491271 0.950777 0.728101 -0.524852
H16   H     H_    0.577018 0.010143 0.763948 0.255279
H17   H     H_    0.432110 0.889862 0.780764 0.246497
H18   H     H_    0.443581 0.001774 0.683746 0.261609
F2    F     F_    0.754283 0.915175 0.701098 -0.692028
F3    F     F_    0.691361 0.266196 0.348876 -0.606952
F4    F     F_    0.147779 0.292665 0.670426 -0.591230
F5    F     F_    0.550904 0.275202 0.691733 -0.584953
F6    F     F_    0.340793 0.237998 0.717067 -0.564847
F7    F     F_    0.854335 0.304467 0.246782 -0.566351
F8    F     F_    0.348910 0.599362 0.449907 -0.574986
N7    N     N_2   0.856287 0.698010 0.320293 -0.347839
H19   H     H_    0.900951 0.784058 0.327539 0.267459
C51   C     C_3   0.843005 0.680538 0.225772 -0.577873
H20   H     H_    0.932713 0.696658 0.208233 0.239338
H21   H     H_    0.813470 0.743355 0.177632 0.225954
H22   H     H_    0.777511 0.590522 0.215761 0.225466
F9    F     F_    0.433176 0.583655 0.330372 -0.632998
N8    N     N_2   0.637441 0.723712 0.247411 -0.432871
H23   H     H_    0.558800 0.687209 0.204230 0.287865
C52   C     C_3   0.665570 0.841672 0.255190 -0.609813
H24   H     H_    0.660724 0.891524 0.185496 0.238148
H25   H     H_    0.759131 0.883885 0.289578 0.224035
H26   H     H_    0.599425 0.843587 0.294601 0.256077
F10   F     F_    0.768912 0.205885 0.108644 -0.617084
N9    N     N_2   0.764078 0.199834 0.926900 -0.326155
H27   H     H_    0.679339 0.159492 0.949878 0.297112
C53   C     C_3   0.816745 0.119382 0.931230 -0.507514
H28   H     H_    0.836930 0.084597 0.003943 0.206279
H29   H     H_    0.901913 0.162667 0.897707 0.252608
H30   H     H_    0.751507 0.046092 0.894599 0.227511
F11   F     F_    0.837724 0.315975 0.773042 -0.635802
N10   N     N_2   0.166134 0.693676 0.749686 -0.413324
H31   H     H_    0.257429 0.721352 0.772422 0.305511
C54   C     C_3   0.125192 0.783508 0.709350 -0.601911
H32   H     H_    0.115744 0.824003 0.763405 0.276353
H33   H     H_    0.035774 0.746464 0.667356 0.204873
H34   H     H_    0.192095 0.851563 0.664380 0.215730
F12   F     F_    0.254437 0.791292 0.899825 -0.702691
N11   N     N_2   0.257498 0.794008 0.079835 -0.345826
H35   H     H_    0.269301 0.871996 0.038822 0.292538
C55   C     C_3   0.372141 0.789010 0.118856 -0.492051
H36   H     H_    0.421357 0.790438 0.063825 0.204766
H37   H     H_    0.356845 0.709182 0.169581 0.276871
H38   H     H_    0.429449 0.865081 0.154783 0.228963
N12   N     N_2   0.059590 0.900625 0.453646 -0.427683
H39   H     H_    0.029826 0.855477 0.516071 0.249172
C56   C     C_3   0.999855 0.974963 0.409380 -0.651990
H40   H     H_    0.901643 0.928522 0.418316 0.202470
H41   H     H_    0.008244 0.996946 0.334573 0.250363
H42   H     H_    0.036358 0.053441 0.442539 0.250491

loop_
_geom_bond_atom_site_label_1
_geom_bond_atom_site_label_2
_ccdc_geom_bond_type
C16   C28   A    
C23   O6    A    
C21   C26   A    
N7    H19   S    
C51   H20   S    
C19   C20   A    
C49   H14   S    
C1    O2    A    
N10   H31   S    
C51   H22   S    
C55   H36   S    
C45   C46   A    
C2    C46   A    
Cu2   O2    S    
C38   F5    S    
C37   C38   A    
N5    C49   S    
C16   N5    S    
C5    C6    A    
C36   C37   A    
C19   C21   A    
C49   H13   S    
C30   N7    S    
C53   H29   S    
C30   C31   A    
C55   H37   S    
C20   C25   A    
C25   F3    S    
C33   C36   A    
C54   H32   S    
C52   H26   S    
C23   O5    A    
C18   C19   A    
C1    O1    A    
N3    C47   S    
N4    H7    S    
C27   N12   S    
C31   C32   A    
C8    C9    A    
C1    C28   S    
C9    N11   S    
N9    H27   S    
C48   H8    S    
C14   C27   A    
C13   N10   S    
Cu1   O1    S    
C56   H42   S    
C15   C23   S    
N7    C51   S    
C21   C22   A    
C34   O8    A    
N9    C53   S    
C29   F6    S    
Cu2   O8    S    
C49   H12   S    
C3    F10   S    
C4    N9    S    
N5    H11   S    
C17   F2    S    
C47   H6    S    
C36   C40   A    
C24   C25   A    
N6    C50   S    
C26   H1    S    
C16   C17   A    
C55   H38   S    
Cu1   N1    S    
C20   C28   A    
C3    C45   A    
C47   H5    S    
C35   C39   A    
C43   C44   A    
N12   C56   S    
N3    H3    S    
Cu1   O5    S    
C15   C27   A    
Cu1   Cu2   S    
Cu2   N2    S    
C48   H10   S    
N8    C52   S    
C17   C18   A    
C31   N8    S    
C40   F8    S    
C52   H25   S    
C44   F7    S    
C42   F1    S    
N11   H35   S    
C12   O4    A    
C10   F11   S    
C18   N6    S    
C50   H17   S    
C34   O7    A    
C22   C24   A    
C53   H30   S    
C42   C43   A    
N12   H39   S    
C40   N1    A    
C44   C45   A    
C8    F12   S    
Cu1   O3    S    
C56   H40   S    
Cu2   O4    S    
C41   F4    S    
C30   N2    A    
C54   H34   S    
C24   N3    S    
C6    C46   A    
C29   C41   A    
C34   C43   S    
N6    H15   S    
C15   C26   A    
N10   C54   S    
C11   C12   S    
C51   H21   S    
Cu2   O6    S    
C6    C7    A    
C50   H18   S    
C32   F9    S    
C32   C33   A    
C14   C22   A    
C5    C10   A    
C53   H28   S    
C47   H4    S    
C11   C13   A    
C38   C39   A    
C2    C42   A    
C4    C5    A    
N8    H23   S    
C33   C35   A    
C54   H33   S    
C52   H24   S    
N11   C55   S    
C12   O3    A    
C7    C8    A    
C10   C11   A    
Cu1   O7    S    
C7    C13   A    
C39   H2    S    
N4    C48   S    
C50   H16   S    
C29   C37   A    
C35   N2    A    
C14   N4    S    
C48   H9    S    
C2    C9    A    
C41   N1    A    
C3    C4    A    
C56   H41   S    
