data_mof_unit_31224.cif
_audit_creation_date              2012-12-10T18:05:14-0500
_audit_creation_method            fapswitch 2.2
_symmetry_space_group_name_H-M    P1
_symmetry_Int_Tables_number       1
_space_group_crystal_system       triclinic
_cell_length_a                    9.509336
_cell_length_b                    10.832571
_cell_length_c                    17.104378
_cell_angle_alpha                 89.522034
_cell_angle_beta                  94.65003
_cell_angle_gamma                 90.052557
_cell_volume                      1756.07090465

loop_
_atom_site_label
_atom_site_type_symbol
_atom_type_description
_atom_site_fract_x
_atom_site_fract_y
_atom_site_fract_z
_atom_type_partial_charge
C1    C     C_R   0.499945 0.262044 0.500125 0.785278
C2    C     C_R   0.500055 0.737956 0.499876 0.785292
C3    C     C_R   0.371888 0.936053 0.496837 -0.188272
C4    C     C_R   0.628112 0.063947 0.503167 -0.188266
C5    C     C_R   0.500043 0.871789 0.499831 -0.018828
C6    C     C_R   0.499957 0.128211 0.500172 -0.018828
C7    C     C_R   0.080688 0.415618 0.543743 -0.016047
C8    C     C_R   0.919312 0.584381 0.456256 -0.016056
C9    C     C_R   0.931810 0.415527 0.543614 -0.037088
C10   C     C_R   0.068190 0.584472 0.456385 -0.037116
C11   C     C_R   0.518596 0.494734 0.650951 0.793375
C12   C     C_R   0.481403 0.505268 0.349047 0.793393
C13   C     C_R   0.530726 0.487891 0.737109 -0.089874
C14   C     C_R   0.469273 0.512109 0.262885 -0.089934
C15   C     C_R   0.426762 0.547565 0.776449 -0.261133
C16   C     C_R   0.573342 0.452568 0.223552 -0.261128
C17   C     C_R   0.430521 0.544181 0.857593 -0.160635
C18   C     C_R   0.569595 0.455956 0.142408 -0.160651
C19   C     C_R   0.539174 0.480258 0.901527 0.330633
C20   C     C_R   0.460846 0.519748 0.098466 0.330637
C21   C     C_R   0.642748 0.420043 0.862859 -0.182572
C22   C     C_R   0.357171 0.579837 0.137125 -0.182563
C23   C     C_R   0.640435 0.421185 0.780442 0.119568
C24   C     C_R   0.359462 0.578686 0.219541 0.119578
C25   C     C_R   0.371852 0.063763 0.497058 -0.182663
C26   C     C_R   0.628148 0.936237 0.502946 -0.182664
Cu1   Cu    Cu3+1 0.640660 0.500020 0.500000 0.936485
Cu2   Cu    Cu3+1 0.359340 0.499980 0.500000 0.936475
H1    H     H_    0.657810 0.401973 0.255855 0.168280
H2    H     H_    0.342373 0.598259 0.744150 0.168245
H3    H     H_    0.651803 0.408284 0.114446 0.159080
H4    H     H_    0.348401 0.591962 0.885563 0.159084
H5    H     H_    0.724626 0.372044 0.898572 0.153196
H6    H     H_    0.275226 0.627742 0.101404 0.153198
H7    H     H_    0.271672 0.111740 0.494651 0.147137
H8    H     H_    0.728328 0.888260 0.505353 0.147138
H9    H     H_    0.271721 0.887935 0.494246 0.146240
H10   H     H_    0.728279 0.112065 0.505758 0.146240
H11   H     H_    0.141806 0.348068 0.578818 0.119852
H12   H     H_    0.858194 0.651930 0.421181 0.119849
H13   H     H_    0.880708 0.347537 0.578278 0.113005
H14   H     H_    0.119291 0.652459 0.421719 0.113018
N1    N     N_2   0.548766 0.473399 0.984640 -0.258319
N2    N     N_2   0.451257 0.526604 0.015353 -0.258323
N3    N     N_R   0.852070 0.500030 0.499980 -0.156088
N4    N     N_R   0.147930 0.499970 0.500020 -0.156091
O1    O     O_R   0.618740 0.319660 0.500000 -0.592854
O2    O     O_R   0.381260 0.680340 0.500000 -0.592854
O3    O     O_R   0.381170 0.319630 0.500010 -0.587530
O4    O     O_R   0.618830 0.680370 0.499990 -0.587529
O5    O     O_R   0.631780 0.498870 0.613920 -0.589610
O6    O     O_R   0.368220 0.501130 0.386080 -0.589638
O7    O     O_R   0.394210 0.498840 0.613930 -0.574906
O8    O     O_R   0.605790 0.501160 0.386070 -0.574914
C27   C     C_3   0.750869 0.351113 0.738378 -0.374558
C28   C     C_3   0.844938 0.261963 0.788877 -0.878376
H15   H     H_    0.915034 0.313389 0.832349 0.253587
H16   H     H_    0.779710 0.194432 0.819206 0.260145
H17   H     H_    0.912894 0.210134 0.750729 0.242800
H18   H     H_    0.696029 0.295489 0.690783 0.201158
H19   H     H_    0.820637 0.419026 0.711647 0.219575
C29   C     C_3   0.248897 0.648619 0.261591 -0.374543
C30   C     C_3   0.154631 0.737597 0.211072 -0.878421
H20   H     H_    0.219710 0.805231 0.180729 0.260136
H21   H     H_    0.084652 0.686038 0.167610 0.253600
H22   H     H_    0.086556 0.789320 0.249207 0.242793
H23   H     H_    0.179267 0.580617 0.288346 0.219624
H24   H     H_    0.303639 0.704353 0.309164 0.201176

loop_
_geom_bond_atom_site_label_1
_geom_bond_atom_site_label_2
_ccdc_geom_bond_type
C10   N4    A    
C4    C26   A    
Cu2   O7    S    
C30   H21   S    
C9    N3    A    
C29   C30   S    
C14   C16   A    
C28   H16   S    
C10   H14   S    
C11   C13   S    
Cu2   O3    S    
C9    H13   S    
C11   O7    A    
C28   H17   S    
C29   H24   S    
N1    N2    D    
Cu1   N3    S    
C27   C28   S    
C13   C15   A    
Cu1   O8    S    
C16   C18   A    
C12   O8    A    
C27   H18   S    
C23   C27   S    
Cu1   O5    S    
Cu2   O6    S    
Cu2   N4    S    
C8    H12   S    
C29   H23   S    
C15   H2    S    
C27   H19   S    
C26   H8    S    
C12   O6    A    
C12   C14   S    
C20   N2    S    
C18   C20   A    
C21   C23   A    
C1    O1    A    
C22   H6    S    
C22   C24   A    
C30   H22   S    
C6    C25   A    
C21   H5    S    
C20   C22   A    
Cu1   O1    S    
C1    C6    S    
C2    C5    S    
C7    N4    A    
C3    C5    A    
C3    C25   A    
C11   O5    A    
C28   H15   S    
C13   C23   A    
Cu1   O4    S    
C4    C6    A    
C14   C24   A    
Cu1   Cu2   S    
C7    C9    A    
C17   H4    S    
C7    H11   S    
C8    N3    A    
C17   C19   A    
C4    H10   S    
C24   C29   S    
C18   H3    S    
C2    O4    A    
C2    O2    A    
C16   H1    S    
C15   C17   A    
C1    O3    A    
C25   H7    S    
C8    C10   A    
Cu2   O2    S    
C5    C26   A    
C30   H20   S    
C3    H9    S    
C19   N1    S    
C19   C21   A    
