data_mof_unit_20701.cif
_audit_creation_date              2012-12-10T20:31:02-0500
_audit_creation_method            fapswitch 2.2
_symmetry_space_group_name_H-M    P1
_symmetry_Int_Tables_number       1
_space_group_crystal_system       triclinic
_cell_length_a                    14.943739
_cell_length_b                    10.675849
_cell_length_c                    9.88321
_cell_angle_alpha                 89.792211
_cell_angle_beta                  90.594353
_cell_angle_gamma                 90.244375
_cell_volume                      1576.62937983

loop_
_atom_site_label
_atom_site_type_symbol
_atom_type_description
_atom_site_fract_x
_atom_site_fract_y
_atom_site_fract_z
_atom_type_partial_charge
C1    C     C_R   0.502892 0.259970 0.500205 0.873046
C2    C     C_R   0.906313 0.570923 0.401501 0.119790
C3    C     C_R   0.954693 0.371064 0.704456 -0.215505
C4    C     C_R   0.047684 0.369601 0.703067 -0.197456
C5    C     C_R   0.093684 0.435764 0.602744 0.122250
C6    C     C_R   0.046557 0.504433 0.502884 0.050853
C7    C     C_R   0.092593 0.572832 0.402598 0.107767
C8    C     C_R   0.045415 0.640023 0.303318 -0.184633
C9    C     C_R   0.952388 0.638463 0.302291 -0.220737
C10   C     C_R   0.186206 0.434078 0.599839 -0.253590
C11   C     C_R   0.231198 0.501598 0.500112 -0.070273
C12   C     C_R   0.326847 0.500368 0.499668 0.898813
C13   C     C_R   0.185215 0.572493 0.403502 -0.189365
C14   C     C_R   0.518270 0.063303 0.622981 0.138320
C15   C     C_R   0.517701 0.128603 0.500867 -0.099595
C16   C     C_R   0.534793 0.065376 0.379631 -0.224742
C17   C     C_R   0.535052 0.935792 0.379420 -0.224742
C18   C     C_R   0.518246 0.871320 0.500451 -0.099924
C19   C     C_R   0.518697 0.935483 0.622803 0.121290
C20   C     C_3   0.455503 0.926841 0.738742 -0.458171
C21   C     C_3   0.454630 0.068691 0.738412 -0.497580
C22   C     C_R   0.459340 0.405322 0.070103 0.118238
C23   C     C_R   0.503198 0.739957 0.499841 0.872459
C24   C     C_R   0.545771 0.588430 0.072357 -0.090019
C25   C     C_R   0.545337 0.588889 0.928478 -0.108157
C26   C     C_R   0.462062 0.402971 0.927933 0.144939
C27   C     C_3   0.367653 0.360206 0.915076 -0.533199
C28   C     C_3   0.362143 0.369164 0.067807 0.214592
C29   C     C_R   0.673151 0.500526 0.500608 0.879686
C30   C     C_R   0.813711 0.568267 0.400942 -0.257912
C31   C     C_R   0.768790 0.502386 0.501992 -0.061273
C32   C     C_R   0.814845 0.438352 0.604223 -0.258860
C33   C     C_R   0.907468 0.437757 0.604805 0.117240
C34   C     C_R   0.953460 0.504524 0.503181 0.061979
H1    H     H_    0.776467 0.618602 0.323307 0.148944
H2    H     H_    0.541867 0.887231 0.284038 0.166754
H3    H     H_    0.389935 0.884383 0.710014 0.211442
H4    H     H_    0.487753 0.886233 0.830700 0.201808
H5    H     H_    0.388637 0.108378 0.708367 0.200736
H6    H     H_    0.486020 0.110084 0.830498 0.201719
H7    H     H_    0.581505 0.661094 0.126812 0.125958
H8    H     H_    0.580493 0.662156 0.874661 0.136051
H9    H     H_    0.325064 0.428283 0.859090 0.255353
H10   H     H_    0.362134 0.262585 0.878148 0.156872
H11   H     H_    0.778483 0.387126 0.681306 0.154445
H12   H     H_    0.348707 0.278053 0.118588 0.110178
H13   H     H_    0.919741 0.319582 0.782635 0.150559
H14   H     H_    0.083583 0.317018 0.780194 0.157897
H15   H     H_    0.223258 0.379390 0.673983 0.147977
H16   H     H_    0.221602 0.628448 0.330575 0.195097
H17   H     H_    0.080422 0.692640 0.226067 0.166348
H18   H     H_    0.916522 0.689933 0.224267 0.148903
H19   H     H_    0.541510 0.114803 0.284321 0.167852
N1    N     N_R   0.499390 0.499140 0.142800 -0.082544
N2    N     N_R   0.499390 0.499180 0.857150 -0.088816
O1    O     O_R   0.500010 0.316790 0.614690 -0.617440
O2    O     O_R   0.500000 0.316760 0.385350 -0.631326
O3    O     O_R   0.367850 0.499990 0.614680 -0.628765
O4    O     O_R   0.367840 0.499950 0.385340 -0.557905
O5    O     O_R   0.500000 0.683240 0.614650 -0.621092
O6    O     O_R   0.499990 0.683210 0.385310 -0.622660
O7    O     O_R   0.632160 0.500050 0.614660 -0.625188
O8    O     O_R   0.632150 0.500010 0.385320 -0.628335
Zn1   Zn    Zn3+2 0.500010 0.500020 0.653130 0.950918
Zn2   Zn    Zn3+2 0.499990 0.499980 0.346870 0.978326
Cl1   Cl    Cl    0.288631 0.492973 0.113228 -0.625593

loop_
_geom_bond_atom_site_label_1
_geom_bond_atom_site_label_2
_ccdc_geom_bond_type
C25   H8    S    
C7    C13   A    
C28   Cl1   S    
C11   C12   S    
O1    Zn1   S    
C24   C25   A    
C6    C7    A    
C1    C15   S    
C17   H2    S    
C1    O2    A    
C10   H15   S    
C20   H4    S    
C32   H11   S    
C19   C20   S    
C21   H5    S    
O5    Zn1   S    
C2    C30   A    
C12   O3    A    
N2    Zn1   S    
C2    C34   A    
O8    Zn2   S    
C17   C18   A    
C5    C10   A    
C22   N1    A    
N1    Zn2   S    
C22   C28   S    
C4    C5    A    
C32   C33   A    
C20   H3    S    
C11   C13   A    
C8    H17   S    
C28   H12   S    
C26   C27   S    
C5    C6    A    
C9    H18   S    
C24   H7    S    
C30   H1    S    
C15   C16   A    
C14   C19   A    
C14   C21   S    
C3    H13   S    
C29   O8    A    
C26   N2    A    
C33   C34   A    
C12   O4    A    
O6    Zn2   S    
O3    Zn1   S    
C30   C31   A    
C31   C32   A    
C7    C8    A    
C10   C11   A    
C3    C33   A    
C24   N1    A    
C13   H16   S    
C25   N2    A    
C23   O6    A    
C4    H14   S    
C20   C21   S    
C6    C34   A    
C29   C31   S    
C18   C19   A    
C22   C26   A    
C27   C28   S    
C27   H9    S    
C29   O7    A    
C16   C17   A    
O7    Zn1   S    
C14   C15   A    
C16   H19   S    
C2    C9    A    
C27   H10   S    
C1    O1    A    
C23   O5    A    
O4    Zn2   S    
C3    C4    A    
C18   C23   S    
O2    Zn2   S    
C8    C9    A    
C21   H6    S    
