data_mof_unit_5103.cif
_audit_creation_date              2013-03-05T16:35:51-0500
_audit_creation_method            fapswitch 2.2
_symmetry_space_group_name_H-M    P1
_symmetry_Int_Tables_number       1
_space_group_crystal_system       triclinic
_cell_length_a                    23.56125
_cell_length_b                    9.093588
_cell_length_c                    7.792379
_cell_angle_alpha                 90.417979
_cell_angle_beta                  90.097222
_cell_angle_gamma                 90.252299
_cell_volume                      1669.50318717

loop_
_atom_site_label
_atom_site_type_symbol
_atom_site_description
_atom_site_fract_x
_atom_site_fract_y
_atom_site_fract_z
_atom_type_partial_charge
O1    O     O_R   0.500000 0.288390 0.642760 -0.571408
O2    O     O_R   0.500000 0.711610 0.357240 -0.582623
O3    O     O_R   0.500000 0.711610 0.642760 -0.573805
O4    O     O_R   0.500000 0.288390 0.357240 -0.585051
C1    C     C_R   0.499970 0.220044 0.499616 0.834275
C2    C     C_R   0.499999 0.779954 0.500376 0.826384
O5    O     O_R   0.417880 0.500000 0.642820 -0.529559
O6    O     O_R   0.582120 0.500000 0.357180 -0.575293
O7    O     O_R   0.582120 0.500000 0.642820 -0.522101
O8    O     O_R   0.417880 0.500000 0.357180 -0.578687
C3    C     C_R   0.209090 0.512469 0.476442 0.002980
C4    C     C_R   0.791811 0.499474 0.471638 0.000418
C5    C     C_R   0.390731 0.503438 0.499779 0.883709
C6    C     C_R   0.609447 0.495446 0.499846 0.878787
Cu1   Cu    Cu3+1 0.500000 0.500000 0.669080 1.095386
Cu2   Cu    Cu3+1 0.500000 0.500000 0.330920 1.060383
C7    C     C_R   0.300416 0.598494 0.371441 0.251600
C8    C     C_R   0.700241 0.428292 0.350556 0.241000
C9    C     C_R   0.296123 0.433910 0.619023 0.290933
C10   C     C_R   0.704780 0.541154 0.636331 0.291505
C11   C     C_R   0.328191 0.513113 0.497763 -0.271979
C12   C     C_R   0.672363 0.486908 0.496843 -0.278067
C13   C     C_R   0.880318 0.638857 0.464454 0.745126
C14   C     C_R   0.120733 0.390669 0.403291 0.738657
C15   C     C_R   0.882674 0.378068 0.436627 0.678943
C16   C     C_R   0.119447 0.636179 0.513296 0.685150
N1    N     N_R   0.852948 0.505829 0.457575 -0.432731
N2    N     N_R   0.148170 0.512611 0.464974 -0.439272
C17   C     C_R   0.941329 0.382428 0.403256 -0.134909
C18   C     C_R   0.060171 0.645029 0.489622 -0.129855
C19   C     C_R   0.940182 0.645033 0.471891 -0.111079
C20   C     C_R   0.060944 0.387418 0.393097 -0.106396
C21   C     C_R   0.970795 0.514920 0.436799 -0.122495
C22   C     C_R   0.030652 0.516077 0.438861 -0.121099
C23   C     C_R   0.971221 0.258315 0.340670 0.314479
C24   C     C_R   0.029524 0.776920 0.520088 0.308483
C25   C     C_R   0.969594 0.776303 0.514045 0.447882
C26   C     C_R   0.031104 0.260699 0.335717 0.448796
C27   C     C_1   0.499969 0.065372 0.499461 -0.125846
C28   C     C_1   0.499975 0.934624 0.500508 -0.126929
C29   C     C_R   0.241094 0.594569 0.358100 0.317252
C30   C     C_R   0.759334 0.439730 0.335283 0.324315
C31   C     C_R   0.236176 0.432888 0.607531 0.248292
C32   C     C_R   0.764692 0.549117 0.623126 0.240234
N3    N     N_1   0.500000 0.500000 0.076820 -0.014510
N4    N     N_1   0.500000 0.500000 0.923180 -0.012037
O9    O     O_2   0.849481 0.763506 0.467172 -0.386697
O10   O     O_2   0.151602 0.273031 0.354359 -0.393679
O11   O     O_2   0.855499 0.247743 0.450612 -0.434126
O12   O     O_2   0.148435 0.747698 0.588304 -0.432154
O13   O     O_3   0.943167 0.136550 0.275385 -0.660745
H1    H     H_    0.910041 0.171447 0.208761 0.392490
O14   O     O_3   0.056853 0.908641 0.552139 -0.658972
H2    H     H_    0.087279 0.918685 0.465381 0.396637
O15   O     O_3   0.938788 0.901783 0.551943 -0.588800
H3    H     H_    0.964237 0.982554 0.589838 0.388564
O16   O     O_3   0.061330 0.142473 0.270981 -0.631285
H4    H     H_    0.035394 0.062769 0.233044 0.378818
N5    N     N_R   0.213150 0.675673 0.224549 0.176590
O17   O     O_R   0.171943 0.616051 0.136682 -0.300111
O18   O     O_R   0.229406 0.808709 0.187843 -0.211779
N6    N     N_R   0.786526 0.390511 0.179928 0.169310
O19   O     O_R   0.829377 0.463088 0.118069 -0.309563
O20   O     O_R   0.769619 0.271279 0.101445 -0.234328
N7    N     N_R   0.202707 0.347190 0.724325 0.144931
O21   O     O_R   0.160133 0.406259 0.805103 -0.275243
O22   O     O_R   0.212144 0.207092 0.740619 -0.245427
N8    N     N_R   0.797816 0.613093 0.760156 0.164690
O23   O     O_R   0.846193 0.555789 0.803623 -0.283830
O24   O     O_R   0.783262 0.738969 0.826992 -0.250975
O25   O     O_3   0.329990 0.685720 0.257662 -0.626932
H5    H     H_    0.364248 0.724961 0.316182 0.330140
O26   O     O_3   0.670673 0.360658 0.218700 -0.629735
H6    H     H_    0.640735 0.298340 0.270543 0.337280
O27   O     O_3   0.324651 0.357681 0.745370 -0.657832
H7    H     H_    0.298660 0.337686 0.842085 0.379672
O28   O     O_3   0.676862 0.586258 0.783320 -0.641883
H8    H     H_    0.702565 0.576016 0.883110 0.385734

loop_
_geom_bond_atom_site_label_1
_geom_bond_atom_site_label_2
_geom_bond_distance
_ccdc_geom_bond_type
O15   H3    0.989220 S    
O26   H6    0.991308 S    
O7    C6    1.288216 A    
O3    C2    1.275663 A    
N3    N4    1.197222 T    
C10   O28   1.382355 S    
O1    C1    1.272928 A    
C24   C25   1.412725 A    
C9    C11   1.410677 A    
C16   O12   1.349239 S    
Cu1   Cu2   2.635072 S    
C17   C21   1.410439 A    
C4    C30   1.412380 A    
C24   O14   1.378415 S    
C8    C30   1.401044 A    
N8    O23   1.300756 A    
N7    O22   1.301294 A    
N6    O20   1.301535 A    
C19   C21   1.413657 A    
C3    C31   1.409646 A    
O1    Cu1   1.933706 S    
C20   C26   1.416462 A    
O2    Cu2   1.933705 S    
C30   N6    1.439997 S    
O5    Cu1   1.945297 S    
N5    O17   1.301175 A    
O6    Cu2   1.945295 S    
O2    C2    1.272867 A    
C10   C32   1.417095 A    
C9    C31   1.415084 A    
C15   O11   1.349731 S    
C15   C17   1.407098 A    
N5    O18   1.301307 A    
C13   O9    1.349128 S    
C18   C22   1.414345 A    
C4    N1    1.445744 S    
O13   H1    0.991250 S    
C14   O10   1.349286 S    
C23   C26   1.411601 A    
C29   N5    1.440003 S    
C27   C28   1.189058 T    
O28   H8    0.989968 S    
C7    C11   1.418956 A    
C19   C25   1.413970 A    
C13   C19   1.412406 A    
O4    Cu2   1.936681 S    
O27   H7    0.989251 S    
C14   C20   1.410963 A    
N6    O19   1.299098 A    
C26   O16   1.384749 S    
C31   N7    1.436946 S    
C21   C22   1.410367 A    
C5    C11   1.476595 S    
C10   C12   1.412151 A    
C7    O25   1.381398 S    
C8    O26   1.379818 S    
C13   N1    1.369011 A    
C1    C27   1.406517 S    
C23   O13   1.380566 S    
C2    C28   1.406503 S    
C32   N8    1.439401 S    
O3    Cu1   1.936680 S    
O6    C6    1.284768 A    
C8    C12   1.418361 A    
C14   N2    1.365078 A    
O4    C1    1.275617 A    
O8    C5    1.283344 A    
Cu2   N3    1.980043 S    
O14   H2    0.990601 S    
C15   N1    1.368132 A    
C17   C23   1.416976 A    
C16   N2    1.365220 A    
C18   C24   1.421364 A    
C6    C12   1.484975 S    
C9    O27   1.383279 S    
O7    Cu1   1.945986 S    
O25   H5    0.990270 S    
C4    C32   1.415220 A    
O8    Cu2   1.945988 S    
O16   H4    0.989200 S    
C3    N2    1.437974 S    
C3    C29   1.408490 A    
C7    C29   1.401661 A    
C25   O15   1.385332 S    
O5    C5    1.284839 A    
N8    O24   1.301715 A    
N7    O21   1.301129 A    
Cu1   N4    1.980043 S    
C20   C22   1.416872 A    
C16   C18   1.411162 A    
