data_mof_unit_27503.cif
_audit_creation_date              2013-03-05T16:05:41-0500
_audit_creation_method            fapswitch 2.2
_symmetry_space_group_name_H-M    P1
_symmetry_Int_Tables_number       1
_space_group_crystal_system       triclinic
_cell_length_a                    10.693415
_cell_length_b                    14.998302
_cell_length_c                    15.253346
_cell_angle_alpha                 82.233528
_cell_angle_beta                  89.991361
_cell_angle_gamma                 103.390452
_cell_volume                      2356.78678089

loop_
_atom_site_label
_atom_site_type_symbol
_atom_site_description
_atom_site_fract_x
_atom_site_fract_y
_atom_site_fract_z
_atom_type_partial_charge
O1    O     O_R   0.462770 0.383110 0.605620 -0.588551
O2    O     O_R   0.510160 0.531900 0.639510 -0.590049
C1    C     C_R   0.478173 0.441838 0.662919 0.897567
O3    O     O_R   0.661510 0.425600 0.483070 -0.626442
O4    O     O_R   0.708900 0.574390 0.516960 -0.578951
C2    C     C_R   0.741283 0.499033 0.501938 0.978796
Zn1   Zn    Zn3+2 0.468350 0.400660 0.477370 0.990908
Zn2   Zn    Zn3+2 0.531650 0.599340 0.522630 1.051431
O5    O     O_R   0.489840 0.468100 0.360490 -0.588081
O6    O     O_R   0.537230 0.616890 0.394380 -0.591349
O7    O     O_R   0.291100 0.425610 0.483040 -0.633416
O8    O     O_R   0.338490 0.574400 0.516930 -0.496091
C3    C     C_R   0.513817 0.558084 0.337481 0.993011
C4    C     C_R   0.258280 0.499894 0.499417 0.940812
C5    C     C_3   0.895046 0.394615 0.495157 0.875386
C6    C     C_3   0.039539 0.397909 0.488711 0.147913
H1    H     H_    0.062051 0.347515 0.542348 0.171830
H2    H     H_    0.109106 0.545125 0.355922 0.198740
C7    C     C_3   0.953029 0.576273 0.430353 0.239993
C8    C     C_3   0.934447 0.525027 0.593685 0.029328
C9    C     C_3   0.877176 0.497023 0.503205 -0.271882
H3    H     H_    0.916283 0.594305 0.600168 0.173884
C10   C     C_3   0.121212 0.498103 0.500862 -0.276257
C11   C     C_3   0.092591 0.566425 0.420834 -0.535434
C12   C     C_3   0.083704 0.534190 0.589804 0.809509
H4    H     H_    0.957745 0.643287 0.456294 0.152518
H5    H     H_    0.159113 0.635884 0.418426 0.240205
C13   C     C_R   0.442174 0.407008 0.756555 -0.214975
C14   C     C_R   0.496505 0.593489 0.245064 -0.286608
C15   C     C_R   0.362560 0.285373 0.878742 -0.305668
C16   C     C_R   0.404886 0.311997 0.790085 0.524281
C17   C     C_R   0.435762 0.472435 0.812142 -0.247181
C18   C     C_R   0.387652 0.447312 0.899240 0.100603
C19   C     C_R   0.358467 0.352332 0.934005 0.082917
C20   C     C_R   0.384373 0.515332 0.955144 0.059606
C21   C     C_R   0.377718 0.488410 0.048070 0.045202
C22   C     C_R   0.353630 0.392759 0.081199 -0.203549
C23   C     C_R   0.336470 0.325937 0.024690 -0.220246
C24   C     C_R   0.397967 0.610323 0.921801 0.381523
C25   C     C_R   0.447860 0.677171 0.976189 -0.275724
C26   C     C_R   0.462623 0.651325 0.066340 -0.112760
C27   C     C_R   0.410917 0.558318 0.104062 -0.098835
C28   C     C_R   0.529406 0.716036 0.119589 0.467301
C29   C     C_R   0.557936 0.684040 0.206773 0.339419
C30   C     C_R   0.407075 0.537619 0.196760 0.310947
H6    H     H_    0.318132 0.253589 0.052816 0.146255
H7    H     H_    0.476445 0.748982 0.946938 0.171059
H8    H     H_    0.337166 0.212404 0.904928 0.158978
H9    H     H_    0.475109 0.543843 0.787479 0.226782
H10   H     H_    0.354805 0.367283 0.150628 0.199624
N1    N     N_R   0.573860 0.731700 0.552730 -0.169670
N2    N     N_R   0.426060 0.268290 0.447230 -0.124900
C31   C     C_R   0.717064 0.847176 0.621199 0.366467
C32   C     C_R   0.675364 0.755352 0.605414 0.481489
C33   C     C_R   0.503507 0.792272 0.519661 0.409417
C34   C     C_R   0.552433 0.888609 0.521712 -0.200164
C35   C     C_R   0.661119 0.914767 0.574027 -0.119353
C36   C     C_R   0.500682 0.959421 0.472970 0.080835
C37   C     C_R   0.545209 0.052790 0.488850 0.041259
C38   C     C_R   0.663025 0.077218 0.531751 0.369627
C39   C     C_R   0.718131 0.008152 0.574413 -0.232987
C40   C     C_R   0.413661 0.942115 0.404078 -0.235786
C41   C     C_R   0.355445 0.009948 0.363672 -0.215275
C42   C     C_R   0.381088 0.097009 0.391076 0.162471
C43   C     C_R   0.475301 0.119324 0.454854 0.008803
C44   C     C_R   0.314491 0.162521 0.354701 -0.313617
C45   C     C_R   0.339807 0.248802 0.383287 0.047320
C46   C     C_R   0.491408 0.206339 0.484443 0.053293
H11   H     H_    0.809008 0.028312 0.606101 0.186295
H12   H     H_    0.552592 0.225700 0.538121 0.175894
H13   H     H_    0.291225 0.300777 0.354228 0.193723
H14   H     H_    0.287847 0.993439 0.311981 0.142661
H15   H     H_    0.392539 0.877605 0.377390 0.177557
H16   H     H_    0.244047 0.147302 0.304460 0.153246
O9    O     O_3   0.825133 0.345961 0.428528 -0.539274
C47   C     C_3   0.835491 0.391163 0.340727 -0.084958
H17   H     H_    0.931608 0.435233 0.320998 0.183440
H18   H     H_    0.758552 0.429310 0.328519 0.188955
H19   H     H_    0.817408 0.337256 0.296144 0.156331
O10   O     O_3   0.140020 0.630269 0.579444 -0.766399
H20   H     H_    0.127372 0.653646 0.635982 0.353613
O11   O     O_3   0.311615 0.468696 0.242228 -0.804136
H21   H     H_    0.235427 0.458106 0.204518 0.330052
O12   O     O_3   0.653782 0.737229 0.251460 -0.596801
C48   C     C_3   0.606176 0.804595 0.288493 -0.188602
H22   H     H_    0.658601 0.818598 0.349765 0.172265
H23   H     H_    0.501697 0.782330 0.307279 0.142651
H24   H     H_    0.626655 0.870506 0.242517 0.183344
O13   O     O_3   0.406050 0.244800 0.736594 -0.593401
C49   C     C_3   0.523656 0.217799 0.746799 -0.295214
H25   H     H_    0.606934 0.277146 0.726363 0.178556
H26   H     H_    0.525482 0.164484 0.703295 0.186261
H27   H     H_    0.533816 0.186317 0.816034 0.153596
O14   O     O_3   0.851056 0.337705 0.575755 -0.784478
H28   H     H_    0.756153 0.325843 0.580804 0.378614
O15   O     O_3   0.359626 0.636394 0.837482 -0.767111
H29   H     H_    0.375017 0.704796 0.825703 0.326430
O16   O     O_3   0.582291 0.806817 0.083855 -0.580552
C50   C     C_3   0.487021 0.858029 0.086249 -0.362718
H30   H     H_    0.532922 0.932467 0.067197 0.198104
H31   H     H_    0.441918 0.849975 0.153496 0.140055
H32   H     H_    0.410542 0.838423 0.038485 0.165435
O17   O     O_3   0.821979 0.871063 0.673699 -0.580940
C51   C     C_3   0.778673 0.888826 0.755815 -0.323104
H33   H     H_    0.859114 0.893405 0.802158 0.202480
H34   H     H_    0.697396 0.832678 0.786560 0.140337
H35   H     H_    0.749700 0.955796 0.749262 0.166909
O18   O     O_3   0.743200 0.689826 0.635567 -0.572234
C52   C     C_3   0.727417 0.666029 0.728311 -0.239492
H36   H     H_    0.725720 0.591463 0.745187 0.174156
H37   H     H_    0.636490 0.676971 0.755911 0.125511
H38   H     H_    0.811246 0.705009 0.761015 0.194798
O19   O     O_3   0.384544 0.756197 0.488790 -0.728103
H39   H     H_    0.324407 0.790522 0.510177 0.346573
O20   O     O_3   0.731411 0.168026 0.522184 -0.744798
H40   H     H_    0.816626 0.171714 0.549026 0.370475
O21   O     O_3   0.069416 0.362115 0.412031 -0.740816
H41   H     H_    0.133227 0.408314 0.372773 0.361907
O22   O     O_3   0.891143 0.578637 0.348115 -0.643174
C53   C     C_3   0.925320 0.667823 0.298601 -0.258168
H42   H     H_    0.031264 0.692213 0.287670 0.146476
H43   H     H_    0.886552 0.718101 0.331367 0.200955
H44   H     H_    0.881844 0.664689 0.232737 0.211934
O23   O     O_3   0.872312 0.465176 0.667907 -0.753824
H45   H     H_    0.896713 0.496985 0.720550 0.354471
O24   O     O_3   0.132927 0.498170 0.671359 -0.585763
C54   C     C_3   0.118059 0.401802 0.689896 -0.296955
H46   H     H_    0.018962 0.362525 0.682249 0.235144
H47   H     H_    0.138884 0.385268 0.760684 0.204910
H48   H     H_    0.190424 0.378856 0.652096 0.153394

loop_
_geom_bond_atom_site_label_1
_geom_bond_atom_site_label_2
_geom_bond_distance
_ccdc_geom_bond_type
C36   C40   1.414104 A    
C25   H7    1.081725 S    
C5    O9    1.439563 S    
C33   C34   1.422847 A    
O9    C47   1.408991 S    
O24   C54   1.406196 S    
C12   O10   1.414445 S    
C26   C27   1.417176 A    
C21   C27   1.422856 A    
C20   C21   1.417462 A    
C11   H5    1.113137 S    
C12   O24   1.437596 S    
C5    O14   1.411190 S    
C51   H34   1.112935 S    
C31   C32   1.399534 A    
O18   C52   1.411621 S    
Zn1   O7    2.019232 S    
C40   C41   1.387973 A    
H2    C11   1.106863 S    
C3    C14   1.465174 S    
C1    C13   1.471753 S    
C7    C9    1.581697 S    
C47   H18   1.108247 S    
Zn1   N2    2.046530 S    
C52   H37   1.114468 S    
C15   C16   1.401142 A    
O7    C4    1.297371 A    
C8    C12   1.570353 S    
C39   H11   1.083045 S    
C5    C6    1.537145 S    
C44   H16   1.083804 S    
C34   C35   1.419566 A    
C7    H4    1.119535 S    
O5    C3    1.312271 A    
C30   O11   1.381619 S    
C6    H1    1.102628 S    
C16   O13   1.381916 S    
C10   C11   1.562402 S    
C47   H19   1.108951 S    
C40   H15   1.076168 S    
N1    C33   1.355933 A    
N2    C46   1.353569 A    
C53   H44   1.109255 S    
C44   C45   1.388627 A    
C7    O22   1.418390 S    
C37   C38   1.414542 A    
O1    Zn1   1.937332 S    
C26   C28   1.415588 A    
O3    Zn1   2.016164 S    
C51   H33   1.109173 S    
C53   H43   1.112152 S    
C48   H23   1.114930 S    
C24   O15   1.383353 S    
C8    O23   1.406355 S    
C15   C19   1.403629 A    
C13   C17   1.393748 A    
C47   H17   1.102430 S    
O3    C2    1.293884 A    
C52   H38   1.109248 S    
C24   C25   1.398315 A    
C31   C35   1.409683 A    
C33   O19   1.372233 S    
C36   C37   1.424546 A    
C48   H22   1.109301 S    
C2    C9    1.460510 S    
C14   C30   1.398384 A    
C38   C39   1.394420 A    
O1    C1    1.306816 A    
C27   C30   1.404559 A    
C42   C44   1.399038 A    
C4    C10   1.459847 S    
C20   C24   1.420494 A    
C28   C29   1.409714 A    
C54   H47   1.109164 S    
C22   C23   1.389031 A    
C49   H26   1.109401 S    
C50   H30   1.109178 S    
Zn2   O8    2.016164 S    
C43   C46   1.411279 A    
O15   H29   0.991889 S    
C8    C9    1.579245 S    
C18   C19   1.413440 A    
O12   C48   1.411202 S    
Zn2   N1    2.046172 S    
N2    C45   1.356426 A    
Zn2   O6    1.937332 S    
C25   C26   1.396588 A    
C50   H31   1.112978 S    
C8    H3    1.117309 S    
O11   H21   0.992336 S    
C6    C10   1.588324 S    
C14   C29   1.410461 A    
C28   O16   1.383279 S    
C54   H46   1.101381 S    
C53   H42   1.112031 S    
C49   H27   1.113130 S    
O19   H39   0.991809 S    
C48   H24   1.108752 S    
C15   H8    1.084064 S    
Zn1   O5    1.912895 S    
C21   C22   1.418678 A    
C19   C23   1.390745 A    
C13   C16   1.411022 A    
O2    Zn2   1.912895 S    
O8    C4    1.300990 A    
O10   H20   0.994285 S    
C29   O12   1.385618 S    
O6    C3    1.303263 A    
O4    Zn2   2.019231 S    
O22   C53   1.411987 S    
C35   C39   1.392890 A    
C32   O18   1.382651 S    
N1    C32   1.359686 A    
C17   C18   1.395122 A    
O2    C1    1.313280 A    
C54   H48   1.107496 S    
C6    O21   1.416807 S    
C42   C43   1.416155 A    
C22   H10   1.077297 S    
C49   H25   1.113674 S    
O4    C2    1.304245 A    
C31   O17   1.385623 S    
C18   C20   1.421553 A    
C34   C36   1.430355 A    
C7    C11   1.542069 S    
C45   H13   1.080877 S    
C10   C12   1.610343 S    
O14   H28   0.990017 S    
C17   H9    1.071418 S    
C23   H6    1.084223 S    
C41   C42   1.391635 A    
C5    C9    1.611705 S    
C50   H32   1.110310 S    
C41   H14   1.084219 S    
C46   H12   1.076652 S    
O16   C50   1.413932 S    
C52   H36   1.109101 S    
O17   C51   1.414732 S    
C38   O20   1.376945 S    
O13   C49   1.410234 S    
O21   H41   0.986436 S    
C51   H35   1.109905 S    
C37   C43   1.424539 A    
O20   H40   0.991936 S    
O23   H45   0.993180 S    
