data_mof_unit_63237.cif
_audit_creation_date              2012-12-10T19:58:37-0500
_audit_creation_method            fapswitch 2.2
_symmetry_space_group_name_H-M    P1
_symmetry_Int_Tables_number       1
_space_group_crystal_system       triclinic
_cell_length_a                    38.278125
_cell_length_b                    32.104295
_cell_length_c                    21.628591
_cell_angle_alpha                 90.106791
_cell_angle_beta                  123.01216
_cell_angle_gamma                 89.917318
_cell_volume                      22288.0843519

loop_
_atom_site_label
_atom_site_type_symbol
_atom_type_description
_atom_site_fract_x
_atom_site_fract_y
_atom_site_fract_z
_atom_type_partial_charge
C1    C     C_R   0.919358 0.000010 0.418195 0.932429
C2    C     C_R   0.080644 0.000013 0.581621 0.889579
C3    C     C_R   0.419358 0.500009 0.418197 0.932461
C4    C     C_R   0.580644 0.500013 0.581619 0.889575
C5    C     C_R   0.993985 0.000771 0.681129 -0.146301
C6    C     C_R   0.007262 0.000439 0.320008 -0.206496
C7    C     C_R   0.493981 0.500771 0.681126 -0.146307
C8    C     C_R   0.507264 0.500439 0.320009 -0.206510
C9    C     C_R   0.018710 0.029591 0.736511 -0.273325
C10   C     C_R   0.984182 0.030789 0.266499 -0.248053
C11   C     C_R   0.518695 0.529601 0.736498 -0.273317
C12   C     C_R   0.484192 0.530795 0.266508 -0.248054
C13   C     C_R   0.021325 0.028009 0.802426 0.650211
C14   C     C_R   0.981086 0.029442 0.200167 0.641342
C15   C     C_R   0.521311 0.528019 0.802413 0.650201
C16   C     C_R   0.481095 0.529448 0.200175 0.641324
C17   C     C_R   0.002518 0.995132 0.815808 -0.248714
C18   C     C_R   0.997501 0.995451 0.184145 -0.247077
C19   C     C_R   0.502518 0.495134 0.815808 -0.248709
C20   C     C_R   0.497501 0.495452 0.184144 -0.247074
C21   C     C_R   0.729816 0.022855 0.182132 -0.098530
C22   C     C_R   0.269936 0.008438 0.827219 -0.098847
C23   C     C_R   0.229811 0.523084 0.182380 -0.098547
C24   C     C_R   0.769936 0.508456 0.827211 -0.098845
C25   C     C_R   0.706578 0.000066 0.203386 -0.126151
C26   C     C_R   0.293396 0.999708 0.796270 -0.124496
C27   C     C_R   0.206579 0.500070 0.203387 -0.126127
C28   C     C_R   0.793396 0.499708 0.796269 -0.124497
C29   C     C_R   0.726521 0.976898 0.268855 0.699279
C30   C     C_R   0.273666 0.990902 0.720877 0.700977
C31   C     C_R   0.226528 0.476676 0.268604 0.699274
C32   C     C_R   0.773666 0.490883 0.720882 0.700974
C33   C     C_R   0.770229 0.976008 0.314698 -0.169462
C34   C     C_R   0.229960 0.990700 0.674599 -0.186455
C35   C     C_R   0.270236 0.475777 0.314435 -0.169578
C36   C     C_R   0.729961 0.490681 0.674605 -0.186457
C37   C     C_R   0.793335 0.998932 0.293184 -0.058037
C38   C     C_R   0.206651 0.999523 0.705896 -0.057285
C39   C     C_R   0.293336 0.498924 0.293168 -0.058011
C40   C     C_R   0.706651 0.499522 0.705894 -0.057284
C41   C     C_R   0.773308 0.021937 0.227830 -0.114389
C42   C     C_R   0.226455 0.008206 0.781086 -0.113759
C43   C     C_R   0.273303 0.522156 0.228065 -0.114326
C44   C     C_R   0.726455 0.508223 0.781078 -0.113762
C45   C     C_R   0.997562 0.000150 0.618063 0.938468
C46   C     C_R   0.003232 0.000035 0.382742 0.873211
C47   C     C_R   0.497561 0.500150 0.618062 0.938486
C48   C     C_R   0.503232 0.500035 0.382742 0.873209
C49   C     C_1   0.662018 0.000092 0.159074 0.036132
C50   C     C_1   0.337963 0.999785 0.840735 0.034727
C51   C     C_1   0.162018 0.500095 0.159076 0.036149
C52   C     C_1   0.837963 0.499785 0.840735 0.034722
C53   C     C_1   0.837877 0.999516 0.337182 -0.013456
C54   C     C_1   0.162112 0.999805 0.662155 -0.016770
C55   C     C_1   0.337878 0.499513 0.337171 -0.013498
C56   C     C_1   0.662112 0.499804 0.662153 -0.016784
C57   C     C_1   0.875153 0.999915 0.374035 -0.130782
C58   C     C_1   0.124838 0.999982 0.625512 -0.121141
C59   C     C_1   0.375154 0.499915 0.374031 -0.130814
C60   C     C_1   0.624838 0.499982 0.625510 -0.121167
C61   C     C_1   0.624737 0.000046 0.122565 -0.127346
C62   C     C_1   0.375249 0.999867 0.877362 -0.126913
C63   C     C_1   0.124737 0.500047 0.122567 -0.127368
C64   C     C_1   0.875249 0.499867 0.877362 -0.126921
C65   C     C_1   0.499989 0.875480 0.999832 -0.063750
C66   C     C_1   0.999989 0.375480 0.999832 -0.063718
C67   C     C_R   0.000012 0.919305 0.000206 0.826602
C68   C     C_R   0.500012 0.419304 0.000205 0.826620
C69   C     C_R   0.000636 0.998208 0.880240 0.918371
C70   C     C_R   0.999351 0.998332 0.119724 0.915205
C71   C     C_R   0.500636 0.498208 0.880240 0.918383
C72   C     C_R   0.499351 0.498332 0.119724 0.915224
C73   C     C_R   0.999991 0.080599 0.999994 0.965245
C74   C     C_R   0.499991 0.580599 0.999994 0.965280
C75   C     C_R   0.500001 0.919573 0.999950 0.886568
C76   C     C_R   0.000001 0.419573 0.999950 0.886620
C77   C     C_R   0.580534 0.000003 0.079814 0.887779
C78   C     C_R   0.419461 0.999971 0.920174 0.886959
C79   C     C_R   0.080534 0.500003 0.079814 0.887801
C80   C     C_R   0.919461 0.499971 0.920174 0.886961
C81   C     C_1   0.999972 0.124681 0.999939 -0.136871
C82   C     C_1   0.499972 0.624681 0.999939 -0.136874
C83   C     C_R   0.499998 0.080623 0.000052 0.888405
C84   C     C_R   0.999998 0.580623 0.000052 0.888376
C85   C     C_R   0.517847 0.228333 0.067061 -0.155472
C86   C     C_R   0.482052 0.228279 0.933596 -0.157408
C87   C     C_R   0.018025 0.728332 0.067090 -0.155432
C88   C     C_R   0.981875 0.728280 0.933568 -0.157381
C89   C     C_R   0.499952 0.206664 0.000302 0.141783
C90   C     C_R   0.999952 0.706665 0.000303 0.141769
C91   C     C_R   0.981887 0.771697 0.933618 -0.130436
C92   C     C_R   0.018042 0.771751 0.067147 -0.130323
C93   C     C_R   0.482063 0.271696 0.933645 -0.130541
C94   C     C_R   0.517864 0.271751 0.067117 -0.130371
C95   C     C_R   0.999990 0.793346 0.000413 0.126674
C96   C     C_R   0.499989 0.293345 0.000411 0.126489
C97   C     C_1   0.499970 0.162220 0.000241 -0.039622
C98   C     C_1   0.999970 0.662220 0.000241 -0.039622
C99   C     C_1   0.000043 0.837748 0.000450 0.044342
C100  C     C_1   0.500042 0.337748 0.000448 0.044283
C101  C     C_1   0.000049 0.875048 0.000378 -0.073805
C102  C     C_1   0.500049 0.375048 0.000377 -0.073791
C103  C     C_1   0.499985 0.124902 0.000163 -0.147488
C104  C     C_1   0.999985 0.624902 0.000163 -0.147510
C105  C     C_R   0.507773 0.771896 0.951467 -0.057588
C106  C     C_R   0.492123 0.772080 0.048117 -0.057182
C107  C     C_R   0.007768 0.271896 0.951460 -0.057588
C108  C     C_R   0.992129 0.272080 0.048124 -0.057169
C109  C     C_R   0.936627 0.947928 0.632191 -0.003192
C110  C     C_R   0.062110 0.944282 0.364174 -0.027515
C111  C     C_R   0.436644 0.447908 0.632205 -0.003275
C112  C     C_R   0.562098 0.444268 0.364162 -0.027524
C113  C     C_R   0.499954 0.793586 0.999783 0.019958
C114  C     C_R   0.999954 0.293586 0.999784 0.019969
C115  C     C_R   0.993013 0.228121 0.049154 -0.079171
C116  C     C_R   0.006875 0.227937 0.950484 -0.079268
C117  C     C_R   0.493007 0.728121 0.049147 -0.079182
C118  C     C_R   0.506881 0.727936 0.950491 -0.079276
C119  C     C_R   0.999946 0.206584 0.999838 0.014879
C120  C     C_R   0.499946 0.706583 0.999838 0.014873
C121  C     C_1   0.499974 0.838240 0.999785 0.107047
C122  C     C_1   0.999974 0.338240 0.999785 0.107073
C123  C     C_1   0.999958 0.161901 0.999889 -0.082516
C124  C     C_1   0.499958 0.661901 0.999889 -0.082528
C125  C     C_R   0.920432 0.912712 0.648047 -0.105942
C126  C     C_R   0.077424 0.909764 0.344280 -0.062931
C127  C     C_R   0.420470 0.412679 0.648073 -0.105992
C128  C     C_R   0.577401 0.409745 0.344260 -0.062935
C129  C     C_R   0.939069 0.899684 0.722201 -0.024264
C130  C     C_R   0.056479 0.897275 0.269448 -0.035731
C131  C     C_R   0.439113 0.399656 0.722232 -0.024213
C132  C     C_R   0.556451 0.397260 0.269425 -0.035719
C133  C     C_R   0.971521 0.923854 0.779879 -0.067281
C134  C     C_R   0.024187 0.922671 0.214647 -0.068674
C135  C     C_R   0.471551 0.423841 0.779903 -0.067299
C136  C     C_R   0.524167 0.422665 0.214630 -0.068671
C137  C     C_R   0.981104 0.963163 0.763034 -0.094359
C138  C     C_R   0.017197 0.962321 0.234719 -0.056885
C139  C     C_R   0.481116 0.463156 0.763044 -0.094380
C140  C     C_R   0.517188 0.462318 0.234711 -0.056899
C141  C     C_R   0.970472 0.970432 0.690963 0.092042
C142  C     C_R   0.028988 0.968816 0.307751 0.011321
C143  C     C_R   0.470480 0.470424 0.690970 0.092076
C144  C     C_R   0.528982 0.468811 0.307745 0.011327
H1    H     H_    0.035979 0.053406 0.728634 0.194452
H2    H     H_    0.968395 0.055605 0.275983 0.197762
H3    H     H_    0.535956 0.553423 0.728614 0.194466
H4    H     H_    0.468411 0.555615 0.275998 0.197770
H5    H     H_    0.032067 0.788432 0.118967 0.184990
H6    H     H_    0.967850 0.788339 0.881827 0.185753
H7    H     H_    0.531753 0.288432 0.118914 0.185269
H8    H     H_    0.468162 0.288337 0.881876 0.186042
H9    H     H_    0.531729 0.211698 0.118824 0.163471
H10   H     H_    0.468157 0.211604 0.881791 0.164369
H11   H     H_    0.032045 0.711697 0.118876 0.163432
H12   H     H_    0.967843 0.711605 0.881741 0.164334
H13   H     H_    0.791878 0.039240 0.212688 0.204816
H14   H     H_    0.207717 0.014833 0.803601 0.203469
H15   H     H_    0.291869 0.539628 0.213111 0.204834
H16   H     H_    0.707717 0.514864 0.803588 0.203469
O1    O     O_R   0.939010 0.034430 0.439030 -0.588588
O2    O     O_R   0.060990 0.034430 0.560970 -0.627214
O3    O     O_R   0.439010 0.534430 0.439030 -0.588590
O4    O     O_R   0.560990 0.534430 0.560970 -0.627206
O5    O     O_R   0.560990 0.000040 0.112660 -0.590496
O6    O     O_R   0.439010 0.000040 0.887340 -0.586238
O7    O     O_R   0.060990 0.500040 0.112660 -0.590594
O8    O     O_R   0.939010 0.500040 0.887340 -0.586245
O9    O     O_R   0.561000 0.999980 0.009230 -0.620598
O10   O     O_R   0.439000 0.999980 0.990770 -0.622924
O11   O     O_R   0.061000 0.499980 0.009230 -0.620536
O12   O     O_R   0.939000 0.499980 0.990770 -0.622922
O13   O     O_R   0.499990 0.061030 0.051640 -0.612029
O14   O     O_R   0.500010 0.061030 0.948360 -0.610334
O15   O     O_R   0.999990 0.561030 0.051640 -0.612042
O16   O     O_R   0.000010 0.561030 0.948360 -0.610332
O17   O     O_R   0.939020 0.965580 0.438990 -0.631174
O18   O     O_R   0.060980 0.965580 0.561010 -0.572655
O19   O     O_R   0.439020 0.465580 0.438990 -0.631200
O20   O     O_R   0.560980 0.465580 0.561010 -0.572654
O21   O     O_R   0.999990 0.034430 0.591600 -0.601484
O22   O     O_R   0.000010 0.034430 0.408400 -0.622237
O23   O     O_R   0.499990 0.534430 0.591600 -0.601506
O24   O     O_R   0.500010 0.534430 0.408400 -0.622237
O25   O     O_R   1.000000 0.965580 0.591570 -0.632171
O26   O     O_R   1.000000 0.965580 0.408430 -0.604114
O27   O     O_R   0.500000 0.465580 0.591570 -0.632152
O28   O     O_R   0.500000 0.465580 0.408430 -0.604120
O29   O     O_R   0.034430 0.939010 0.034360 -0.630378
O30   O     O_R   0.965570 0.939010 0.965640 -0.631261
O31   O     O_R   0.534430 0.439010 0.034360 -0.630367
O32   O     O_R   0.465570 0.439010 0.965640 -0.631263
O33   O     O_R   0.034440 0.999990 0.942790 -0.586858
O34   O     O_R   0.965560 0.999990 0.057210 -0.592962
O35   O     O_R   0.534440 0.499990 0.942790 -0.586892
O36   O     O_R   0.465560 0.499990 0.057210 -0.593001
O37   O     O_R   0.965580 1.000000 0.873950 -0.618336
O38   O     O_R   0.034420 0.000000 0.126050 -0.616576
O39   O     O_R   0.465580 0.500000 0.873950 -0.618332
O40   O     O_R   0.534420 0.500000 0.126050 -0.616564
O41   O     O_R   0.034440 0.060980 0.034440 -0.596880
O42   O     O_R   0.965560 0.060980 0.965560 -0.598094
O43   O     O_R   0.534440 0.560980 0.034440 -0.596884
O44   O     O_R   0.465560 0.560980 0.965560 -0.598106
O45   O     O_R   0.500010 0.939050 0.051750 -0.592015
O46   O     O_R   0.499990 0.939050 0.948250 -0.592786
O47   O     O_R   0.000010 0.439050 0.051750 -0.592012
O48   O     O_R   0.999990 0.439050 0.948250 -0.592780
Zn1   Zn    Zn3+2 1.000000 0.045980 0.500000 1.038567
Zn2   Zn    Zn3+2 0.500000 0.545980 0.500000 1.038566
Zn3   Zn    Zn3+2 1.000000 0.954030 0.500000 1.052494
Zn4   Zn    Zn3+2 0.500000 0.454030 0.500000 1.052508
Zn5   Zn    Zn3+2 0.045980 0.999990 0.045940 1.042885
Zn6   Zn    Zn3+2 0.954020 0.999990 0.954060 1.032985
Zn7   Zn    Zn3+2 0.545980 0.499990 0.045940 1.042869
Zn8   Zn    Zn3+2 0.454020 0.499990 0.954060 1.032921
Zn9   Zn    Zn3+2 0.500000 0.000050 0.069040 1.047885
Zn10  Zn    Zn3+2 0.500000 0.000050 0.930960 1.052966
Zn11  Zn    Zn3+2 0.000000 0.500050 0.069040 1.047797
Zn12  Zn    Zn3+2 0.000000 0.500050 0.930960 1.052981
C145  C     C_2   0.791617 0.951412 0.384348 0.536095
H17   H     H_    0.825308 0.950439 0.419094 0.057296
O49   O     O_2   0.772015 0.931849 0.404070 -0.464103
C146  C     C_2   0.208773 0.981479 0.594353 0.557801
H18   H     H_    0.175090 0.982350 0.558534 0.072154
O50   O     O_2   0.228532 0.972758 0.566913 -0.436949
C147  C     C_2   0.291632 0.450941 0.383818 0.535883
H19   H     H_    0.325323 0.449946 0.418532 0.057325
O51   O     O_2   0.272035 0.431201 0.403351 -0.463855
C148  C     C_2   0.708774 0.481440 0.594365 0.557761
H20   H     H_    0.675091 0.482310 0.558546 0.072171
O52   O     O_2   0.728533 0.472705 0.566931 -0.436948
C149  C     C_2   0.012323 0.203580 0.897343 0.402353
H21   H     H_    0.027186 0.173224 0.912641 0.112040
O53   O     O_2   0.998765 0.216287 0.835043 -0.530047
C150  C     C_2   0.987556 0.203955 0.102321 0.401986
H22   H     H_    0.972691 0.173613 0.087061 0.112791
O54   O     O_2   0.001108 0.216804 0.164601 -0.530933
C151  C     C_2   0.512335 0.703580 0.897357 0.402347
H23   H     H_    0.527198 0.673224 0.912659 0.112048
O55   O     O_2   0.498782 0.716287 0.835060 -0.530041
C152  C     C_2   0.487544 0.703955 0.102307 0.401983
H24   H     H_    0.472679 0.673613 0.087043 0.112799
O56   O     O_2   0.501091 0.716804 0.164584 -0.530939
C153  C     C_2   0.518915 0.794715 0.904453 0.506369
H25   H     H_    0.541656 0.781610 0.894724 0.098258
O57   O     O_2   0.502271 0.827655 0.874825 -0.539352
C154  C     C_2   0.480982 0.795092 0.095100 0.505044
H26   H     H_    0.458219 0.782124 0.104802 0.098088
O58   O     O_2   0.497654 0.828039 0.124736 -0.538151
C155  C     C_2   0.018903 0.294715 0.904437 0.506413
H27   H     H_    0.041640 0.281610 0.894699 0.098266
O59   O     O_2   0.002258 0.327655 0.874812 -0.539355
C156  C     C_2   0.980994 0.295092 0.095116 0.505049
H28   H     H_    0.958235 0.282124 0.104827 0.098076
O60   O     O_2   0.997668 0.328039 0.124750 -0.538135
C157  C     C_2   0.912795 0.966036 0.556983 0.368488
H29   H     H_    0.900745 0.946426 0.508834 0.120298
O61   O     O_2   0.905490 0.003358 0.548381 -0.577640
C158  C     C_2   0.084261 0.957952 0.442322 0.482924
H30   H     H_    0.086511 0.990866 0.455374 0.000241
O62   O     O_2   0.099674 0.932699 0.492608 -0.551572
C159  C     C_2   0.412796 0.466014 0.556994 0.368653
H31   H     H_    0.400731 0.446404 0.508842 0.120205
O63   O     O_2   0.405492 0.503337 0.548392 -0.577566
C160  C     C_2   0.584254 0.457935 0.442312 0.482960
H32   H     H_    0.586512 0.490849 0.455369 0.000228
O64   O     O_2   0.599662 0.432681 0.492595 -0.551559
C161  C     C_2   0.882783 0.890642 0.588460 0.490615
H33   H     H_    0.858356 0.881730 0.596944 0.108351
O65   O     O_2   0.879555 0.880573 0.531124 -0.556921
C162  C     C_2   0.116492 0.888315 0.400517 0.543784
H34   H     H_    0.116995 0.854942 0.408273 0.125819
O66   O     O_2   0.148702 0.908042 0.438227 -0.518399
C163  C     C_2   0.382837 0.390586 0.588491 0.490555
H35   H     H_    0.358409 0.381664 0.596966 0.108308
O67   O     O_2   0.379627 0.380510 0.531172 -0.556826
C164  C     C_2   0.616463 0.388286 0.400491 0.543793
H36   H     H_    0.616958 0.354913 0.408241 0.125825
O68   O     O_2   0.648679 0.408004 0.438204 -0.518391
C165  C     C_2   0.923848 0.861945 0.740584 0.457401
H37   H     H_    0.924218 0.861153 0.791117 0.085032
O69   O     O_2   0.912087 0.831105 0.701121 -0.540748
C166  C     C_2   0.070514 0.860510 0.246333 0.466802
H38   H     H_    0.068770 0.861380 0.194535 0.086465
O70   O     O_2   0.082503 0.828601 0.282769 -0.579778
C167  C     C_2   0.423911 0.361907 0.740626 0.457322
H39   H     H_    0.424280 0.361111 0.791158 0.085062
O71   O     O_2   0.412167 0.331063 0.701175 -0.540721
C168  C     C_2   0.570475 0.360489 0.246302 0.466706
H40   H     H_    0.568731 0.361357 0.194504 0.086533
O72   O     O_2   0.582454 0.328577 0.282732 -0.579775
C169  C     C_2   0.002116 0.904627 0.852941 0.362760
H41   H     H_    0.026482 0.923049 0.897421 0.086187
O73   O     O_2   0.003166 0.867101 0.862751 -0.586714
C170  C     C_2   0.991789 0.904927 0.141348 0.350036
H42   H     H_    0.967840 0.924495 0.098552 0.093799
O74   O     O_2   0.988968 0.867483 0.129671 -0.581238
C171  C     C_2   0.502155 0.404627 0.852973 0.362721
H43   H     H_    0.526511 0.423060 0.897448 0.086249
O75   O     O_2   0.503224 0.367102 0.862797 -0.586851
C172  C     C_2   0.491763 0.404930 0.141326 0.350013
H44   H     H_    0.467820 0.424504 0.098535 0.093843
O76   O     O_2   0.488933 0.367486 0.129639 -0.581390
F1    F     F_    0.042446 0.058344 0.853470 -0.645769
F2    F     F_    0.961637 0.060992 0.151130 -0.650340
F3    F     F_    0.542420 0.558362 0.853448 -0.645786
F4    F     F_    0.461654 0.561003 0.151145 -0.650361
C173  C     C_2   0.709183 0.047597 0.112867 0.470256
H45   H     H_    0.675493 0.048595 0.076841 0.067921
O77   O     O_2   0.729628 0.067279 0.095033 -0.540206
C174  C     C_2   0.290327 0.017812 0.907070 0.469192
H46   H     H_    0.324006 0.018078 0.943557 0.071374
O78   O     O_2   0.269690 0.025391 0.933287 -0.539634
C175  C     C_2   0.209172 0.548069 0.113386 0.470259
H47   H     H_    0.175482 0.549075 0.077370 0.067846
O79   O     O_2   0.229611 0.567945 0.095768 -0.540209
C176  C     C_2   0.790326 0.517849 0.907055 0.469178
H48   H     H_    0.824005 0.518116 0.943542 0.071371
O80   O     O_2   0.769689 0.525443 0.933266 -0.539645
F5    F     F_    0.702995 0.955299 0.287432 -0.593593
F6    F     F_    0.297391 0.982700 0.693059 -0.592303
F7    F     F_    0.203008 0.454865 0.286947 -0.593629
F8    F     F_    0.797392 0.482664 0.693071 -0.592306

loop_
_geom_bond_atom_site_label_1
_geom_bond_atom_site_label_2
_ccdc_geom_bond_type
C118  C151  S    
C133  C137  A    
C55   C59   T    
C136  C140  A    
C135  C139  A    
C29   F5    S    
O43   Zn7   S    
C166  H38   S    
C48   O28   A    
C26   C50   S    
C95   C99   S    
C74   O43   A    
C29   C33   A    
O40   Zn7   S    
C23   C43   A    
O7    Zn11  S    
C9    C13   A    
C156  O60   D    
C11   C15   A    
C16   F4    S    
O4    Zn2   S    
C162  H34   S    
C116  C149  S    
C152  O56   D    
C66   C122  T    
O11   Zn12  S    
O9    Zn10  S    
O26   Zn3   S    
C130  C134  A    
C82   C124  T    
C115  C150  S    
C154  O58   D    
C25   C29   A    
C27   C31   A    
C28   C32   A    
C47   O23   A    
C41   H13   S    
C48   O24   A    
C73   O41   A    
C110  C158  S    
C147  H19   S    
C16   C20   A    
C66   C76   S    
C69   O33   A    
O8    Zn12  S    
C94   C96   A    
C97   C103  T    
C129  C133  A    
C170  H42   S    
C99   C101  T    
C161  O65   D    
C35   C147  S    
C105  C118  A    
C80   O12   A    
C126  C162  S    
C159  O63   D    
C127  C163  S    
C72   O36   A    
O33   Zn5   S    
C119  C123  S    
C86   H10   S    
C135  C171  S    
C75   O45   A    
C45   O25   A    
C31   C35   A    
O22   Zn1   S    
C118  C120  A    
C125  C129  A    
C19   C139  A    
C125  C161  S    
C92   H5    S    
C93   H8    S    
C17   C137  A    
C79   O7    A    
C80   O8    A    
O37   Zn6   S    
C76   O48   A    
C17   C69   S    
O28   Zn4   S    
C19   C71   S    
C2    O2    A    
C7    C143  A    
O45   Zn9   S    
C145  H17   S    
C83   C103  S    
C81   C123  T    
C32   C36   A    
C108  C115  A    
C105  C113  A    
C43   H15   S    
C77   O5    A    
C78   O10   A    
C150  H22   S    
C157  H29   S    
O20   Zn4   S    
C176  O80   D    
C139  C143  A    
C61   C77   S    
O25   Zn3   S    
O14   Zn10  S    
C84   O15   A    
C149  H21   S    
C8    C12   A    
C37   C53   S    
C70   O38   A    
C128  C164  S    
C27   C51   S    
C127  C131  A    
C173  O77   D    
C172  O76   D    
C30   C34   A    
C106  C113  A    
C12   C16   A    
C10   C14   A    
C68   O31   A    
O19   Zn4   S    
C129  C165  S    
C5    C9    A    
C169  H41   S    
C86   C93   A    
C1    C57   S    
C149  O53   D    
C71   O35   A    
C88   C91   A    
C132  C136  A    
C4    C60   S    
C167  O71   D    
C151  O55   D    
C105  C153  S    
O29   Zn5   S    
C110  C126  A    
C147  O51   D    
C10   H2    S    
C26   C30   A    
C115  C119  A    
C171  O75   D    
O16   Zn12  S    
C84   C104  S    
C47   O27   A    
C67   C101  S    
C77   O9    A    
C21   C25   A    
C108  C156  S    
C62   C78   S    
C24   C28   A    
C153  H25   S    
C158  H30   S    
C79   O11   A    
C165  O69   D    
O44   Zn8   S    
C13   C17   A    
C32   F8    S    
C46   O22   A    
C166  O70   D    
O17   Zn3   S    
C74   O44   A    
C96   C100  S    
C87   H11   S    
C37   C41   A    
C107  C116  A    
C91   C95   A    
C40   C44   A    
C113  C121  S    
C162  O66   D    
O34   Zn6   S    
C83   O14   A    
C164  H36   S    
C20   C72   S    
C109  C141  A    
C2    O18   A    
C87   C92   A    
C33   C145  S    
O48   Zn12  S    
C151  H23   S    
C146  H18   S    
C67   O30   A    
C45   O21   A    
C159  H31   S    
O23   Zn2   S    
C15   C19   A    
C30   F6    S    
C13   F1    S    
C88   H12   S    
C68   C102  S    
C54   C58   T    
O36   Zn8   S    
C136  C172  S    
C126  C130  A    
C168  H40   S    
C73   C81   S    
C18   C138  A    
O31   Zn7   S    
C39   C55   S    
C40   C56   S    
C65   C121  T    
C6    C142  A    
O35   Zn7   S    
C3    O3    A    
O10   Zn9   S    
C117  C152  S    
C170  O74   D    
C1    O1    A    
C175  H47   S    
C161  H33   S    
C21   C173  S    
C64   C80   S    
C42   H14   S    
C4    O20   A    
O3    Zn2   S    
C78   O6    A    
C49   C61   T    
C51   C63   T    
C155  H27   S    
C138  C142  A    
C117  C120  A    
C85   C89   A    
C94   H7    S    
C5    C45   S    
C33   C37   A    
C56   C60   T    
C7    C47   S    
C35   C39   A    
C171  H43   S    
C8    C48   S    
C107  C114  A    
C156  H28   S    
C167  H39   S    
C38   C54   S    
C70   O34   A    
C174  H46   S    
C31   F7    S    
O41   Zn5   S    
C21   C41   A    
C88   C90   A    
C153  O57   D    
C106  C117  A    
C52   C64   T    
C24   C44   A    
C132  C168  S    
C154  H26   S    
C137  C141  A    
C53   C57   T    
C140  C144  A    
C86   C89   A    
C6    C10   A    
C91   H6    S    
C2    C58   S    
O24   Zn2   S    
O2    Zn1   S    
C15   F3    S    
C73   O42   A    
C107  C155  S    
C20   C140  A    
C11   H3    S    
O1    Zn1   S    
C9    H1    S    
C174  O78   D    
O18   Zn3   S    
C148  H20   S    
C25   C49   S    
C112  C128  A    
O27   Zn4   S    
C145  O49   D    
C22   C26   A    
C87   C90   A    
C22   C174  S    
C106  C154  S    
C84   O16   A    
O38   Zn5   S    
C18   C70   S    
C14   C18   A    
C63   C79   S    
C173  H45   S    
O46   Zn10  S    
C7    C11   A    
C163  O67   D    
C38   C42   A    
C131  C135  A    
C75   O46   A    
C98   C104  T    
C155  O59   D    
C68   O32   A    
C150  O54   D    
O21   Zn1   S    
C110  C142  A    
C3    O19   A    
C24   C176  S    
C1    O17   A    
C130  C166  S    
C4    O4    A    
C23   C27   A    
O13   Zn9   S    
O6    Zn10  S    
C76   O47   A    
C69   O37   A    
C14   F2    S    
C128  C132  A    
C34   C146  S    
C152  H24   S    
C71   O39   A    
C111  C143  A    
C175  O79   D    
O39   Zn8   S    
C36   C40   A    
C158  O62   D    
C160  H32   S    
C39   C43   A    
C165  H37   S    
C92   C95   A    
O42   Zn6   S    
C89   C97   S    
C157  O61   D    
C148  O52   D    
C176  H48   S    
C72   O40   A    
C85   C94   A    
C5    C141  A    
C134  C170  S    
C100  C102  T    
C8    C144  A    
C85   H9    S    
C112  C144  A    
C23   C175  S    
O30   Zn6   S    
C111  C159  S    
O12   Zn11  S    
C109  C125  A    
C163  H35   S    
C93   C96   A    
C133  C169  S    
C83   O13   A    
C111  C127  A    
C50   C62   T    
C164  O68   D    
C112  C160  S    
C74   C82   S    
C172  H44   S    
C6    C46   S    
C34   C38   A    
O15   Zn11  S    
C146  O50   D    
C134  C138  A    
C67   O29   A    
O5    Zn9   S    
O47   Zn11  S    
C65   C75   S    
C116  C119  A    
C108  C114  A    
C12   H4    S    
C169  O73   D    
C131  C167  S    
C28   C52   S    
C22   C42   A    
C44   H16   S    
C90   C98   S    
C168  O72   D    
C109  C157  S    
C160  O64   D    
C114  C122  S    
C46   O26   A    
C36   C148  S    
O32   Zn8   S    
C120  C124  S    
C3    C59   S    
