data_mof_unit_65636.cif
_audit_creation_date              2013-03-05T16:09:27-0500
_audit_creation_method            fapswitch 2.2
_symmetry_space_group_name_H-M    P1
_symmetry_Int_Tables_number       1
_space_group_crystal_system       triclinic
_cell_length_a                    8.257343
_cell_length_b                    15.115144
_cell_length_c                    22.822779
_cell_angle_alpha                 98.676309
_cell_angle_beta                  89.155985
_cell_angle_gamma                 98.925209
_cell_volume                      2781.72872119

loop_
_atom_site_label
_atom_site_type_symbol
_atom_site_description
_atom_site_fract_x
_atom_site_fract_y
_atom_site_fract_z
_atom_type_partial_charge
P1    P     P_3+3 0.056000 0.422550 0.367550 0.555589
O1    O     O_2   0.889550 0.449610 0.359390 -0.326896
O2    O     O_3   0.130110 0.450560 0.430470 -0.392131
O3    O     O_3   0.674110 0.616450 0.398780 -0.370774
O4    O     O_2   0.824298 0.576486 0.293095 -0.372570
O5    O     O_3   0.026225 0.306116 0.344225 -0.547122
O6    O     O_3   0.619425 0.696763 0.295010 -0.572263
H1    H     H_    0.855652 0.753041 0.323648 0.047763
C1    C     C_3   0.777973 0.820483 0.253562 0.178996
H2    H     H_    0.807530 0.767044 0.217674 0.097604
P2    P     P_3+3 0.670460 0.710570 0.550500 0.486024
P3    P     P_3+3 0.145473 0.779306 0.430671 0.533674
O7    O     O_2   0.848090 0.724020 0.533700 -0.367643
O8    O     O_3   0.092920 0.663620 0.428750 -0.397957
O9    O     O_2   0.008313 0.824221 0.464215 -0.301855
O10   O     O_3   0.680869 0.740175 0.627692 -0.604599
O11   O     O_3   0.135641 0.801463 0.358061 -0.487283
C2    C     C_3   0.191155 0.730817 0.319320 0.024146
H3    H     H_    0.109961 0.665516 0.321121 0.066160
H4    H     H_    0.318165 0.723454 0.330550 0.128821
C3    C     C_3   0.184263 0.751933 0.256283 0.972006
H5    H     H_    0.056823 0.755837 0.246013 -0.089711
C4    C     C_3   0.212346 0.740941 0.605858 0.127472
H6    H     H_    0.339601 0.733680 0.592999 0.067336
H7    H     H_    0.128403 0.715534 0.567520 0.151739
C5    C     C_3   0.201447 0.840667 0.626441 0.352755
H8    H     H_    0.299646 0.870360 0.659584 0.136279
H9    H     H_    0.080579 0.847156 0.647294 0.146815
Ba1   Ba    Ba6+2 0.856850 0.543240 0.473390 1.633376
C6    C     C_3   0.957886 0.254748 0.386635 0.035987
H10   H     H_    0.851337 0.282436 0.407719 0.081116
H11   H     H_    0.051303 0.253046 0.420713 0.145082
C7    C     C_3   0.902648 0.159501 0.352229 0.355048
H12   H     H_    0.794120 0.163489 0.324832 0.110618
C8    C     C_3   0.690885 0.666038 0.656698 0.032134
H13   H     H_    0.814481 0.646447 0.650536 0.100205
H14   H     H_    0.597262 0.607168 0.640147 0.140027
C9    C     C_3   0.659885 0.696119 0.722541 0.736468
H15   H     H_    0.540905 0.722382 0.726716 0.061136
P4    P     P_3+3 0.133720 0.577520 0.632450 0.510029
O12   O     O_2   0.300150 0.550420 0.640640 -0.364185
O13   O     O_3   0.059600 0.549520 0.569540 -0.395744
O14   O     O_3   0.515600 0.383630 0.601220 -0.391750
O15   O     O_3   0.170371 0.695090 0.653930 -0.568349
P5    P     P_3+3 0.054029 0.219333 0.572513 0.493110
O16   O     O_3   0.613290 0.389640 0.467990 -0.388080
O17   O     O_3   0.096790 0.336450 0.571260 -0.390461
O18   O     O_2   0.180659 0.175732 0.532115 -0.387060
O19   O     O_3   0.097761 0.194817 0.642656 -0.598560
Ba2   Ba    Ba6+2 0.332990 0.456830 0.526620 1.619934
P6    P     P_3+3 0.659752 0.597842 0.320849 0.514185
C10   C     C_3   0.740689 0.772895 0.309564 0.554581
O20   O     O_3   0.576420 0.610430 0.532020 -0.388606
C11   C     C_3   0.472327 0.306389 0.343716 0.392312
H16   H     H_    0.345639 0.314827 0.357668 0.120208
H17   H     H_    0.555343 0.372241 0.353202 0.087626
C12   C     C_3   0.470835 0.274023 0.277259 -0.786678
H18   H     H_    0.405406 0.203500 0.267168 0.316353
H19   H     H_    0.406643 0.317562 0.253783 0.190049
H20   H     H_    0.598475 0.276238 0.260817 0.259726
P7    P     P_3+3 0.526397 0.275482 0.449063 0.446931
O21   O     O_2   0.341600 0.276000 0.466340 -0.373408
O22   O     O_3   0.528389 0.241268 0.372414 -0.554546
C13   C     C_3   0.046068 0.259126 0.687126 0.858305
H21   H     H_    0.114609 0.327527 0.684198 0.026659
C14   C     C_3   0.080997 0.234161 0.747806 0.709844
H22   H     H_    0.211809 0.226456 0.750978 0.069618
P8    P     P_3+3 0.532046 0.391930 0.678109 0.528834
C15   C     C_3   0.506351 0.218678 0.648335 0.085088
H23   H     H_    0.626823 0.234290 0.627348 0.067933
O23   O     O_2   0.386602 0.437951 0.704219 -0.328790
O24   O     O_3   0.489795 0.283259 0.698350 -0.515927
H24   H     H_    0.408586 0.217428 0.615339 0.097712
C16   C     C_3   0.493684 0.124757 0.666416 1.442615
H25   H     H_    0.509358 0.074314 0.627002 -0.265471
H26   H     H_    0.798649 0.350080 0.073385 0.170390
H27   H     H_    0.700763 0.375050 0.977874 0.162738
C17   C     C_R   0.355130 0.504541 0.332706 -0.646097
C18   C     C_R   0.214717 0.497677 0.924406 -0.179777
C19   C     C_R   0.161983 0.496928 0.865300 0.690776
O25   O     O_2   0.265696 0.512970 0.828144 -0.535622
N1    N     N_R   0.995810 0.476859 0.849452 -0.154355
C20   C     C_R   0.883939 0.453016 0.893408 0.617374
O26   O     O_2   0.736845 0.447533 0.885224 -0.582484
C21   C     C_R   0.937584 0.437683 0.949187 -0.016615
C22   C     C_R   0.102679 0.464576 0.965756 0.003845
C23   C     C_R   0.378087 0.529484 0.942950 -0.182943
C24   C     C_R   0.426820 0.531661 0.001843 0.846483
C25   C     C_R   0.315165 0.496727 0.043515 -0.325131
C26   C     C_R   0.155332 0.459227 0.024175 -0.052785
C27   C     C_R   0.828867 0.397590 0.989414 -0.011332
C28   C     C_R   0.885080 0.383170 0.044360 -0.053053
C29   C     C_R   0.048290 0.415531 0.062870 -0.038732
C30   C     C_R   0.107092 0.404769 0.118993 0.654232
N2    N     N_R   0.251565 0.457035 0.143365 -0.160089
C31   C     C_R   0.356909 0.501546 0.104336 0.711654
C32   C     C_2   0.792235 0.435526 0.765701 -0.013710
C33   C     C_3   0.729647 0.459089 0.709056 0.307420
C34   C     C_1   0.004826 0.521040 0.686905 0.278008
C35   C     C_2   0.044255 0.533461 0.744860 -0.116874
C36   C     C_2   0.940019 0.480909 0.788119 0.120273
C37   C     C_R   0.450156 0.491656 0.231598 -0.232479
C38   C     C_R   0.480819 0.516472 0.292762 0.290424
C39   C     C_R   0.196369 0.472572 0.313295 0.128803
C40   C     C_R   0.159025 0.460220 0.251932 0.704812
C41   C     C_R   0.286833 0.467510 0.208381 -0.072847
O27   O     O_2   0.031714 0.346500 0.144896 -0.501230
O28   O     O_2   0.485724 0.547819 0.122104 -0.464751
C42   C     C_2   0.867352 0.469906 0.665912 -0.490673
H28   H     H_    0.556119 0.495458 0.203540 0.229285
H29   H     H_    0.468107 0.555455 0.912280 0.233601
H30   H     H_    0.138813 0.589291 0.761660 0.196328
H31   H     H_    0.715221 0.385958 0.787515 0.212665
H32   H     H_    0.381789 0.520389 0.379758 0.209931
H33   H     H_    0.867515 0.421424 0.625684 0.185748
C43   C     C_R   0.845785 0.170067 0.543838 0.292925
C44   C     C_R   0.776765 0.077473 0.541236 -0.029950
C45   C     C_R   0.643708 0.889715 0.527906 -0.023079
C46   C     C_R   0.789685 0.924366 0.560292 -0.035048
C47   C     C_R   0.856263 0.016030 0.565946 -0.040227
C48   C     C_R   0.581591 0.795470 0.516651 0.289900
H34   H     H_    0.856931 0.881257 0.580704 0.182307
H35   H     H_    0.971449 0.037732 0.589515 0.208630
C49   C     C_R   0.436380 0.765154 0.484555 -0.481420
C50   C     C_R   0.610998 0.197026 0.489933 0.212280
C51   C     C_R   0.540871 0.105213 0.486071 -0.060217
C52   C     C_R   0.624083 0.044992 0.511644 0.052128
C53   C     C_R   0.393951 0.070978 0.454686 0.007341
C54   C     C_R   0.327512 0.980350 0.449488 -0.009098
C55   C     C_R   0.408641 0.919021 0.473350 0.064749
C56   C     C_R   0.558472 0.951279 0.504627 0.108037
C57   C     C_R   0.346185 0.825761 0.465313 0.278231
C58   C     C_R   0.759997 0.228349 0.519294 -0.531809
H36   H     H_    0.214124 0.959089 0.424779 0.219384
H37   H     H_    0.328002 0.113128 0.432991 0.211484
H38   H     H_    0.387872 0.693575 0.477352 0.160037
H39   H     H_    0.813764 0.298614 0.520463 0.176743
F1    F     F_    0.217551 0.888775 0.579438 -0.724872
N3    N     N_R   0.855538 0.092540 0.391377 0.211577
O29   O     O_R   0.963573 0.073220 0.426400 -0.380491
O30   O     O_R   0.716647 0.038836 0.381841 -0.315010
N4    N     N_R   0.032073 0.131141 0.312453 0.286183
O31   O     O_R   0.011255 0.121686 0.255334 -0.269286
O32   O     O_R   0.171957 0.120408 0.333632 -0.334895
N5    N     N_R   0.920034 0.892765 0.261658 0.238796
O33   O     O_R   0.979970 0.927316 0.313939 -0.267408
O34   O     O_R   0.985051 0.924947 0.215487 -0.228791
N6    N     N_R   0.791359 0.766958 0.747898 0.247839
O35   O     O_R   0.938733 0.748627 0.753332 -0.363557
O36   O     O_R   0.760840 0.848236 0.766831 -0.296970
F2    F     F_    0.647745 0.624348 0.754003 -0.705567
N7    N     N_R   0.681351 0.834206 0.357722 0.244625
O37   O     O_R   0.772464 0.866219 0.404224 -0.322362
O38   O     O_R   0.535874 0.856094 0.355069 -0.352716
N8    N     N_R   0.637890 0.857050 0.233412 0.304475
O39   O     O_R   0.576661 0.825711 0.180820 -0.214547
O40   O     O_R   0.606000 0.935230 0.259235 -0.206342
N9    N     N_R   0.236870 0.681346 0.213227 0.182227
O41   O     O_R   0.134891 0.636219 0.172482 -0.401548
O42   O     O_R   0.390643 0.672748 0.209725 -0.318533
F3    F     F_    0.880039 0.260826 0.682216 -0.734130
F4    F     F_    0.052589 0.303317 0.791781 -0.720006
N10   N     N_R   0.978145 0.149637 0.757203 0.282380
O43   O     O_R   0.995178 0.073784 0.724016 -0.297690
O44   O     O_R   0.874666 0.148769 0.800744 -0.213755
F5    F     F_    0.614315 0.123994 0.707573 -0.606602
F6    F     F_    0.341921 0.100048 0.690404 -0.671286
F7    F     F_    0.584842 0.566104 0.017219 -0.623918
F8    F     F_    0.998248 0.445698 0.236567 -0.624599
F9    F     F_    0.278900 0.834431 0.251745 -0.547374

loop_
_geom_bond_atom_site_label_1
_geom_bond_atom_site_label_2
_geom_bond_distance
_ccdc_geom_bond_type
C23   C24   1.402907 A    
C58   H39   1.082266 S    
C29   C30   1.417241 A    
Ba1   O13   2.761049 S    
N8    O40   1.301907 A    
C2    C3    1.523642 S    
P2    O7    1.501374 D    
C3    N9    1.451749 S    
C9    F2    1.379002 S    
N2    C31   1.406805 Am   
C53   C54   1.382473 A    
P4    C34   1.845373 S    
C18   C23   1.408634 A    
N5    O33   1.300225 A    
C21   C27   1.410975 A    
P2    C48   1.841219 S    
C21   C22   1.401263 A    
C14   F4    1.381161 S    
C5    H8    1.110775 S    
C51   C52   1.416868 A    
C40   F8    1.354148 S    
O1    Ba1   2.798585 S    
O7    Ba1   2.879256 S    
N10   O44   1.301239 A    
N6    O36   1.300849 A    
O6    C10   1.405041 S    
P1    O1    1.515257 D    
C15   H23   1.105402 S    
O10   C8    1.398209 S    
C6    H10   1.105351 S    
C12   H19   1.106402 S    
C23   H29   1.083345 S    
C11   O22   1.398927 S    
P6    C38   1.825604 S    
C3    F9    1.382229 S    
C34   C42   1.321979 D    
C43   C44   1.419694 A    
C49   C57   1.389054 A    
P7    O22   1.748358 S    
C2    H3    1.109732 S    
C4    C5    1.525828 S    
O2    Ba1   2.918046 S    
C45   C46   1.409667 A    
C16   F6    1.380534 S    
C48   C49   1.392267 A    
C45   C56   1.416676 A    
C34   C35   1.345189 D    
O14   P8    1.746114 S    
C24   F7    1.358076 S    
P3    O11   1.744942 S    
C4    H6    1.104222 S    
C15   H24   1.108179 S    
C1    H2    1.112903 S    
H1    C10   1.105002 S    
O3    Ba1   2.750146 S    
P2    O20   1.588799 S    
C47   H35   1.080104 S    
C10   N7    1.457614 S    
P4    O13   1.541867 S    
C14   H22   1.108795 S    
C31   O28   1.217093 D    
C33   C42   1.499056 S    
C3    H5    1.093844 S    
N9    O42   1.296398 A    
C17   H32   1.082585 S    
C1    C10   1.562951 S    
C39   C40   1.416763 A    
N5    O34   1.300835 A    
O2    Ba2   2.761734 S    
C32   C33   1.510279 S    
O17   Ba2   2.748154 S    
C52   C56   1.421824 A    
Ba1   Ba2   4.566451 S    
P5    O17   1.755069 S    
C9    H15   1.112992 S    
C11   H17   1.111379 S    
C30   O27   1.220149 D    
Ba2   O20   2.814032 S    
C16   H25   1.107941 S    
C49   H38   1.082518 S    
O16   P7    1.754684 S    
C17   C39   1.379960 A    
C37   C38   1.405837 A    
C8    C9    1.532657 S    
N6    O35   1.300952 A    
C19   N1    1.399281 Am   
C22   C26   1.426092 A    
C44   C47   1.403424 A    
C27   C28   1.402323 A    
C13   F3    1.381698 S    
C12   H20   1.110838 S    
C43   C58   1.394938 A    
O3    P6    1.761120 S    
O5    C6    1.390260 S    
C4    O15   1.395638 S    
P1    O5    1.740136 S    
P1    O2    1.542050 S    
C45   C48   1.423062 A    
C13   C14   1.531884 S    
C15   O24   1.405408 S    
C55   C57   1.409219 A    
N2    C41   1.496404 S    
P2    O10   1.751018 S    
C20   O26   1.219754 D    
P3    O9    1.544641 D    
P5    O19   1.751559 S    
P8    O24   1.754872 S    
P1    Ba1   3.369176 S    
C7    H12   1.114599 S    
C15   C16   1.525103 S    
N7    O37   1.296990 A    
C46   C47   1.396537 A    
C28   C29   1.408488 A    
C44   C52   1.421136 A    
P1    C39   1.848423 S    
C9    N6    1.459742 S    
O13   Ba2   2.919034 S    
P4    O12   1.515480 D    
C20   C21   1.417040 A    
H26   C28   1.083323 S    
C35   H30   1.084223 S    
C30   N2    1.396859 Am   
C50   C51   1.408631 A    
Ba2   O21   2.879485 S    
N4    O32   1.300921 A    
C53   H37   1.076286 S    
O8    Ba1   2.747510 S    
C32   H31   1.081194 S    
O12   Ba2   2.798933 S    
C16   F5    1.381681 S    
C26   C29   1.403284 A    
C54   C55   1.400171 A    
P5    O18   1.542670 D    
C50   C58   1.390949 A    
C11   H16   1.109655 S    
H27   C27   1.083374 S    
C51   C53   1.404134 A    
P3    C57   1.837098 S    
C6    C7    1.537210 S    
C8    H14   1.107200 S    
C17   C38   1.380006 A    
N7    O38   1.299087 A    
C19   O25   1.219644 D    
C5    F1    1.377812 S    
N3    O29   1.300873 A    
O14   Ba2   2.749234 S    
C7    N4    1.464979 S    
C40   C41   1.442197 A    
O16   Ba2   2.899502 S    
C5    H9    1.111094 S    
O11   C2    1.409691 S    
Ba1   O16   2.814660 S    
C13   H21   1.109906 S    
C25   C31   1.423648 A    
C55   C56   1.418373 A    
P3    O8    1.729124 S    
O6    P6    1.766512 S    
P2    Ba1   3.412917 S    
C6    H11   1.109262 S    
N3    O30   1.298761 A    
P5    C43   1.851613 S    
C12   H18   1.110003 S    
N9    O41   1.301002 A    
Ba1   O20   2.900411 S    
C7    N3    1.454112 S    
P8    O23   1.547390 D    
P4    Ba2   3.369591 S    
C1    N5    1.466848 S    
C35   C36   1.531655 S    
C46   H34   1.077689 S    
N1    C36   1.492979 S    
C14   N10   1.462923 S    
C37   C41   1.429232 A    
C2    H4    1.109382 S    
C4    H7    1.107895 S    
P7    O21   1.571330 D    
P8    C33   1.869574 S    
C54   H36   1.079543 S    
N10   O43   1.301113 A    
C37   H28   1.076075 S    
C42   H33   1.084996 S    
C18   C19   1.421472 A    
P4    O15   1.750601 S    
C24   C25   1.417037 A    
C1    N8    1.464829 S    
N1    C20   1.402885 Am   
N8    O39   1.301059 A    
O19   C13   1.405512 S    
N4    O31   1.300816 A    
O4    P6    1.549375 D    
P7    C50   1.836931 S    
C8    H13   1.107251 S    
C25   C26   1.402686 A    
C18   C22   1.403540 A    
C32   C36   1.369035 D    
C11   C12   1.521429 S    
