data_mof_unit_39778.cif
_audit_creation_date              2012-12-10T18:36:47-0500
_audit_creation_method            fapswitch 2.2
_symmetry_space_group_name_H-M    P1
_symmetry_Int_Tables_number       1
_space_group_crystal_system       triclinic
_cell_length_a                    15.180273
_cell_length_b                    13.94821
_cell_length_c                    11.682354
_cell_angle_alpha                 89.993553
_cell_angle_beta                  91.083031
_cell_angle_gamma                 90.000266
_cell_volume                      2473.15210129

loop_
_atom_site_label
_atom_site_type_symbol
_atom_type_description
_atom_site_fract_x
_atom_site_fract_y
_atom_site_fract_z
_atom_type_partial_charge
C1    C     C_R   0.330038 0.499930 0.500701 0.927639
C2    C     C_R   0.500078 0.499952 0.715940 0.829270
C3    C     C_R   0.556111 0.108828 0.573747 -0.363704
C4    C     C_R   0.461659 0.892621 0.410217 -0.358922
C5    C     C_R   0.443940 0.108742 0.426504 -0.363858
C6    C     C_R   0.538380 0.892470 0.590271 -0.355837
C7    C     C_1   0.499654 0.499758 0.162395 -0.145073
C8    C     C_1   0.499910 0.499753 0.837604 -0.145515
C9    C     C_1   0.499656 0.499711 0.059879 0.002321
C10   C     C_1   0.499770 0.499708 0.940119 0.001896
C11   C     C_R   0.556594 0.210378 0.571817 0.624827
C12   C     C_R   0.670254 0.499918 0.499033 0.918455
C13   C     C_R   0.463710 0.791111 0.409187 0.607791
C14   C     C_R   0.443981 0.210166 0.427536 0.590044
C15   C     C_R   0.536667 0.790838 0.590795 0.616996
C16   C     C_R   0.093490 0.564521 0.431673 0.394401
C17   C     C_R   0.904531 0.419192 0.446711 0.393517
C18   C     C_R   0.908622 0.573597 0.545198 0.387106
C19   C     C_R   0.095851 0.426492 0.560706 0.389315
C20   C     C_R   0.185385 0.566743 0.434279 0.234951
C21   C     C_R   0.812452 0.421370 0.445849 0.203901
C22   C     C_R   0.816674 0.575610 0.545681 0.243657
C23   C     C_R   0.233344 0.499231 0.500494 -0.351417
C24   C     C_R   0.187936 0.429223 0.564051 0.216033
C25   C     C_3   0.697440 0.235243 0.649867 0.101359
C26   C     C_3   0.724019 0.196164 0.767293 -0.830968
C27   C     C_3   0.452452 0.768840 0.211892 0.077633
C28   C     C_3   0.375746 0.805119 0.138033 -0.757728
C29   C     C_3   0.304615 0.241363 0.354285 0.079964
C30   C     C_3   0.253218 0.312263 0.279824 -0.751999
C31   C     C_3   0.552417 0.768550 0.787954 0.069226
C32   C     C_3   0.631063 0.805664 0.857622 -0.763185
C33   C     C_3   0.024304 0.603382 0.262570 0.098427
C34   C     C_R   0.767420 0.499196 0.496627 -0.353286
C35   C     C_3   0.001196 0.689232 0.187624 -0.704659
C36   C     C_3   0.970091 0.351863 0.291402 0.103914
C37   C     C_3   0.986850 0.254630 0.237126 -0.712427
C38   C     C_3   0.980388 0.636916 0.701504 0.095111
C39   C     C_3   0.006802 0.732195 0.755204 -0.694410
C40   C     C_3   0.027122 0.382038 0.724894 0.108839
C41   C     C_3   0.000561 0.294556 0.793772 -0.718831
C42   C     C_R   0.048796 0.494645 0.495106 -0.169414
C43   C     C_R   0.952380 0.495469 0.495887 -0.168599
C44   C     C_R   0.499822 0.055446 0.500437 0.093891
C45   C     C_R   0.499892 0.945931 0.500375 0.071178
C46   C     C_R   0.499747 0.499957 0.284060 0.827869
Cl1   Cl    Cl    0.237572 0.652881 0.347937 -0.550836
Cl2   Cl    Cl    0.756826 0.326772 0.373644 -0.610188
Cl3   Cl    Cl    0.767101 0.674650 0.613495 -0.540226
Cl4   Cl    Cl    0.243922 0.346900 0.654886 -0.609349
Cu1   Cu    Cu3+1 0.500000 0.596430 0.500000 1.060930
Cu2   Cu    Cu3+1 0.500000 0.403570 0.500000 1.081490
H1    H     H_    0.600824 0.073201 0.632204 0.153643
H2    H     H_    0.479860 0.704676 0.169332 0.167542
H3    H     H_    0.506468 0.823096 0.213148 0.101949
H4    H     H_    0.324926 0.748242 0.128593 0.280416
H5    H     H_    0.345597 0.869228 0.177649 0.243877
H6    H     H_    0.399536 0.824663 0.051787 0.187899
H7    H     H_    0.281908 0.248140 0.443929 0.201816
H8    H     H_    0.289042 0.168366 0.321809 0.131328
H9    H     H_    0.267938 0.300102 0.188206 0.247016
H10   H     H_    0.181540 0.302707 0.292502 0.199337
H11   H     H_    0.271464 0.386945 0.302485 0.249137
H12   H     H_    0.430829 0.928165 0.338228 0.159464
H13   H     H_    0.526756 0.704382 0.832365 0.167761
H14   H     H_    0.498025 0.822311 0.788885 0.101848
H15   H     H_    0.659349 0.870100 0.816444 0.244346
H16   H     H_    0.609932 0.824926 0.945168 0.190409
H17   H     H_    0.682628 0.749324 0.864175 0.274462
H18   H     H_    0.965225 0.556714 0.266504 0.107959
H19   H     H_    0.078975 0.563626 0.221121 0.133380
H20   H     H_    0.945496 0.729531 0.224835 0.254876
H21   H     H_    0.981708 0.664541 0.100379 0.174863
H22   H     H_    0.059116 0.737477 0.181299 0.265601
H23   H     H_    0.400344 0.073051 0.366769 0.145525
H24   H     H_    0.031619 0.394650 0.286892 0.101058
H25   H     H_    0.916883 0.387959 0.240186 0.142262
H26   H     H_    0.008597 0.264360 0.147631 0.180862
H27   H     H_    0.038873 0.215582 0.286306 0.247975
H28   H     H_    0.925422 0.211360 0.236545 0.272881
H29   H     H_    0.038354 0.588473 0.706646 0.106938
H30   H     H_    0.925746 0.606260 0.752562 0.135196
H31   H     H_    0.950119 0.782547 0.752082 0.266618
H32   H     H_    0.027445 0.720996 0.845940 0.177722
H33   H     H_    0.062591 0.763976 0.708116 0.255206
H34   H     H_    0.569403 0.928146 0.662025 0.157596
H35   H     H_    0.969075 0.430273 0.718309 0.099184
H36   H     H_    0.081703 0.419033 0.772463 0.146488
H37   H     H_    0.057395 0.244879 0.803468 0.268786
H38   H     H_    0.979024 0.317034 0.880045 0.178720
H39   H     H_    0.945355 0.256663 0.749469 0.245344
H40   H     H_    0.737607 0.300315 0.634432 0.195213
H41   H     H_    0.715269 0.182895 0.581930 0.162347
H42   H     H_    0.684231 0.132053 0.788365 0.244438
H43   H     H_    0.794703 0.175744 0.767971 0.216302
H44   H     H_    0.713715 0.251824 0.833697 0.263142
N1    N     N_R   0.500000 0.258690 0.500000 -0.231020
N2    N     N_R   0.500000 0.741310 0.500000 -0.255640
O1    O     O_R   0.371460 0.581430 0.500010 -0.529536
O2    O     O_3   0.421693 0.741298 0.321229 -0.499908
O3    O     O_3   0.395535 0.261660 0.346663 -0.550871
O4    O     O_3   0.580002 0.740528 0.677371 -0.502128
O5    O     O_3   0.047619 0.635924 0.373516 -0.488106
O6    O     O_3   0.947272 0.338349 0.406914 -0.493772
O7    O     O_3   0.955438 0.652248 0.585873 -0.487901
O8    O     O_3   0.052508 0.352260 0.614825 -0.493557
O9    O     O_R   0.628540 0.418570 0.499990 -0.537197
O10   O     O_R   0.628540 0.581430 0.499990 -0.524973
O11   O     O_R   0.371460 0.418570 0.500010 -0.541781
O12   O     O_R   0.500010 0.581440 0.337200 -0.565422
O13   O     O_R   0.499990 0.418560 0.662800 -0.527651
O14   O     O_R   0.499990 0.581440 0.662800 -0.569200
O15   O     O_R   0.500010 0.418560 0.337200 -0.524904
O16   O     O_3   0.607550 0.262830 0.649370 -0.556686

loop_
_geom_bond_atom_site_label_1
_geom_bond_atom_site_label_2
_ccdc_geom_bond_type
C26   H42   S    
C31   H14   S    
C41   H37   S    
C35   H22   S    
C25   H41   S    
Cu1   O14   S    
C6    C45   A    
C1    O1    A    
C28   H4    S    
C27   H2    S    
C28   H5    S    
C37   H27   S    
C2    O14   A    
C40   H35   S    
C36   C37   S    
C17   O6    S    
C31   O4    S    
C36   H25   S    
C38   C39   S    
C27   H3    S    
Cu2   N1    S    
C13   N2    A    
C7    C9    T    
C4    C13   A    
C11   O16   S    
C36   H24   S    
C1    O11   A    
C6    C15   A    
C29   H7    S    
Cu2   O9    S    
Cu1   O10   S    
C23   C24   A    
C20   C23   A    
C9    C10   S    
C19   C42   A    
C32   H16   S    
C21   Cl2   S    
Cu1   N2    S    
C41   H38   S    
C18   C22   A    
C30   H11   S    
C38   H30   S    
C24   Cl4   S    
C4    C45   A    
C26   H44   S    
C22   C34   A    
C37   H28   S    
C27   O2    S    
Cu1   Cu2   S    
C7    C46   S    
C12   O10   A    
C14   O3    S    
C21   C34   A    
Cu2   O13   S    
C25   C26   S    
Cu2   O15   S    
C17   C21   A    
C5    H23   S    
C17   C43   A    
C29   C30   S    
Cu1   O1    S    
C16   O5    S    
C31   C32   S    
C29   H8    S    
C16   C20   A    
C29   O3    S    
C5    C14   A    
C33   H18   S    
C32   H15   S    
C40   C41   S    
C41   H39   S    
C5    C44   A    
C35   H20   S    
C1    C23   S    
Cu1   O12   S    
C3    C44   A    
C30   H10   S    
C38   H29   S    
C42   C43   S    
C39   H33   S    
C15   N2    A    
C12   C34   S    
C16   C42   A    
C44   C45   S    
C14   N1    A    
C40   O8    S    
C22   Cl3   S    
C26   H43   S    
C31   H13   S    
C35   H21   S    
C25   H40   S    
C46   O15   A    
C33   O5    S    
C2    O13   A    
C2    C8    S    
C39   H32   S    
C12   O9    A    
C32   H17   S    
C28   H6    S    
C37   H26   S    
C4    H12   S    
C6    H34   S    
C11   N1    A    
C36   O6    S    
C40   H36   S    
C38   O7    S    
C46   O12   A    
C19   C24   A    
C18   O7    S    
C39   H31   S    
C25   O16   S    
C3    H1    S    
Cu2   O11   S    
C13   O2    S    
C33   C35   S    
C15   O4    S    
C20   Cl1   S    
C3    C11   A    
C33   H19   S    
C19   O8    S    
C8    C10   T    
C30   H9    S    
C27   C28   S    
C18   C43   A    
