data_mof_unit_18354.cif
_audit_creation_date              2012-12-10T16:53:12-0500
_audit_creation_method            fapswitch 2.2
_symmetry_space_group_name_H-M    P1
_symmetry_Int_Tables_number       1
_space_group_crystal_system       triclinic
_cell_length_a                    10.801247
_cell_length_b                    10.927109
_cell_length_c                    9.697285
_cell_angle_alpha                 90.719935
_cell_angle_beta                  89.970404
_cell_angle_gamma                 89.992218
_cell_volume                      1144.44515469

loop_
_atom_site_label
_atom_site_type_symbol
_atom_type_description
_atom_site_fract_x
_atom_site_fract_y
_atom_site_fract_z
_atom_type_partial_charge
C1    C     C_R   0.494815 0.265707 0.499019 0.705831
C2    C     C_2   0.471904 0.134555 0.496039 0.315254
C3    C     C_2   0.426881 0.431274 0.921210 -0.059876
C4    C     C_R   0.262604 0.504673 0.500338 0.752045
C5    C     C_2   0.428550 0.429544 0.076884 -0.059029
C6    C     C_R   0.502778 0.734680 0.500980 0.877996
C7    C     C_R   0.737323 0.507016 0.500091 0.885651
C8    C     C_R   0.131501 0.688288 0.668013 -0.181791
C9    C     C_R   0.068590 0.773293 0.749653 -0.255039
C10   C     C_R   0.940535 0.779873 0.744399 -0.183893
C11   C     C_R   0.873804 0.699427 0.660191 0.575797
C12   C     C_R   0.066406 0.602120 0.585333 0.035932
C13   C     C_R   0.935093 0.605826 0.583055 -0.022061
C14   C     C_3   0.275781 0.144563 0.589388 0.081105
C15   C     C_3   0.177618 0.064103 0.654150 -0.795991
C16   C     C_R   0.128912 0.514841 0.501236 -0.061188
C17   C     C_R   0.063361 0.435287 0.414814 -0.202793
C18   C     C_R   0.935795 0.436556 0.414725 -0.212781
C19   C     C_R   0.871085 0.518355 0.499858 -0.098932
C20   C     C_2   0.517057 0.933060 0.391229 -0.153215
C21   C     C_2   0.514027 0.866509 0.505790 -0.200167
C22   C     C_2   0.529058 0.066209 0.398979 -0.248222
Cu1   Cu    Cu3+1 0.500020 0.500020 0.638630 0.981185
Cu2   Cu    Cu3+1 0.499980 0.499980 0.361370 0.946460
F1    F     F_    0.750637 0.719573 0.650352 -0.696144
H1    H     H_    0.111347 0.369155 0.349857 0.138888
H2    H     H_    0.517503 0.889557 0.289904 0.165154
H3    H     H_    0.524743 0.909134 0.606826 0.207087
H4    H     H_    0.584858 0.109385 0.319956 0.134957
H5    H     H_    0.244744 0.166483 0.482729 0.119811
H6    H     H_    0.282386 0.230445 0.651611 0.157630
H7    H     H_    0.204031 0.042633 0.761822 0.242088
H8    H     H_    0.087168 0.112451 0.655066 0.204779
H9    H     H_    0.168241 0.977706 0.593510 0.258666
H10   H     H_    0.361436 0.371347 0.869048 0.150738
H11   H     H_    0.562486 0.554163 0.894636 0.208473
H12   H     H_    0.366231 0.366443 0.127397 0.148549
H13   H     H_    0.556330 0.560328 0.106878 0.196689
H14   H     H_    0.231267 0.693103 0.669567 0.175593
H15   H     H_    0.119734 0.836804 0.814388 0.170021
H16   H     H_    0.892589 0.849810 0.803779 0.162791
H17   H     H_    0.887015 0.370799 0.350106 0.150796
N1    N     N_2   0.498640 0.498660 0.846910 -0.277352
N2    N     N_2   0.498610 0.498630 0.153040 -0.280940
O1    O     O_R   0.500020 0.321960 0.617040 -0.565048
O2    O     O_R   0.499980 0.321920 0.382900 -0.599314
O3    O     O_R   0.319670 0.500020 0.617100 -0.597701
O4    O     O_R   0.319630 0.499980 0.382950 -0.571898
O5    O     O_R   0.500020 0.678080 0.617100 -0.539572
O6    O     O_R   0.499980 0.678040 0.382960 -0.586956
O7    O     O_R   0.680370 0.500020 0.617050 -0.530587
O8    O     O_R   0.680330 0.499980 0.382900 -0.585896
O9    O     O_3   0.390433 0.081862 0.589450 -0.583582

loop_
_geom_bond_atom_site_label_1
_geom_bond_atom_site_label_2
_ccdc_geom_bond_type
C2    C22   D    
Cu1   Cu2   S    
H13   N2    S    
Cu1   O1    S    
C20   H2    S    
C5    H12   S    
C9    C10   A    
C15   H9    S    
Cu1   O7    S    
C3    H10   S    
C14   H6    S    
C8    C12   A    
C3    N1    D    
C17   C18   A    
C7    O7    A    
C15   H7    S    
C12   C13   A    
C10   H16   S    
C11   C13   A    
C4    O3    A    
C1    O1    A    
C16   C17   A    
C14   H5    S    
C17   H1    S    
C4    C16   S    
C22   H4    S    
C21   H3    S    
C20   C22   S    
C7    O8    A    
C1    C2    S    
C7    C19   S    
Cu2   O8    S    
C18   H17   S    
C6    O5    A    
Cu2   O6    S    
Cu2   N2    S    
C1    O2    A    
Cu1   O5    S    
Cu1   O3    S    
C10   C11   A    
C13   C19   A    
Cu2   O4    S    
C14   O9    S    
Cu1   N1    S    
C20   C21   D    
C18   C19   A    
C4    O4    A    
C8    H14   S    
C11   F1    S    
C14   C15   S    
C8    C9    A    
H11   N1    S    
C6    C21   S    
C5    N2    D    
C9    H15   S    
C6    O6    A    
C12   C16   A    
C15   H8    S    
Cu2   O2    S    
C3    C5    S    
C2    O9    S    
