data_mof_unit_57939.cif
_audit_creation_date              2012-12-10T20:27:12-0500
_audit_creation_method            fapswitch 2.2
_symmetry_space_group_name_H-M    P1
_symmetry_Int_Tables_number       1
_space_group_crystal_system       triclinic
_cell_length_a                    10.60606
_cell_length_b                    10.667557
_cell_length_c                    9.862252
_cell_angle_alpha                 90.124854
_cell_angle_beta                  103.079774
_cell_angle_gamma                 89.822254
_cell_volume                      1086.86711044

loop_
_atom_site_label
_atom_site_type_symbol
_atom_type_description
_atom_site_fract_x
_atom_site_fract_y
_atom_site_fract_z
_atom_type_partial_charge
C1    C     C_R   0.504718 0.259900 0.501113 0.864039
C2    C     C_R   0.612530 0.508540 0.099198 -0.144112
C3    C     C_R   0.612531 0.508519 0.955449 -0.151808
C4    C     C_R   0.258219 0.507320 0.443142 0.972260
C5    C     C_R   0.386216 0.501405 0.901029 0.283751
C6    C     C_3   0.282278 0.404817 0.869776 -0.485696
C7    C     C_3   0.282890 0.404008 0.023841 -0.519134
C8    C     C_R   0.504870 0.740109 0.501280 0.885499
C9    C     C_R   0.742023 0.504899 0.557087 0.928841
C10   C     C_2   0.120298 0.531444 0.413641 -0.491114
C11   C     C_2   0.067864 0.593564 0.506198 0.573998
C12   C     C_R   0.527626 0.128652 0.507237 -0.143740
C13   C     C_2   0.879435 0.529810 0.586831 -0.375191
C14   C     C_2   0.928747 0.582542 0.487415 -0.286677
C15   C     C_R   0.530386 0.064463 0.630642 0.012540
C16   C     C_3   0.619270 0.131400 0.906631 -0.261623
C17   C     C_3   0.092895 0.756896 0.664270 -0.341535
C18   C     C_R   0.551800 0.064464 0.391426 -0.201351
C19   C     C_R   0.552253 0.934810 0.391721 -0.224832
C20   C     C_R   0.528045 0.871293 0.507600 -0.080154
C21   C     C_R   0.529688 0.936311 0.630546 0.031156
C22   C     C_3   0.439668 0.928130 0.727149 -0.517297
C23   C     C_3   0.438437 0.070504 0.727176 0.387569
C24   C     C_R   0.386281 0.501053 0.043607 0.211234
H1    H     H_    0.868990 0.604020 0.385114 0.152462
H2    H     H_    0.560610 0.113203 0.297750 0.176672
H3    H     H_    0.561495 0.885542 0.298270 0.171795
H4    H     H_    0.344873 0.886687 0.676038 0.176712
H5    H     H_    0.486873 0.885478 0.828789 0.218660
H6    H     H_    0.342432 0.109810 0.675146 0.076128
H7    H     H_    0.657919 0.201820 0.843820 0.179056
H8    H     H_    0.666623 0.038739 0.902967 0.150356
H9    H     H_    0.643769 0.163972 0.016345 0.172105
H10   H     H_    0.003582 0.741107 0.702688 0.179045
H11   H     H_    0.074254 0.824187 0.575768 0.154316
H12   H     H_    0.703599 0.513519 0.174886 0.144990
H13   H     H_    0.164211 0.800283 0.751248 0.183698
H14   H     H_    0.703537 0.513496 0.923865 0.147285
H15   H     H_    0.190844 0.442475 0.804303 0.224439
H16   H     H_    0.315813 0.315333 0.831956 0.240353
H17   H     H_    0.191821 0.441095 0.046660 0.197996
H18   H     H_    0.317606 0.314049 0.076223 0.230582
H19   H     H_    0.939704 0.507402 0.688547 0.162163
H20   H     H_    0.060183 0.494527 0.317698 0.106409
N1    N     N_R   0.499160 0.499140 0.142600 -0.102395
N2    N     N_R   0.499160 0.499180 0.856960 -0.102378
O1    O     O_R   0.500020 0.316790 0.614700 -0.613314
O2    O     O_3   0.145111 0.643102 0.627970 -0.587488
O3    O     O_R   0.500000 0.316760 0.385350 -0.614531
O4    O     O_R   0.317820 0.500020 0.571850 -0.556154
O5    O     O_R   0.317800 0.499980 0.342510 -0.621681
O6    O     O_R   0.500000 0.683240 0.614650 -0.601471
O7    O     O_R   0.499980 0.683210 0.385300 -0.627871
O8    O     O_R   0.682200 0.500020 0.657490 -0.631200
O9    O     O_R   0.682180 0.499980 0.428150 -0.615698
O10   O     O_3   0.483185 0.122836 0.862924 -0.597374
Zn1   Zn    Zn3+2 0.500010 0.500020 0.653140 0.964689
Zn2   Zn    Zn3+2 0.499990 0.499980 0.346860 0.935017

loop_
_geom_bond_atom_site_label_1
_geom_bond_atom_site_label_2
_ccdc_geom_bond_type
C8    O7    A    
C17   H10   S    
O7    Zn2   S    
C17   O2    S    
C6    C7    S    
C9    O9    A    
C22   H5    S    
C16   H9    S    
O1    Zn1   S    
C19   H3    S    
C5    N2    A    
C8    O6    A    
C3    N2    A    
C19   C20   A    
C18   H2    S    
C12   C15   A    
C13   H19   S    
C15   C23   S    
C2    C3    A    
C23   O10   S    
C14   H1    S    
O5    Zn2   S    
C22   H4    S    
C13   C14   D    
C16   H7    S    
C5    C24   A    
C11   O2    S    
C8    C20   S    
C1    C12   S    
C16   O10   S    
C24   N1    A    
C7    H17   S    
C2    N1    A    
C5    C6    S    
C11   C14   S    
C6    H16   S    
N1    Zn2   S    
O9    Zn2   S    
C16   H8    S    
C10   C11   D    
C4    O5    A    
C10   H20   S    
C7    C24   S    
C23   H6    S    
C15   C21   A    
C20   C21   A    
C3    H14   S    
C18   C19   A    
O6    Zn1   S    
C7    H18   S    
C2    H12   S    
C9    C13   S    
C6    H15   S    
C1    O1    A    
C17   H13   S    
C9    O8    A    
C17   H11   S    
C21   C22   S    
O4    Zn1   S    
C1    O3    A    
N2    Zn1   S    
C22   C23   S    
O3    Zn2   S    
C4    C10   S    
C4    O4    A    
O8    Zn1   S    
C12   C18   A    
