data_mof_unit_22776.cif
_audit_creation_date              2012-12-10T17:40:57-0500
_audit_creation_method            fapswitch 2.2
_symmetry_space_group_name_H-M    P1
_symmetry_Int_Tables_number       1
_space_group_crystal_system       triclinic
_cell_length_a                    14.355792
_cell_length_b                    15.956877
_cell_length_c                    9.902773
_cell_angle_alpha                 90.01934
_cell_angle_beta                  94.314111
_cell_angle_gamma                 90.054332
_cell_volume                      2262.03534384

loop_
_atom_site_label
_atom_site_type_symbol
_atom_type_description
_atom_site_fract_x
_atom_site_fract_y
_atom_site_fract_z
_atom_type_partial_charge
C1    C     C_R   0.389541 0.873407 0.497486 0.957324
C2    C     C_R   0.389163 0.126375 0.497460 0.958073
C3    C     C_R   0.889534 0.373412 0.497484 0.957318
C4    C     C_R   0.889172 0.626381 0.497462 0.958071
C5    C     C_R   0.286126 0.229311 0.375788 0.296169
C6    C     C_R   0.288501 0.768922 0.375300 0.294838
C7    C     C_R   0.786193 0.729361 0.375778 0.296140
C8    C     C_R   0.788456 0.268956 0.375301 0.294879
C9    C     C_R   0.716344 0.786000 0.386605 -0.176730
C10   C     C_R   0.718325 0.212425 0.385913 -0.178050
C11   C     C_R   0.216280 0.285948 0.386624 -0.176730
C12   C     C_R   0.218363 0.712396 0.385904 -0.178058
C13   C     C_R   0.702064 0.824722 0.509918 -0.146214
C14   C     C_R   0.703251 0.174323 0.509500 -0.146174
C15   C     C_R   0.202025 0.324688 0.509930 -0.146210
C16   C     C_R   0.203268 0.674308 0.509496 -0.146177
C17   C     C_R   0.334484 0.998720 0.134292 -0.048669
C18   C     C_R   0.834482 0.498785 0.134294 -0.048676
C19   C     C_R   0.247473 0.996971 0.068283 -0.140727
C20   C     C_R   0.747469 0.497131 0.068286 -0.140728
C21   C     C_R   0.238854 0.996504 0.930454 -0.124067
C22   C     C_R   0.738848 0.496693 0.930457 -0.124050
C23   C     C_R   0.317150 0.998281 0.853244 0.296851
C24   C     C_R   0.817146 0.498373 0.853245 0.296845
C25   C     C_R   0.412871 0.999286 0.919840 0.108397
C26   C     C_R   0.912869 0.499324 0.919840 0.108404
C27   C     C_R   0.416288 0.999346 0.066097 0.149806
C28   C     C_R   0.916286 0.499380 0.066097 0.149815
C29   C     C_R   0.580187 0.000480 0.080232 0.019259
C30   C     C_R   0.080187 0.500454 0.080232 0.019276
C31   C     C_R   0.625107 0.116441 0.504096 0.867606
C32   C     C_R   0.624761 0.883285 0.504149 0.867168
C33   C     C_R   0.125111 0.616437 0.504095 0.867626
C34   C     C_R   0.124748 0.383274 0.504151 0.867171
C35   C     C_R   0.580126 0.000432 0.937570 -0.055152
C36   C     C_R   0.080126 0.500406 0.937569 -0.055180
C37   C     C_R   0.413887 0.250236 0.715072 -0.239926
C38   C     C_R   0.414591 0.749706 0.715509 -0.241674
C39   C     C_R   0.913892 0.750232 0.715105 -0.239971
C40   C     C_R   0.914590 0.249707 0.715486 -0.241645
C41   C     C_R   0.407755 0.290222 0.838567 0.301241
C42   C     C_R   0.408927 0.708828 0.838289 0.303021
C43   C     C_R   0.907767 0.790238 0.838585 0.301249
C44   C     C_R   0.908916 0.208852 0.838283 0.303019
C45   C     C_R   0.830334 0.840226 0.857989 0.317422
C46   C     C_R   0.832178 0.157659 0.856747 0.315523
C47   C     C_R   0.330297 0.340170 0.858007 0.317424
C48   C     C_R   0.332201 0.657615 0.856733 0.315499
C49   C     C_R   0.763095 0.854121 0.750716 -0.267749
C50   C     C_R   0.765024 0.143737 0.749270 -0.267637
C51   C     C_R   0.263041 0.354052 0.750752 -0.267753
C52   C     C_R   0.265046 0.643701 0.749255 -0.267626
C53   C     C_R   0.766993 0.812355 0.624676 0.072239
C54   C     C_R   0.768290 0.186546 0.624172 0.072165
C55   C     C_R   0.266957 0.312319 0.624686 0.072242
C56   C     C_R   0.268303 0.686530 0.624173 0.072158
C57   C     C_R   0.340742 0.255442 0.611285 0.028591
C58   C     C_R   0.341705 0.744049 0.611421 0.028893
C59   C     C_R   0.840762 0.755454 0.611299 0.028606
C60   C     C_R   0.841698 0.244054 0.611405 0.028884
C61   C     C_R   0.340843 0.205957 0.492741 -0.173798
C62   C     C_R   0.342002 0.793333 0.492783 -0.174278
C63   C     C_R   0.840871 0.705975 0.492749 -0.173831
C64   C     C_R   0.841985 0.293345 0.492773 -0.174266
H1    H     H_    0.477218 0.215792 0.700856 0.197302
H2    H     H_    0.477592 0.784864 0.701877 0.197625
H3    H     H_    0.977214 0.715769 0.700911 0.197328
H4    H     H_    0.977597 0.284854 0.701841 0.197600
N1    N     N_R   0.498810 0.000000 0.142780 -0.126371
N2    N     N_R   0.998810 0.500000 0.142780 -0.126368
N3    N     N_R   0.498740 0.000000 0.857170 -0.123602
N4    N     N_R   0.998740 0.500000 0.857170 -0.123602
O1    O     O_R   0.408390 0.908380 0.614690 -0.587987
O2    O     O_R   0.408390 0.091620 0.614690 -0.586607
O3    O     O_R   0.908390 0.408380 0.614690 -0.587953
O4    O     O_R   0.908390 0.591620 0.614690 -0.586642
O5    O     O_R   0.408370 0.908380 0.385360 -0.607763
O6    O     O_R   0.408370 0.091620 0.385360 -0.607181
O7    O     O_R   0.908370 0.408380 0.385360 -0.607765
O8    O     O_R   0.908370 0.591620 0.385360 -0.607183
O9    O     O_R   0.591620 0.091610 0.614640 -0.651605
O10   O     O_R   0.591620 0.908390 0.614640 -0.653499
O11   O     O_R   0.091620 0.591610 0.614640 -0.651592
O12   O     O_R   0.091620 0.408390 0.614640 -0.653532
O13   O     O_R   0.591610 0.091610 0.385310 -0.610764
O14   O     O_R   0.591610 0.908390 0.385310 -0.609807
O15   O     O_R   0.091610 0.591610 0.385310 -0.610751
O16   O     O_R   0.091610 0.408390 0.385310 -0.609809
Zn1   Zn    Zn3+2 0.500010 0.000000 0.653130 0.973187
Zn2   Zn    Zn3+2 0.000010 0.500000 0.653130 0.973182
Zn3   Zn    Zn3+2 0.499980 0.000000 0.346870 1.012358
Zn4   Zn    Zn3+2 0.999980 0.500000 0.346870 1.012364
Br1   Br    Br    0.301707 0.191737 0.194923 -0.422680
Br2   Br    Br    0.306892 0.804403 0.194239 -0.424272
Br3   Br    Br    0.801845 0.691838 0.194906 -0.422674
Br4   Br    Br    0.806772 0.304492 0.194242 -0.424256
H5    H     H_    0.167627 0.995269 0.884954 0.211304
H6    H     H_    0.667620 0.495527 0.884959 0.211310
Br5   Br    Br    0.258514 0.000080 0.670867 -0.479449
Br6   Br    Br    0.758511 0.500068 0.670863 -0.479441
H7    H     H_    0.645727 0.000615 0.891871 0.143311
H8    H     H_    0.145727 0.500574 0.891869 0.143317
Br7   Br    Br    0.506803 0.274424 0.977448 -0.394067
Br8   Br    Br    0.508048 0.724616 0.977153 -0.389114
Br9   Br    Br    0.006803 0.774429 0.977480 -0.394151
Br10  Br    Br    0.008029 0.224658 0.977155 -0.389051
Br11  Br    Br    0.814056 0.890302 0.030035 -0.401809
Br12  Br    Br    0.817069 0.105693 0.027607 -0.403089
Br13  Br    Br    0.313997 0.390199 0.030083 -0.401780
Br14  Br    Br    0.317120 0.605598 0.027561 -0.403107
H9    H     H_    0.709616 0.897765 0.770928 0.194838
H10   H     H_    0.712462 0.098758 0.767898 0.192858
H11   H     H_    0.209523 0.397643 0.771018 0.194896
H12   H     H_    0.212499 0.598701 0.767857 0.192848
H13   H     H_    0.671898 0.798664 0.295530 0.229735
H14   H     H_    0.674450 0.199287 0.294441 0.228802
H15   H     H_    0.171813 0.298597 0.295564 0.229741
H16   H     H_    0.174506 0.699245 0.294421 0.228796
H17   H     H_    0.645941 0.000854 0.141175 0.188073
H18   H     H_    0.145941 0.500807 0.141174 0.188074
H19   H     H_    0.335025 0.999594 0.241214 0.227544
H20   H     H_    0.835026 0.499610 0.241217 0.227544
H21   H     H_    0.185840 0.996173 0.125074 0.208960
H22   H     H_    0.685836 0.496375 0.125079 0.208961

loop_
_geom_bond_atom_site_label_1
_geom_bond_atom_site_label_2
_ccdc_geom_bond_type
C58   C62   A    
C48   Br14  S    
C31   O13   A    
C26   N4    A    
C13   C32   S    
C23   Br5   S    
C8    Br4   S    
C14   C31   S    
C3    O7    A    
C1    C62   S    
C53   C59   A    
C54   C60   A    
C3    C64   S    
C29   H17   S    
C4    C63   S    
C19   H21   S    
C50   C54   A    
O10   Zn1   S    
O12   Zn2   S    
C22   H6    S    
O2    Zn1   S    
C19   C21   A    
C24   C26   A    
C4    O8    A    
O14   Zn3   S    
C6    C12   A    
C1    O5    A    
C36   H8    S    
C43   Br9   S    
C9    C13   A    
O3    Zn2   S    
C38   C58   A    
C11   C15   A    
C12   C16   A    
C6    Br2   S    
C37   H1    S    
C25   N3    A    
C3    O3    A    
C15   C34   S    
C29   N1    A    
C27   N1    A    
C2    C61   S    
C49   H9    S    
O9    Zn1   S    
C32   O14   A    
O15   Zn4   S    
C34   O12   A    
C30   N2    A    
C44   C46   A    
C46   C50   A    
C13   C53   A    
O13   Zn3   S    
N2    Zn4   S    
C4    O4    A    
C52   C56   A    
C17   C27   A    
O16   Zn4   S    
C18   C28   A    
C10   C14   A    
C9    H13   S    
C47   C51   A    
C51   C55   A    
C47   Br13  S    
C41   Br7   S    
C46   Br12  S    
C15   C55   A    
O8    Zn4   S    
C42   C48   A    
C16   C56   A    
C2    O6    A    
C16   C33   S    
C21   H5    S    
N3    Zn1   S    
C45   C49   A    
C39   C59   A    
C50   H10   S    
C41   C47   A    
C5    C61   A    
C34   O16   A    
C57   C61   A    
C33   O11   A    
C7    C63   A    
O7    Zn4   S    
C8    C64   A    
C12   H16   S    
C17   H19   S    
C14   C54   A    
C20   C22   A    
C52   H12   S    
C21   C23   A    
C22   C24   A    
C59   C63   A    
C40   C44   A    
C11   H15   S    
C10   H14   S    
N4    Zn2   S    
C7    C9    A    
O11   Zn2   S    
C38   H2    S    
O5    Zn3   S    
C42   Br8   S    
C24   Br6   S    
C39   H3    S    
C51   H11   S    
C28   N2    A    
C35   H7    S    
C2    O2    A    
C5    Br1   S    
C7    Br3   S    
C5    C11   A    
C44   Br10  S    
O6    Zn3   S    
C25   C27   A    
C32   O10   A    
C18   H20   S    
C29   C35   A    
C26   C28   A    
C31   O9    A    
C30   C36   A    
C60   C64   A    
C1    O1    A    
C6    C62   A    
C55   C57   A    
C33   O15   A    
O1    Zn1   S    
C43   C45   A    
C30   H18   S    
C49   C53   A    
C17   C19   A    
C56   C58   A    
C18   C20   A    
C23   C25   A    
C37   C41   A    
C20   H22   S    
C35   N3    A    
C38   C42   A    
C45   Br11  S    
C48   C52   A    
C39   C43   A    
C8    C10   A    
C40   H4    S    
C40   C60   A    
N1    Zn3   S    
C37   C57   A    
C36   N4    A    
O4    Zn2   S    
