data_mof_unit_46214.cif
_audit_creation_date              2012-12-10T17:19:21-0500
_audit_creation_method            fapswitch 2.2
_symmetry_space_group_name_H-M    P1
_symmetry_Int_Tables_number       1
_space_group_crystal_system       triclinic
_cell_length_a                    14.987399
_cell_length_b                    10.899476
_cell_length_c                    9.631886
_cell_angle_alpha                 90.337943
_cell_angle_beta                  90.860301
_cell_angle_gamma                 94.256258
_cell_volume                      1568.85975385

loop_
_atom_site_label
_atom_site_type_symbol
_atom_type_description
_atom_site_fract_x
_atom_site_fract_y
_atom_site_fract_z
_atom_type_partial_charge
C1    C     C_R   0.493088 0.262012 0.500976 0.817233
C2    C     C_R   0.912509 0.616584 0.477538 0.041949
C3    C     C_R   0.942635 0.285187 0.553959 0.391097
C4    C     C_R   0.035553 0.286016 0.553394 -0.233867
C5    C     C_R   0.088004 0.394503 0.526726 0.060143
C6    C     C_R   0.047422 0.505326 0.499939 0.043345
C7    C     C_R   0.100841 0.615149 0.471370 0.108593
C8    C     C_R   0.059392 0.725901 0.446377 0.113526
C9    C     C_R   0.965989 0.724870 0.450491 -0.165649
C10   C     C_R   0.180829 0.393513 0.526628 -0.185661
C11   C     C_R   0.233045 0.500759 0.497242 -0.033310
C12   C     C_R   0.329217 0.499260 0.499116 0.808309
C13   C     C_R   0.194165 0.610276 0.468721 -0.235409
C14   C     C_R   0.509466 0.115340 0.765928 -0.191917
C15   C     C_R   0.560449 0.066668 0.871427 0.420828
C16   C     C_R   0.609079 0.966220 0.842662 -0.157444
C17   C     C_R   0.596075 0.904740 0.715499 -0.180700
C18   C     C_R   0.536031 0.944763 0.615784 0.106264
C19   C     C_R   0.507838 0.063797 0.630131 0.025477
C20   C     C_R   0.485326 0.126865 0.506911 -0.114962
C21   C     C_R   0.467629 0.059467 0.383878 -0.123149
C22   C     C_R   0.474107 0.932849 0.381858 -0.180737
C23   C     C_R   0.504899 0.738283 0.499861 0.785513
C24   C     C_R   0.508217 0.873735 0.498102 -0.072614
C25   C     C_R   0.627516 0.654112 0.148583 -0.076704
C26   C     C_R   0.697827 0.716117 0.079924 -0.156884
C27   C     C_R   0.701863 0.708255 0.937294 -0.231274
C28   C     C_R   0.633241 0.643499 0.863348 -0.114409
C29   C     C_R   0.564595 0.572088 0.928539 0.198739
C30   C     C_R   0.563183 0.574696 0.077303 0.126249
C31   C     C_R   0.439848 0.427511 0.070718 0.496988
C32   C     C_R   0.439242 0.429398 0.923336 -0.084282
C33   C     C_R   0.670837 0.501595 0.500995 0.862585
C34   C     C_R   0.818643 0.616419 0.480485 0.288582
C35   C     C_R   0.767508 0.505603 0.503447 -0.130681
C36   C     C_R   0.807856 0.396697 0.528422 -0.208052
C37   C     C_R   0.900921 0.394941 0.528578 0.031851
C38   C     C_R   0.953595 0.505683 0.501879 -0.048420
Cu1   Cu    Cu3+1 0.499990 0.499990 0.640660 0.958115
Cu2   Cu    Cu3+1 0.500010 0.500010 0.359340 1.023353
H1    H     H_    0.470468 0.190615 0.793634 0.186423
H2    H     H_    0.655908 0.936186 0.919102 0.183496
H3    H     H_    0.638125 0.833608 0.688235 0.177566
H4    H     H_    0.453811 0.881697 0.288461 0.175427
H5    H     H_    0.626124 0.672117 0.256917 0.224572
H6    H     H_    0.747953 0.773286 0.137320 0.204125
H7    H     H_    0.755058 0.759527 0.882827 0.184052
H8    H     H_    0.634331 0.655025 0.755448 0.198502
H9    H     H_    0.765534 0.313615 0.546788 0.205789
H10   H     H_    0.389546 0.371627 0.865975 0.157744
H11   H     H_    0.066916 0.201214 0.573404 0.175129
H12   H     H_    0.212730 0.309356 0.548341 0.127038
H13   H     H_    0.238105 0.690854 0.447030 0.138413
H14   H     H_    0.935481 0.810271 0.431905 0.222029
H15   H     H_    0.447374 0.104366 0.289795 0.229733
N1    N     N_R   0.500860 0.501210 0.147910 -0.232266
N2    N     N_R   0.500890 0.501290 0.852040 -0.226230
O1    O     O_R   0.499990 0.319640 0.618810 -0.600881
O2    O     O_R   0.500000 0.319660 0.381240 -0.511433
O3    O     O_R   0.370250 0.499960 0.618800 -0.588691
O4    O     O_R   0.370260 0.499980 0.381230 -0.529711
O5    O     O_R   0.500000 0.680340 0.618760 -0.594923
O6    O     O_R   0.500010 0.680360 0.381190 -0.608710
O7    O     O_R   0.629740 0.500020 0.618770 -0.593025
O8    O     O_R   0.629750 0.500040 0.381200 -0.575264
Cl1   Cl    Cl    0.763845 0.754072 0.460337 -0.701200
Cl2   Cl    Cl    0.568663 0.137360 0.035766 -0.610894
Cl3   Cl    Cl    0.360630 0.325922 0.151087 -0.611075
Cl4   Cl    Cl    0.881626 0.143890 0.587134 -0.587621
C39   C     C_3   0.111736 0.847016 0.415243 -0.396316
C40   C     C_3   0.151311 0.908219 0.547706 -0.788039
H16   H     H_    0.096859 0.928450 0.619479 0.272183
H17   H     H_    0.197417 0.848272 0.601295 0.248724
H18   H     H_    0.189282 0.996155 0.521292 0.238548
H19   H     H_    0.164990 0.833573 0.338966 0.202831
H20   H     H_    0.067558 0.912093 0.365308 0.221343

loop_
_geom_bond_atom_site_label_1
_geom_bond_atom_site_label_2
_ccdc_geom_bond_type
C25   H5    S    
C35   C36   A    
C10   H12   S    
C34   Cl1   S    
C33   O8    A    
C7    C8    A    
Cu1   O7    S    
C26   C27   A    
C29   C30   A    
Cu2   O6    S    
C18   C24   A    
C36   C37   A    
C3    Cl4   S    
C34   C35   A    
C1    O2    A    
C5    C6    A    
C15   C16   A    
Cu1   N2    S    
C18   C19   A    
C23   O5    A    
C28   H8    S    
C19   C20   A    
C8    C9    A    
Cu2   N1    S    
C23   C24   S    
C6    C38   A    
C39   C40   S    
C31   N1    A    
C2    C34   A    
C23   O6    A    
Cu2   O2    S    
C21   C22   A    
C32   N2    A    
C13   H13   S    
C31   Cl3   S    
C22   H4    S    
C4    H11   S    
Cu1   Cu2   S    
C40   H17   S    
C16   C17   A    
C25   C26   A    
Cu1   O1    S    
C30   N1    A    
Cu2   O4    S    
C17   H3    S    
C37   C38   A    
C2    C38   A    
C31   C32   A    
C15   Cl2   S    
C17   C18   A    
C32   H10   S    
C14   H1    S    
C29   N2    A    
Cu2   O8    S    
C39   H20   S    
C22   C24   A    
C3    C4    A    
C16   H2    S    
C39   H19   S    
C21   H15   S    
C27   H7    S    
C25   C30   A    
Cu1   O5    S    
C28   C29   A    
C1    C20   S    
C14   C19   A    
C4    C5    A    
C40   H18   S    
C11   C12   S    
C6    C7    A    
C8    C39   S    
C5    C10   A    
C1    O1    A    
C12   O4    A    
C11   C13   A    
C33   O7    A    
Cu1   O3    S    
C33   C35   S    
C10   C11   A    
C26   H6    S    
C12   O3    A    
C7    C13   A    
C40   H16   S    
C20   C21   A    
C3    C37   A    
C27   C28   A    
C14   C15   A    
C9    H14   S    
C2    C9    A    
C36   H9    S    
