data_mof_unit_38380.cif
_audit_creation_date              2013-03-05T15:52:19-0500
_audit_creation_method            fapswitch 2.2
_symmetry_space_group_name_H-M    P1
_symmetry_Int_Tables_number       1
_space_group_crystal_system       triclinic
_cell_length_a                    14.523393
_cell_length_b                    15.766345
_cell_length_c                    9.936362
_cell_angle_alpha                 89.897371
_cell_angle_beta                  88.793787
_cell_angle_gamma                 89.972438
_cell_volume                      2274.72831431

loop_
_atom_site_label
_atom_site_type_symbol
_atom_site_description
_atom_site_fract_x
_atom_site_fract_y
_atom_site_fract_z
_atom_type_partial_charge
O1    O     O_R   0.408390 0.908380 0.614690 -0.625073
O2    O     O_R   0.408390 0.091620 0.614690 -0.624599
O3    O     O_R   0.908390 0.408380 0.614690 -0.625140
O4    O     O_R   0.908390 0.591620 0.614690 -0.624821
O5    O     O_R   0.408370 0.908380 0.385360 -0.640888
O6    O     O_R   0.408370 0.091620 0.385360 -0.643363
O7    O     O_R   0.908370 0.408380 0.385360 -0.643552
O8    O     O_R   0.908370 0.591620 0.385360 -0.640487
C1    C     C_R   0.385357 0.875453 0.501888 0.848160
C2    C     C_R   0.385143 0.124399 0.501486 0.850625
C3    C     C_R   0.885195 0.375557 0.501648 0.848350
C4    C     C_R   0.885323 0.624526 0.501761 0.850256
Zn1   Zn    Zn3+2 0.500010 0.000000 0.653130 0.984009
Zn2   Zn    Zn3+2 0.000010 0.500000 0.653130 0.984038
Zn3   Zn    Zn3+2 0.499980 0.000000 0.346870 0.934366
Zn4   Zn    Zn3+2 0.999980 0.500000 0.346870 0.934545
O9    O     O_R   0.591620 0.091610 0.614640 -0.588177
O10   O     O_R   0.591620 0.908390 0.614640 -0.575109
O11   O     O_R   0.091620 0.591610 0.614640 -0.587403
O12   O     O_R   0.091620 0.408390 0.614640 -0.574081
O13   O     O_R   0.591610 0.091610 0.385310 -0.621387
O14   O     O_R   0.591610 0.908390 0.385310 -0.623077
O15   O     O_R   0.091610 0.591610 0.385310 -0.621100
O16   O     O_R   0.091610 0.408390 0.385310 -0.623451
C5    C     C_R   0.613729 0.124857 0.499696 0.889273
C6    C     C_R   0.614114 0.875428 0.499592 0.890301
C7    C     C_R   0.114268 0.624470 0.499498 0.887925
C8    C     C_R   0.113534 0.375015 0.499922 0.894588
H1    H     H_    0.321439 0.205413 0.287817 0.184149
H2    H     H_    0.332791 0.785376 0.291116 0.173997
H3    H     H_    0.832215 0.714585 0.290828 0.173485
H4    H     H_    0.824537 0.292413 0.288413 0.182587
C9    C     C_R   0.323743 0.214402 0.756995 -0.196080
C10   C     C_R   0.316209 0.791023 0.759970 -0.170281
C11   C     C_R   0.816234 0.708737 0.759803 -0.168351
C12   C     C_R   0.821516 0.286648 0.757710 -0.195595
H5    H     H_    0.395949 0.199589 0.765856 0.150477
H6    H     H_    0.387855 0.806143 0.774425 0.161942
H7    H     H_    0.887917 0.693631 0.774176 0.162073
H8    H     H_    0.893712 0.301100 0.767845 0.150666
C13   C     C_R   0.271516 0.225916 0.876028 0.175765
C14   C     C_R   0.259669 0.783677 0.875200 0.185361
C15   C     C_R   0.759815 0.716046 0.875154 0.172239
C16   C     C_R   0.767871 0.276190 0.875740 0.187971
C17   C     C_R   0.666977 0.737309 0.861098 -0.138699
C18   C     C_R   0.674878 0.255810 0.865313 -0.101503
C19   C     C_R   0.178650 0.247235 0.867460 -0.117834
C20   C     C_R   0.166871 0.762480 0.860967 -0.124633
H9    H     H_    0.620694 0.739547 0.947902 0.126694
H10   H     H_    0.631203 0.251591 0.954777 0.132563
H11   H     H_    0.136032 0.252348 0.957851 0.132920
H12   H     H_    0.120458 0.760288 0.947639 0.126685
C21   C     C_R   0.634750 0.760906 0.735323 -0.138467
C22   C     C_R   0.639463 0.234953 0.740350 -0.162484
C23   C     C_R   0.141668 0.266629 0.742808 -0.153665
C24   C     C_R   0.135016 0.738329 0.735410 -0.152530
H13   H     H_    0.563194 0.779199 0.728361 0.138519
H14   H     H_    0.567641 0.217261 0.736455 0.138490
H15   H     H_    0.069722 0.284188 0.740297 0.139938
H16   H     H_    0.063480 0.720063 0.728468 0.139565
C25   C     C_R   0.694745 0.761677 0.621263 0.119686
C26   C     C_R   0.696583 0.236511 0.623198 0.118876
C27   C     C_R   0.197404 0.263974 0.624271 0.122273
C28   C     C_R   0.195090 0.737729 0.621400 0.115046
C29   C     C_R   0.283052 0.224315 0.629387 0.059373
C30   C     C_R   0.280318 0.777731 0.630050 0.049527
C31   C     C_R   0.780145 0.721932 0.629882 0.049945
C32   C     C_R   0.782150 0.276147 0.629413 0.058682
C33   C     C_R   0.322918 0.195570 0.505973 -0.122076
C34   C     C_R   0.324388 0.803311 0.507575 -0.117195
C35   C     C_R   0.824171 0.696540 0.507348 -0.117823
C36   C     C_R   0.823277 0.304140 0.506330 -0.121508
C37   C     C_R   0.290523 0.224927 0.382905 -0.210953
C38   C     C_R   0.297548 0.769292 0.384816 -0.214478
C39   C     C_R   0.797051 0.730550 0.384558 -0.215772
C40   C     C_R   0.792442 0.273685 0.383193 -0.209710
H17   H     H_    0.709169 0.816513 0.286505 0.171946
H18   H     H_    0.701850 0.190512 0.285042 0.174630
H19   H     H_    0.198655 0.307146 0.284886 0.173724
H20   H     H_    0.209917 0.683353 0.286742 0.174203
C41   C     C_R   0.724747 0.786234 0.381349 -0.217152
C42   C     C_R   0.720139 0.218073 0.380670 -0.210890
C43   C     C_R   0.218122 0.280445 0.380764 -0.212593
C44   C     C_R   0.225354 0.713535 0.381537 -0.215661
C45   C     C_R   0.674245 0.803140 0.499451 -0.115371
C46   C     C_R   0.673107 0.197758 0.500338 -0.121179
C47   C     C_R   0.172595 0.301856 0.501040 -0.122206
C48   C     C_R   0.174669 0.696530 0.499481 -0.116065
H21   H     H_    0.643630 0.000778 0.121572 0.173454
H22   H     H_    0.143253 0.507631 0.122019 0.176376
C49   C     C_R   0.334686 0.001416 0.154319 -0.110136
C50   C     C_R   0.834726 0.496471 0.154269 -0.110161
H23   H     H_    0.331977 0.000279 0.260481 0.215840
H24   H     H_    0.831959 0.499620 0.260338 0.215820
C51   C     C_R   0.249649 0.004090 0.097461 -0.220224
C52   C     C_R   0.749764 0.492129 0.097431 -0.218003
H25   H     H_    0.187748 0.005236 0.160187 0.155003
H26   H     H_    0.687868 0.490608 0.160149 0.154964
C53   C     C_R   0.243587 0.004594 0.960814 -0.191165
C54   C     C_R   0.743723 0.491357 0.960772 -0.190533
H27   H     H_    0.175547 0.006076 0.917972 0.141319
H28   H     H_    0.675708 0.489253 0.917931 0.141161
C55   C     C_R   0.322392 0.002126 0.876885 0.174412
C56   C     C_R   0.822464 0.495405 0.876846 0.173496
C57   C     C_R   0.414756 0.000712 0.932222 0.057004
C58   C     C_R   0.914802 0.497440 0.932197 0.056429
C59   C     C_R   0.417180 0.000547 0.077310 0.121025
C60   C     C_R   0.917221 0.497678 0.077284 0.120040
N1    N     N_R   0.498810 0.000000 0.142780 -0.140815
N2    N     N_R   0.998810 0.500000 0.142780 -0.141557
C61   C     C_R   0.578999 0.000503 0.069286 -0.202993
C62   C     C_R   0.078814 0.504288 0.069503 -0.200854
C63   C     C_R   0.579520 0.000490 0.926594 0.333400
C64   C     C_R   0.079455 0.504650 0.926868 0.329984
N3    N     N_R   0.498740 0.000000 0.857170 -0.182242
N4    N     N_R   0.998740 0.500000 0.857170 -0.181340
N5    N     N_3   0.301470 0.000624 0.738247 -0.355626
H29   H     H_    0.258717 0.948691 0.720708 0.170522
H30   H     H_    0.260576 0.053449 0.717328 0.171708
N6    N     N_3   0.801457 0.499408 0.738325 -0.355443
H31   H     H_    0.760466 0.447123 0.715258 0.170468
H32   H     H_    0.758670 0.551680 0.723024 0.171572
N7    N     N_R   0.666126 0.001719 0.856008 0.231419
O17   O     O_R   0.705954 0.930160 0.826541 -0.395294
O18   O     O_R   0.716883 0.069390 0.862246 -0.419347
N8    N     N_R   0.166117 0.512232 0.857125 0.229545
O19   O     O_R   0.205263 0.444507 0.808551 -0.386248
O20   O     O_R   0.217727 0.577535 0.881543 -0.425055
N9    N     N_3   0.310954 0.213807 0.005784 -0.466509
H33   H     H_    0.379665 0.194590 0.995600 0.171918
H34   H     H_    0.311420 0.272823 0.053557 0.184351
N10   N     N_3   0.296994 0.800502 0.004901 -0.463409
H35   H     H_    0.344637 0.752637 0.024932 0.187628
H36   H     H_    0.245220 0.796284 0.079307 0.178046
N11   N     N_3   0.797216 0.698722 0.004752 -0.463431
H37   H     H_    0.844939 0.746421 0.024832 0.182417
H38   H     H_    0.745498 0.702770 0.079248 0.177480
N12   N     N_3   0.806126 0.287907 0.006283 -0.465883
H39   H     H_    0.875285 0.305879 0.997422 0.170530
H40   H     H_    0.804968 0.228975 0.054666 0.190972

loop_
_geom_bond_atom_site_label_1
_geom_bond_atom_site_label_2
_geom_bond_distance
_ccdc_geom_bond_type
H21   C61   1.082381 S    
C43   C47   1.395489 A    
C27   C29   1.393800 A    
N8    O19   1.298474 A    
C23   H15   1.081613 S    
Zn3   N1    2.028341 S    
C53   C55   1.402432 A    
O10   C6    1.292225 A    
H22   C62   1.082423 S    
H20   C44   1.083749 S    
C56   N6    1.417357 S    
C10   C30   1.418287 A    
C62   C64   1.417112 A    
C9    C29   1.418496 A    
N11   H37   1.045297 S    
C12   C32   1.418071 A    
C13   N9    1.434203 S    
O7    C3    1.303020 A    
C57   C59   1.442811 A    
Zn1   O10   1.995328 S    
C23   C27   1.415728 A    
N9    H33   1.045688 S    
N5    H30   1.045799 S    
C64   N8    1.428912 S    
C51   C53   1.362483 A    
N7    O18   1.299410 A    
H1    C37   1.082591 S    
C50   C52   1.369597 A    
N11   H38   1.045416 S    
O2    Zn1   2.005160 S    
C25   C31   1.393510 A    
C12   H8    1.079923 S    
O6    Zn3   1.995442 S    
Zn2   N4    2.027111 S    
C21   C25   1.414994 A    
C50   C60   1.407964 A    
C54   C56   1.402501 A    
C16   C18   1.394447 A    
C10   C14   1.399537 A    
H19   C43   1.083773 S    
C52   H26   1.083244 S    
Zn4   O16   2.005143 S    
C34   C38   1.396434 A    
N8    O20   1.300017 A    
C24   C28   1.415295 A    
C33   C37   1.397477 A    
O15   C7    1.296934 A    
O4    C4    1.286112 A    
C11   C15   1.399731 A    
C36   C40   1.397686 A    
C17   C21   1.393610 A    
O8    Zn4   1.995442 S    
C59   N1    1.364263 A    
C55   N5    1.417150 S    
C56   C58   1.460514 A    
N6    H32   1.044751 S    
Zn3   O14   2.005143 S    
Zn4   N2    2.028341 S    
Zn2   O12   1.995328 S    
N7    O17   1.298715 A    
O1    C1    1.286754 A    
C1    C34   1.442091 S    
C61   C63   1.417700 A    
N12   H39   1.045639 S    
C40   C42   1.368997 A    
C21   H13   1.081961 S    
C3    C36   1.441422 S    
C39   C41   1.369277 A    
C19   H11   1.083099 S    
O12   C8    1.290044 A    
C42   C46   1.395593 A    
C9    H5    1.079623 S    
C24   H16   1.081878 S    
C58   N4    1.416050 A    
C32   C36   1.419455 A    
C28   C30   1.393821 A    
C11   H7    1.080207 S    
O5    C1    1.305209 A    
C49   C59   1.408036 A    
C49   H23   1.054893 S    
C26   C46   1.414313 A    
H18   C42   1.083729 S    
H3    C39   1.082701 S    
C63   N7    1.427310 S    
C11   C31   1.418439 A    
O8    C4    1.305602 A    
C18   C22   1.393904 A    
C8    C47   1.437266 S    
C50   H24   1.055125 S    
C17   H9    1.082907 S    
C13   C19   1.394120 A    
C55   C57   1.460563 A    
C14   C20   1.398830 A    
C15   N11   1.433865 S    
C15   C17   1.398986 A    
Zn1   N3    2.027111 S    
O3    Zn2   2.007068 S    
C25   C45   1.411783 A    
O7    Zn4   1.995378 S    
C53   H27   1.084379 S    
C4    C35   1.441596 S    
Zn4   O15   2.007049 S    
Zn3   O13   2.007049 S    
C12   C16   1.403770 A    
O1    Zn1   2.007068 S    
O2    C2    1.288437 A    
O11   C7    1.291407 A    
N6    H31   1.045652 S    
C19   C23   1.393756 A    
C54   H28   1.084371 S    
C22   H14   1.081381 S    
C20   C24   1.393436 A    
O13   C5    1.299022 A    
C16   N12   1.434098 S    
C27   C47   1.414782 A    
C10   H6    1.080195 S    
Zn2   O11   1.995262 S    
C57   N3    1.416240 A    
O16   C8    1.299294 A    
C38   C44   1.369547 A    
H4    C40   1.082613 S    
C64   N4    1.376086 A    
C51   H25   1.083255 S    
N12   H40   1.045364 S    
C26   C32   1.393844 A    
C22   C26   1.415306 A    
C18   H10   1.083085 S    
Zn1   O9    1.995262 S    
C9    C13   1.403590 A    
N1    C61   1.361568 A    
O9    C5    1.290304 A    
N5    H29   1.044948 S    
C35   C39   1.396043 A    
C30   C34   1.420904 A    
C44   C48   1.396400 A    
C58   C60   1.442816 A    
C6    C45   1.435497 S    
C29   C33   1.419940 A    
C52   C54   1.362646 A    
C5    C46   1.437365 S    
C60   N2    1.364384 A    
N10   H35   1.045303 S    
C31   C35   1.421355 A    
H2    C38   1.082741 S    
O4    Zn2   2.005160 S    
C7    C48   1.435715 S    
N2    C62   1.359802 A    
O5    Zn3   1.995378 S    
O3    C3    1.288842 A    
O6    C2    1.303028 A    
C49   C51   1.369487 A    
C2    C33   1.440599 S    
C20   H12   1.082922 S    
N10   H36   1.045417 S    
H17   C41   1.083730 S    
O14   C6    1.296036 A    
C14   N10   1.433842 S    
N9    H34   1.045394 S    
C28   C48   1.412650 A    
C37   C43   1.368311 A    
C41   C45   1.396720 A    
C63   N3    1.373475 A    
