data_mof_unit_19290.cif
_audit_creation_date              2012-12-10T17:42:16-0500
_audit_creation_method            fapswitch 2.2
_symmetry_space_group_name_H-M    P1
_symmetry_Int_Tables_number       1
_space_group_crystal_system       triclinic
_cell_length_a                    15.008925
_cell_length_b                    13.846958
_cell_length_c                    10.763649
_cell_angle_alpha                 90.139845
_cell_angle_beta                  86.927197
_cell_angle_gamma                 90.082137
_cell_volume                      2233.76231788

loop_
_atom_site_label
_atom_site_type_symbol
_atom_type_description
_atom_site_fract_x
_atom_site_fract_y
_atom_site_fract_z
_atom_type_partial_charge
C1    C     C_R   0.328884 0.499848 0.501892 0.866298
C2    C     C_3   0.597374 0.477584 0.921421 -0.383969
C3    C     C_R   0.817991 0.482112 0.388845 -0.222160
C4    C     C_R   0.766729 0.500514 0.498282 -0.053975
C5    C     C_R   0.806480 0.520683 0.609436 -0.163164
C6    C     C_R   0.899371 0.520996 0.613662 0.031724
C7    C     C_R   0.951981 0.502077 0.503108 0.020414
C8    C     C_R   0.910867 0.483795 0.390063 0.131785
C9    C     C_R   0.941002 0.540424 0.724979 0.365497
C10   C     C_R   0.033622 0.538407 0.726587 -0.170751
C11   C     C_R   0.087107 0.515570 0.618848 -0.021080
C12   C     C_R   0.501461 0.499981 0.260084 0.740271
C13   C     C_R   0.045627 0.501201 0.505294 0.044093
C14   C     C_R   0.097501 0.485650 0.393663 0.134422
C15   C     C_R   0.055947 0.469461 0.281876 -0.173236
C16   C     C_R   0.963189 0.467690 0.280283 -0.162875
C17   C     C_R   0.181001 0.508969 0.621030 0.021339
C18   C     C_R   0.231818 0.499629 0.506957 -0.074381
C19   C     C_R   0.190179 0.487346 0.395116 -0.230733
C20   C     C_R   0.435512 0.795536 0.567171 0.114870
C21   C     C_R   0.433219 0.204757 0.562532 0.131143
C22   C     C_R   0.565333 0.792554 0.431710 0.039839
C23   C     C_R   0.566677 0.207426 0.434339 0.035856
C24   C     C_R   0.569945 0.896005 0.430212 -0.082408
C25   C     C_R   0.569186 0.104035 0.428672 -0.083470
C26   C     C_R   0.670802 0.500077 0.497200 0.784374
C27   C     C_R   0.503219 0.948520 0.497965 0.083439
C28   C     C_R   0.502738 0.051696 0.497025 0.082345
C29   C     C_R   0.435800 0.897837 0.566899 -0.040272
C30   C     C_R   0.434694 0.102588 0.564754 -0.044715
C31   C     C_R   0.637632 0.948199 0.361015 -0.076625
C32   C     C_R   0.636815 0.051770 0.359378 -0.073559
C33   C     C_R   0.368829 0.050258 0.633683 -0.156203
C34   C     C_R   0.369259 0.950591 0.634573 -0.152843
C35   C     C_R   0.501154 0.500069 0.740323 0.823020
C36   C     C_3   0.479405 0.601970 0.074170 -0.384970
C37   C     C_3   0.432260 0.427544 0.077602 -0.400180
C38   C     C_3   0.472844 0.599610 0.932921 -0.321493
C39   C     C_3   0.437972 0.422049 0.934811 -0.330371
C40   C     C_3   0.595897 0.471405 0.065398 -0.357180
C41   C     C_3   0.502388 0.500079 0.122471 0.139835
C42   C     C_3   0.502508 0.500031 0.878915 0.091532
Cu1   Cu    Cu3+1 0.499990 0.597420 0.500010 0.990733
Cu2   Cu    Cu3+1 0.499990 0.402580 0.500010 0.981358
H1    H     H_    0.531905 0.654670 0.098401 0.194792
H2    H     H_    0.443604 0.354158 0.115618 0.202827
H3    H     H_    0.062918 0.557233 0.812953 0.207910
H4    H     H_    0.230456 0.477863 0.309138 0.121311
H5    H     H_    0.095255 0.457533 0.195765 0.157671
H6    H     H_    0.932343 0.454238 0.193091 0.177171
H7    H     H_    0.613514 0.749981 0.377511 0.163259
H8    H     H_    0.617974 0.249918 0.386223 0.164893
H9    H     H_    0.315800 0.085529 0.688609 0.168458
H10   H     H_    0.315911 0.915821 0.689313 0.168023
H11   H     H_    0.414884 0.627502 0.118523 0.177880
H12   H     H_    0.364094 0.450641 0.111159 0.153992
H13   H     H_    0.402262 0.611780 0.912740 0.234664
H14   H     H_    0.370570 0.431787 0.900323 0.199875
H15   H     H_    0.514163 0.659100 0.890805 0.214132
H16   H     H_    0.462368 0.349075 0.906298 0.230175
H17   H     H_    0.647903 0.520151 0.100779 0.170101
H18   H     H_    0.612413 0.396537 0.093664 0.189360
H19   H     H_    0.644532 0.535235 0.888232 0.192456
H20   H     H_    0.621984 0.408150 0.880263 0.182617
H21   H     H_    0.785421 0.467531 0.303126 0.130098
H22   H     H_    0.764035 0.535008 0.692003 0.171403
N1    N     N_R   0.499930 0.743810 0.499950 -0.238020
N2    N     N_R   0.499930 0.256190 0.499950 -0.235178
O1    O     O_R   0.370250 0.582280 0.500040 -0.545530
O2    O     O_R   0.370250 0.417720 0.500040 -0.572253
O3    O     O_R   0.499970 0.582270 0.317700 -0.598760
O4    O     O_R   0.499970 0.417730 0.317700 -0.587619
O5    O     O_R   0.629730 0.582260 0.499980 -0.575306
O6    O     O_R   0.629730 0.417740 0.499980 -0.589741
O7    O     O_R   0.500000 0.582270 0.682320 -0.566418
O8    O     O_R   0.500000 0.417730 0.682320 -0.566077
C43   C     C_2   0.224851 0.504985 0.741640 0.779479
O9    O     O_2   0.294537 0.548136 0.754802 -0.638555
O10   O     O_R   0.186520 0.450431 0.839941 -0.772359
H23   H     H_    0.218951 0.457786 0.919565 0.315753
C44   C     C_2   0.364310 0.747369 0.643165 0.921317
O11   O     O_2   0.292810 0.730192 0.598300 -0.581778
O12   O     O_R   0.371784 0.742855 0.771488 -0.785022
H24   H     H_    0.313026 0.726491 0.817545 0.341720
C45   C     C_2   0.356281 0.253891 0.624988 0.883181
O13   O     O_2   0.285638 0.257604 0.573529 -0.583699
O14   O     O_R   0.360697 0.284393 0.747686 -0.791216
H25   H     H_    0.300928 0.307853 0.783972 0.341935
C46   C     C_2   0.708937 0.894910 0.288626 0.867821
O15   O     O_2   0.721132 0.909209 0.176947 -0.551461
O16   O     O_R   0.762612 0.829256 0.348743 -0.743314
H26   H     H_    0.808609 0.797372 0.289687 0.350019
C47   C     C_2   0.707559 0.104983 0.285841 0.872510
O17   O     O_2   0.786130 0.090622 0.304261 -0.548203
O18   O     O_R   0.684079 0.170625 0.194684 -0.769107
H27   H     H_    0.737967 0.202519 0.151174 0.340080
Cl1   Cl    Cl    0.880161 0.567687 0.865620 -0.640847

loop_
_geom_bond_atom_site_label_1
_geom_bond_atom_site_label_2
_ccdc_geom_bond_type
Cu1   O5    S    
O14   H25   S    
C47   O17   D    
C27   C29   A    
C20   N1    A    
O18   H27   S    
C24   C27   A    
C6    C9    A    
C44   O11   D    
C7    C8    A    
C43   O9    D    
C25   C28   A    
C35   O7    A    
C1    C18   S    
C16   H6    S    
C38   C42   S    
C5    C6    A    
C15   C16   A    
C26   O5    A    
C40   H18   S    
C18   C19   A    
Cu2   O8    S    
C35   C42   S    
C20   C44   S    
C37   H12   S    
O12   H24   S    
C31   C46   S    
C9    Cl1   S    
Cu2   O2    S    
C46   O16   S    
C9    C10   A    
C25   C32   A    
C43   O10   S    
C32   C47   S    
C12   O4    A    
C8    C16   A    
C13   C14   A    
Cu1   O7    S    
C36   C41   S    
C3    H21   S    
C44   O12   S    
C2    H20   S    
C33   C34   A    
C39   C42   S    
C20   C29   A    
C45   O14   S    
C33   H9    S    
C21   C45   S    
C35   O8    A    
C3    C8    A    
O16   H26   S    
C19   H4    S    
C4    C5    A    
C45   O13   D    
C39   H14   S    
C29   C34   A    
C1    O1    A    
C40   H17   S    
O10   H23   S    
C23   N2    A    
Cu1   Cu2   S    
C12   C41   S    
C38   H13   S    
C31   C32   A    
C17   C43   S    
C17   C18   A    
C36   H1    S    
Cu2   O6    S    
C40   C41   S    
C12   O3    A    
C34   H10   S    
C21   N2    A    
C22   C24   A    
Cu2   N2    S    
C3    C4    A    
C10   H3    S    
C2    H19   S    
C11   C17   A    
Cu1   O3    S    
C30   C33   A    
C14   C19   A    
C5    H22   S    
C4    C26   S    
C6    C7    A    
C21   C30   A    
C1    O2    A    
C28   C30   A    
C37   H2    S    
C24   C31   A    
C37   C39   S    
C36   H11   S    
C11   C13   A    
C23   H8    S    
C47   O18   S    
C2    C42   S    
C39   H16   S    
C36   C38   S    
C26   O6    A    
Cu2   O4    S    
C15   H5    S    
C37   C41   S    
C22   N1    A    
C10   C11   A    
C38   H15   S    
C2    C40   S    
C7    C13   A    
C23   C25   A    
Cu1   N1    S    
C27   C28   A    
C14   C15   A    
C46   O15   D    
Cu1   O1    S    
C22   H7    S    
