data_mof_unit_37965.cif
_audit_creation_date              2013-03-05T16:07:04-0500
_audit_creation_method            fapswitch 2.2
_symmetry_space_group_name_H-M    P1
_symmetry_Int_Tables_number       1
_space_group_crystal_system       triclinic
_cell_length_a                    16.85365
_cell_length_b                    7.254893
_cell_length_c                    16.862126
_cell_angle_alpha                 91.299844
_cell_angle_beta                  100.220032
_cell_angle_gamma                 88.59146
_cell_volume                      2028.07871253

loop_
_atom_site_label
_atom_site_type_symbol
_atom_site_description
_atom_site_fract_x
_atom_site_fract_y
_atom_site_fract_z
_atom_type_partial_charge
O1    O     O_R   0.413450 0.494370 0.415710 -0.599617
O2    O     O_R   0.586550 0.994370 0.584290 -0.599724
O3    O     O_R   0.578420 0.819350 0.429360 -0.593687
O4    O     O_R   0.421580 0.319350 0.570640 -0.609106
C1    C     C_R   0.604105 0.652367 0.413138 0.997937
C2    C     C_R   0.395168 0.159028 0.586465 1.002470
O5    O     O_R   0.413570 0.823780 0.406240 -0.558252
O6    O     O_R   0.586430 0.323780 0.593760 -0.555350
O7    O     O_R   0.420530 0.998740 0.561000 -0.571377
O8    O     O_R   0.579470 0.498740 0.439000 -0.583155
C3    C     C_R   0.385542 0.655589 0.384278 0.933130
C4    C     C_R   0.614203 0.155279 0.616106 0.931736
O9    O     O_3   0.502480 0.662320 0.550800 -0.288853
O10   O     O_3   0.497520 0.162320 0.449200 -0.288312
V1    V     V_3+5 0.499540 0.935370 0.490580 1.207261
V2    V     V_3+5 0.500460 0.435370 0.509420 1.203620
C5    C     C_R   0.740416 0.998397 0.690288 0.115561
C6    C     C_R   0.259697 0.502783 0.310009 0.116814
C7    C     C_R   0.685190 0.147546 0.682449 -0.247823
C8    C     C_R   0.313936 0.648645 0.318585 -0.244632
C9    C     C_R   0.703541 0.296971 0.737305 -0.080843
C10   C     C_R   0.293899 0.796079 0.264949 -0.094508
H1    H     H_    0.665118 0.419364 0.732505 0.137223
H2    H     H_    0.331167 0.916553 0.270425 0.136434
C11   C     C_R   0.769332 0.286100 0.801987 -0.140444
C12   C     C_R   0.227841 0.785495 0.200580 -0.107916
H3    H     H_    0.779242 0.401024 0.844384 0.164460
H4    H     H_    0.216202 0.899836 0.159856 0.174445
C13   C     C_R   0.818498 0.124800 0.814311 -0.182500
C14   C     C_R   0.180679 0.625392 0.186518 -0.208407
C15   C     C_R   0.804178 0.986492 0.754780 0.138959
C16   C     C_R   0.196387 0.490115 0.245206 0.143155
C17   C     C_3   0.799059 0.782350 0.759595 -0.584890
C18   C     C_3   0.202445 0.285144 0.240117 -0.598395
C19   C     C_3   0.729858 0.794198 0.687778 0.188521
C20   C     C_3   0.270719 0.297795 0.312938 0.188355
H5    H     H_    0.779192 0.739853 0.815696 0.221714
H6    H     H_    0.223450 0.236264 0.184249 0.186841
H7    H     H_    0.854244 0.709561 0.746494 0.229426
H8    H     H_    0.147224 0.218354 0.252183 0.232946
H9    H     H_    0.670663 0.751242 0.700902 0.072512
H10   H     H_    0.330442 0.247382 0.301022 0.070975
C21   C     C_R   0.332932 0.166147 0.638992 -0.164018
C22   C     C_R   0.666417 0.633051 0.361288 -0.164673
C23   C     C_R   0.171147 0.101986 0.865618 -0.327831
C24   C     C_R   0.830577 0.637624 0.134655 -0.323735
C25   C     C_R   0.281407 0.928925 0.817017 0.392636
C26   C     C_R   0.708127 0.797028 0.163179 0.358114
C27   C     C_R   0.227058 0.950308 0.871822 0.211008
C28   C     C_R   0.763724 0.758652 0.110781 0.258466
C29   C     C_R   0.173206 0.233465 0.806221 -0.228349
C30   C     C_R   0.837925 0.546151 0.208003 -0.318017
C31   C     C_R   0.226353 0.210903 0.750800 0.124332
C32   C     C_R   0.781269 0.577356 0.259027 0.157661
C33   C     C_R   0.279093 0.055109 0.754454 0.008762
C34   C     C_R   0.716427 0.704903 0.237560 -0.001068
C35   C     C_R   0.330380 0.031479 0.696818 -0.209057
C36   C     C_R   0.659384 0.731301 0.289449 -0.213725
C37   C     C_R   0.280384 0.320628 0.636554 -0.064788
C38   C     C_R   0.730656 0.506027 0.380957 -0.074781
C39   C     C_R   0.227138 0.341693 0.691073 -0.088825
C40   C     C_R   0.787883 0.479793 0.330877 -0.154691
H11   H     H_    0.370776 0.912673 0.698665 0.165870
H12   H     H_    0.607449 0.822164 0.273073 0.147933
H13   H     H_    0.280858 0.426698 0.592446 0.149954
H14   H     H_    0.736584 0.426442 0.435324 0.171091
H15   H     H_    0.187468 0.462233 0.687313 0.131974
H16   H     H_    0.836809 0.380787 0.347839 0.135107
H17   H     H_    0.131134 0.349887 0.801086 0.172893
H18   H     H_    0.888645 0.452136 0.225880 0.163284
O11   O     O_R   0.920630 0.775410 0.061150 -0.576245
O12   O     O_R   0.079370 0.275410 0.938850 -0.575281
O13   O     O_R   0.086500 0.441450 0.093690 -0.595963
O14   O     O_R   0.913500 0.941450 0.906310 -0.573117
C41   C     C_R   0.113981 0.610376 0.116143 0.976118
C42   C     C_R   0.885729 0.110506 0.884088 0.971093
O15   O     O_R   0.921670 0.445960 0.070740 -0.588001
O16   O     O_R   0.078330 0.945960 0.929260 -0.569406
O17   O     O_R   0.913380 0.271130 0.915780 -0.600216
O18   O     O_R   0.086620 0.771130 0.084220 -0.578713
C43   C     C_R   0.895495 0.617147 0.085524 1.031925
C44   C     C_R   0.105647 0.110375 0.915123 1.013692
O19   O     O_3   0.997500 0.603030 0.949220 -0.282870
O20   O     O_3   0.002500 0.103030 0.050780 -0.295596
V3    V     V_3+5 0.000470 0.329940 0.009420 1.206749
V4    V     V_3+5 0.999530 0.829940 0.990580 1.244945
N1    N     N_R   0.230691 0.819169 0.934967 0.244267
O21   O     O_R   0.238981 0.875903 0.009633 -0.459443
O22   O     O_R   0.232532 0.643014 0.918841 -0.384965
N2    N     N_R   0.749359 0.833376 0.031102 0.248318
O23   O     O_R   0.754008 0.726706 0.968940 -0.460232
O24   O     O_R   0.731829 0.007495 0.020059 -0.424061
N3    N     N_R   0.750950 0.708335 0.614757 0.251613
O25   O     O_R   0.711394 0.566469 0.582026 -0.418507
O26   O     O_R   0.812036 0.764508 0.584788 -0.394466
N4    N     N_R   0.248366 0.222641 0.385556 0.250562
O27   O     O_R   0.288326 0.081979 0.419978 -0.401866
O28   O     O_R   0.186078 0.287980 0.413788 -0.397570
O29   O     O_3   0.335097 0.779823 0.822787 -0.639409
C45   C     C_3   0.401110 0.809634 0.886407 0.305711
H19   H     H_    0.412626 0.679674 0.920585 0.151509
H20   H     H_    0.390246 0.920097 0.930754 0.079031
C46   C     C_3   0.476461 0.854030 0.851953 -0.509006
H21   H     H_    0.486182 0.747119 0.806160 0.228838
H22   H     H_    0.467798 0.990037 0.822336 0.207126
C47   C     C_3   0.551313 0.861118 0.917679 -0.752205
H23   H     H_    0.543599 0.969209 0.963527 0.263532
H24   H     H_    0.604371 0.894710 0.890360 0.285506
H25   H     H_    0.562794 0.725620 0.947440 0.265886
O30   O     O_3   0.638548 0.898267 0.134905 -0.643607
C48   C     C_3   0.644504 0.079355 0.167947 0.221250
H26   H     H_    0.684930 0.161775 0.137893 0.158146
H27   H     H_    0.668570 0.082130 0.233945 0.078499
C49   C     C_3   0.560148 0.168510 0.153519 -0.273084
H28   H     H_    0.536100 0.170463 0.087748 0.211802
H29   H     H_    0.519325 0.085406 0.182868 0.197347
C50   C     C_3   0.560759 0.365072 0.187251 -0.993197
H30   H     H_    0.583472 0.365508 0.253185 0.267858
H31   H     H_    0.498536 0.424528 0.176295 0.269952
H32   H     H_    0.599472 0.451665 0.157055 0.283522

loop_
_geom_bond_atom_site_label_1
_geom_bond_atom_site_label_2
_geom_bond_distance
_ccdc_geom_bond_type
C26   O30   1.384575 S    
N1    O21   1.300370 A    
N3    O25   1.298361 A    
C27   N1    1.436167 S    
C20   H10   1.112473 S    
C48   H26   1.111252 S    
O1    C3    1.335210 A    
C42   O17   1.330703 A    
O2    C4    1.333191 A    
C2    O7    1.318108 A    
O12   V3    1.963425 S    
C25   C27   1.415638 A    
C13   C42   1.485148 S    
O5    C3    1.339756 A    
C17   H7    1.111839 S    
O14   C42   1.339446 A    
C18   H8    1.111845 S    
C7    C9    1.412777 A    
C50   H31   1.110207 S    
C47   H23   1.110267 S    
C23   C29   1.404093 A    
C24   C43   1.487809 S    
C24   C30   1.401528 A    
C25   O29   1.387001 S    
C38   C40   1.397225 A    
C39   H15   1.083745 S    
O30   C48   1.414190 S    
O18   V4    2.001734 S    
C17   C19   1.527306 S    
C31   C39   1.401259 A    
C28   N2    1.438328 S    
C48   H27   1.114715 S    
C23   C44   1.496846 S    
C22   C36   1.404847 A    
N4    O28   1.302304 A    
C15   C17   1.490538 S    
O15   C43   1.340598 A    
C46   C47   1.525405 S    
C41   O18   1.332854 A    
C18   C20   1.529351 S    
C21   C37   1.407999 A    
O16   V4    2.030542 S    
C19   N3    1.462913 S    
C38   H14   1.082805 S    
O6    V2    2.010131 S    
C11   C13   1.414732 A    
O13   C41   1.343286 A    
C30   C32   1.405460 A    
C35   H11   1.082704 S    
C31   C33   1.416235 A    
C36   H12   1.082154 S    
C32   C34   1.416564 A    
C3    C8    1.487305 S    
C37   C39   1.397650 A    
O20   V3    1.799559 S    
O4    C2    1.305325 A    
C50   H32   1.110021 S    
O5    V1    2.012829 S    
C32   C40   1.402984 A    
C45   C46   1.531157 S    
C17   H5    1.110300 S    
C29   C31   1.409013 A    
C16   C18   1.489610 S    
O4    V2    2.030490 S    
O11   V4    1.987332 S    
O16   C44   1.330576 A    
N2    O24   1.300183 A    
O29   C45   1.418867 S    
C23   C27   1.424440 A    
O6    C4    1.336281 A    
N4    O27   1.298552 A    
C45   H20   1.117641 S    
C46   H22   1.110734 S    
O1    V2    2.002018 S    
O14   V4    2.009794 S    
O2    V1    2.002105 S    
O13   V3    2.012535 S    
C1    C22   1.483218 S    
C8    C10   1.412036 A    
C12   C14   1.415334 A    
C2    C21   1.487382 S    
C9    H1    1.082013 S    
C5    C15   1.389197 A    
C10   H2    1.081528 S    
C6    C16   1.388352 A    
O17   V3    2.001845 S    
O3    V1    1.983438 S    
C25   C33   1.407092 A    
C26   C34   1.417925 A    
C9    C11   1.412700 A    
C18   H6    1.111553 S    
O3    C1    1.315677 A    
C49   H29   1.112003 S    
C49   H28   1.111458 S    
C11   H3    1.082384 S    
C5    C19   1.495181 S    
C24   C28   1.417377 A    
C12   H4    1.080826 S    
C40   H16   1.083594 S    
C33   C35   1.415755 A    
O7    V1    1.975034 S    
C1    O8    1.309132 A    
C13   C15   1.397484 A    
O8    V2    2.002623 S    
C50   H30   1.109719 S    
C37   H13   1.083403 S    
C14   C16   1.396748 A    
C14   C41   1.486767 S    
N2    O23   1.301187 A    
C47   H24   1.110496 S    
C22   C38   1.403146 A    
C4    C7    1.486801 S    
C26   C28   1.416326 A    
C45   H19   1.111189 S    
C5    C7    1.402839 A    
C34   C36   1.417154 A    
C48   C49   1.529040 S    
C6    C8    1.403591 A    
C19   H9    1.112726 S    
C49   C50   1.522850 S    
C30   H18   1.084445 S    
C21   C35   1.402603 A    
O15   V3    1.983488 S    
O19   V4    1.771941 S    
N3    O26   1.302286 A    
C10   C12   1.412479 A    
O9    V2    1.772337 S    
C46   H21   1.111830 S    
N1    O22   1.301316 A    
O10   V1    1.799976 S    
C29   H17   1.084325 S    
C6    C20   1.495023 S    
O12   C44   1.343441 A    
C20   N4    1.463788 S    
O11   C43   1.331836 A    
C47   H25   1.110935 S    
