data_mof_unit_67161.cif
_audit_creation_date              2012-12-11T17:48:43-0500
_audit_creation_method            fapswitch 2.2
_symmetry_space_group_name_H-M    P1
_symmetry_Int_Tables_number       1
_space_group_crystal_system       triclinic
_cell_length_a                    8.212273
_cell_length_b                    12.699396
_cell_length_c                    14.895967
_cell_angle_alpha                 97.106889
_cell_angle_beta                  97.554683
_cell_angle_gamma                 98.85376
_cell_volume                      1505.15529174

loop_
_atom_site_label
_atom_site_type_symbol
_atom_type_description
_atom_site_fract_x
_atom_site_fract_y
_atom_site_fract_z
_atom_type_partial_charge
Ba1   Ba    Ba6+2 0.843750 0.550210 0.455600 1.664333
Ba2   Ba    Ba6+2 0.346090 0.449880 0.544410 1.688446
Br1   Br    Br    0.751388 0.689992 0.840521 -0.614399
C1    C     C_3   0.488356 0.871187 0.141590 -0.294692
C2    C     C_R   0.894350 0.438889 0.922584 -0.029778
C3    C     C_R   0.035974 0.456372 0.110341 -0.039650
C4    C     C_3   0.068993 0.770748 0.203132 0.360546
C5    C     C_R   0.877072 0.395506 0.076373 -0.019953
C6    C     C_R   0.806144 0.389426 0.985270 -0.099493
C7    C     C_R   0.105430 0.469892 0.204906 0.055844
C8    C     C_R   0.267029 0.526823 0.233013 -0.292757
C9    C     C_R   0.081646 0.533617 0.796337 0.017868
C10   C     C_R   0.151315 0.545256 0.890513 -0.052304
C11   C     C_R   0.058395 0.495934 0.953274 0.030007
C12   C     C_3   0.583284 0.826577 0.219654 0.236488
C13   C     C_R   0.311860 0.603302 0.923933 -0.006776
C14   C     C_R   0.384225 0.606449 0.014263 -0.078943
C15   C     C_R   0.294186 0.559866 0.077543 -0.065611
C16   C     C_3   0.033206 0.798507 0.106736 -0.334481
C17   C     C_R   0.128972 0.504868 0.047314 0.006324
C18   C     C_R   0.363821 0.567651 0.170458 -0.011609
C19   C     C_R   0.920708 0.475165 0.767781 -0.238264
C20   C     C_R   0.768333 0.181114 0.538528 -0.277766
C21   C     C_R   0.423612 0.806301 0.457184 -0.278454
C22   C     C_R   0.391161 0.984707 0.426868 -0.108135
C23   C     C_3   0.411225 0.287413 0.266857 0.293568
C24   C     C_R   0.325679 0.876441 0.421326 -0.022050
C25   C     C_R   0.581743 0.845663 0.508344 0.069096
C26   C     C_R   0.647399 0.958126 0.518517 -0.044978
C27   C     C_R   0.550847 0.027581 0.475544 -0.060595
C28   C     C_3   0.271994 0.777917 0.649554 0.318489
C29   C     C_R   0.613912 0.139050 0.485072 0.026216
C30   C     C_R   0.868746 0.113642 0.576295 0.010979
C31   C     C_R   0.806580 0.003554 0.569068 -0.063372
C32   C     C_3   0.350916 0.896478 0.673412 -0.415431
C33   C     C_3   0.866647 0.210241 0.314473 0.280144
C34   C     C_3   0.354108 0.254731 0.164368 -0.384900
C35   C     C_3   0.755940 0.112900 0.254518 -0.287338
C36   C     C_3   0.837984 0.753304 0.740996 0.564685
C37   C     C_3   0.966641 0.852144 0.783760 -0.328114
C38   C     C_2   0.980060 0.177559 0.388339 0.460524
C39   C     C_2   0.594575 0.897383 0.069949 0.602613
C40   C     C_2   0.564476 0.067692 0.898827 0.585491
C41   C     C_3   0.116669 0.231609 0.798722 0.370994
C42   C     C_3   0.153553 0.206787 0.895999 -0.359641
C43   C     C_3   0.604559 0.169526 0.768266 0.260254
C44   C     C_3   0.686574 0.110235 0.839947 -0.263861
C45   C     C_R   0.824526 0.431558 0.829706 0.029226
H1    H     H_    0.680175 0.891145 0.260373 0.079172
H2    H     H_    0.443833 0.944961 0.169528 0.048748
H3    H     H_    0.014408 0.893561 0.729114 0.073382
H4    H     H_    0.070713 0.829061 0.828148 0.124279
H5    H     H_    0.908914 0.909330 0.826684 0.131745
H6    H     H_    0.495992 0.801519 0.267298 -0.025328
H7    H     H_    0.378018 0.810341 0.109476 0.094516
H8    H     H_    0.307215 0.315515 0.298007 0.034394
H9    H     H_    0.519228 0.354334 0.277326 0.058469
H10   H     H_    0.243735 0.189204 0.151757 0.144686
H11   H     H_    0.319893 0.324574 0.132973 0.056350
H12   H     H_    0.482085 0.904718 0.706507 0.129307
H13   H     H_    0.455979 0.226339 0.131195 0.146933
H14   H     H_    0.064160 0.735264 0.056551 0.090819
H15   H     H_    0.197723 0.308564 0.793807 0.086211
H16   H     H_    0.984055 0.241079 0.784963 -0.104105
H17   H     H_    0.288121 0.204039 0.913981 0.165180
H18   H     H_    0.120251 0.270244 0.944985 0.065689
H19   H     H_    0.080064 0.127706 0.902291 0.114512
H20   H     H_    0.699978 0.200411 0.727027 -0.050087
H21   H     H_    0.507047 0.111982 0.720115 0.062254
H22   H     H_    0.792019 0.166793 0.883499 0.096331
H23   H     H_    0.347435 0.935506 0.610980 0.081977
H24   H     H_    0.736474 0.042400 0.805306 0.022223
H25   H     H_    0.986456 0.693797 0.206543 0.091552
H26   H     H_    0.803708 0.352241 0.119447 0.116821
H27   H     H_    0.681665 0.343967 0.964772 0.119582
H28   H     H_    0.511109 0.647982 0.033826 0.150907
H29   H     H_    0.385545 0.645983 0.880759 0.177176
H30   H     H_    0.321902 0.533919 0.304086 0.070383
H31   H     H_    0.866081 0.468296 0.696695 0.072871
H32   H     H_    0.312354 0.034929 0.395778 0.149885
H33   H     H_    0.886340 0.954950 0.601282 0.081342
H34   H     H_    0.283259 0.940148 0.721161 0.135356
H35   H     H_    0.816327 0.266443 0.545000 0.045067
H36   H     H_    0.201062 0.759695 0.216366 -0.101125
H37   H     H_    0.371313 0.721715 0.451180 0.062579
H38   H     H_    0.899493 0.803408 0.089128 0.166357
H39   H     H_    0.109076 0.877281 0.101779 0.114006
H40   H     H_    0.356287 0.733796 0.613688 0.030122
H41   H     H_    0.151989 0.770970 0.603892 0.049798
H42   H     H_    0.038020 0.238150 0.445612 0.032811
H43   H     H_    0.709080 0.955472 0.087669 0.005452
H44   H     H_    0.461024 0.003554 0.869875 0.032288
H45   H     H_    0.785600 0.261030 0.345888 -0.029815
H46   H     H_    0.678188 0.139329 0.197711 0.128391
H47   H     H_    0.673056 0.069299 0.295903 0.052911
H48   H     H_    0.834005 0.058016 0.224510 0.133497
H49   H     H_    0.894355 0.693196 0.700520 -0.021640
O1    O     O_2   0.827880 0.435260 0.277750 -0.474338
O2    O     O_2   0.208864 0.117893 0.569629 -0.451822
O3    O     O_3   0.149504 0.147124 0.737224 -0.604918
O4    O     O_3   0.100280 0.438960 0.391170 -0.505349
O5    O     O_3   0.587780 0.631850 0.546230 -0.465255
O6    O     O_2   0.332590 0.233690 0.456160 -0.447727
O7    O     O_3   0.456621 0.198251 0.304637 -0.650862
O8    O     O_2   0.488391 0.448265 0.824841 -0.459352
O9    O     O_3   0.527683 0.248862 0.812228 -0.600726
O10   O     O_3   0.625580 0.634130 0.333250 -0.470579
O11   O     O_2   0.694897 0.545100 0.175077 -0.484669
O12   O     O_3   0.705288 0.787527 0.690422 -0.631850
O13   O     O_3   0.964935 0.263898 0.259380 -0.658392
O14   O     O_3   0.665119 0.745244 0.183612 -0.596099
O15   O     O_2   0.857130 0.766340 0.543890 -0.503145
O16   O     O_3   0.056550 0.691050 0.379010 -0.499407
O17   O     O_2   0.992825 0.881988 0.437999 -0.427910
O18   O     O_2   0.009706 0.086036 0.384818 -0.573628
O19   O     O_2   0.552975 0.853211 0.990920 -0.570632
O20   O     O_2   0.580016 0.105634 0.979501 -0.619498
O21   O     O_3   0.037739 0.854047 0.266545 -0.568043
O22   O     O_2   0.361830 0.564780 0.722310 -0.416029
O23   O     O_3   0.089430 0.561130 0.608830 -0.510616
O24   O     O_3   0.564130 0.365960 0.666760 -0.458877
O25   O     O_3   0.245278 0.737055 0.730346 -0.627895
O26   O     O_3   0.601940 0.368240 0.453770 -0.485609
O27   O     O_3   0.133170 0.309040 0.621000 -0.500436
P1    P     P_3+3 0.998730 0.403530 0.291970 0.951815
P2    P     P_3+3 0.687380 0.751030 0.571310 0.982594
P3    P     P_3+3 0.104118 0.828114 0.377008 1.018754
P4    P     P_3+3 0.190990 0.596560 0.708040 0.991889
P5    P     P_3+3 0.088550 0.170591 0.625341 0.970201
P6    P     P_3+3 0.585081 0.621826 0.214448 0.960308
P7    P     P_3+3 0.505921 0.232749 0.423707 0.933129
P8    P     P_3+3 0.603302 0.375256 0.785158 1.001952

loop_
_geom_bond_atom_site_label_1
_geom_bond_atom_site_label_2
_ccdc_geom_bond_type
C19   C45   A    
C22   H32   S    
C21   C24   A    
C16   H38   S    
C4    H25   S    
Ba2   O26   S    
C41   H16   S    
O9    P8    S    
C2    C6    A    
C20   H35   S    
C25   C26   A    
Ba1   P1    S    
C19   H31   S    
C13   H29   S    
C16   H39   S    
Ba1   O15   S    
C36   H49   S    
Ba2   O5    S    
C16   H14   S    
C15   C18   A    
C9    C19   A    
Ba1   Ba2   S    
C43   H21   S    
C23   O7    S    
C24   P3    S    
C33   H45   S    
O1    P1    D    
C5    C6    A    
C28   H41   S    
O7    P7    S    
C35   H47   S    
C42   H19   S    
C14   H28   S    
O4    P1    S    
C31   H33   S    
C27   C29   A    
C7    P1    S    
C21   H37   S    
O15   P2    D    
C34   H10   S    
O22   P4    D    
C38   H42   S    
Br1   C36   S    
C10   C11   A    
C4    O21   S    
C33   C38   S    
Ba1   O16   S    
C38   O18   D    
O10   P6    S    
C32   H34   S    
C25   P2    S    
C14   C15   A    
O8    P8    D    
C41   H15   S    
C18   P6    S    
C2    C45   A    
O2    P5    D    
C12   H6    S    
C11   C17   A    
Ba1   P2    S    
C36   C37   S    
Ba2   O23   S    
O3    P5    S    
C13   C14   A    
C3    C5    A    
Ba2   O4    S    
C20   C30   A    
C37   H4    S    
C26   C31   A    
C8    C18   A    
C1    H2    S    
C32   H12   S    
Ba1   O23   S    
Ba1   O26   S    
C44   H22   S    
C43   H20   S    
C26   C27   A    
C8    H30   S    
C12   O14   S    
O14   P6    S    
C35   H46   S    
C5    H26   S    
C30   C31   A    
C2    C11   A    
C34   H11   S    
Ba1   O10   S    
O16   P3    S    
C39   O19   D    
C40   O20   D    
C4    C16   S    
C1    H7    S    
C33   O13   S    
C28   C32   S    
O21   P3    S    
O24   P8    S    
Ba1   O4    S    
C41   C42   S    
Ba2   O24   S    
C30   P5    S    
C22   C27   A    
C43   C44   S    
C28   H40   S    
O26   P7    S    
O11   P6    D    
O6    P7    D    
C21   C25   A    
C28   O25   S    
O5    P2    S    
C23   H8    S    
Ba1   O1    S    
C3    C7    A    
C34   H13   S    
Ba2   O22   S    
O23   P4    S    
C23   C34   S    
C9    P4    S    
Ba2   O27   S    
C22   C24   A    
C37   H3    S    
C3    C17   A    
C40   H44   S    
C20   C29   A    
C1    C12   S    
C33   C35   S    
C42   H17   S    
O17   P3    D    
C41   O3    S    
C1    C39   S    
Ba2   O6    S    
C43   O9    S    
O27   P5    S    
C4    H36   S    
C15   C17   A    
C12   H1    S    
O25   P4    S    
C23   H9    S    
C44   H24   S    
C7    C8    A    
O13   P1    S    
C32   H23   S    
O12   P2    S    
C36   O12   S    
C9    C10   A    
C37   H5    S    
C10   C13   A    
C35   H48   S    
C42   H18   S    
C45   P8    S    
C6    H27   S    
C40   C44   S    
Ba1   O5    S    
C29   P7    S    
C39   H43   S    
Ba2   P4    S    
