data_mof_unit_17241.cif
_audit_creation_date              2012-12-10T20:49:10-0500
_audit_creation_method            fapswitch 2.2
_symmetry_space_group_name_H-M    P1
_symmetry_Int_Tables_number       1
_space_group_crystal_system       triclinic
_cell_length_a                    8.964432
_cell_length_b                    8.139039
_cell_length_c                    10.579144
_cell_angle_alpha                 89.773148
_cell_angle_beta                  90.25563
_cell_angle_gamma                 89.402927
_cell_volume                      771.818255331

loop_
_atom_site_label
_atom_site_type_symbol
_atom_type_description
_atom_site_fract_x
_atom_site_fract_y
_atom_site_fract_z
_atom_type_partial_charge
C1    C     C_R   0.218063 0.500541 0.500007 0.929831
C2    C     C_3   0.631279 0.552033 0.044519 -0.067884
C3    C     C_3   0.503697 0.500496 0.876990 -0.134207
C4    C     C_3   0.496303 0.499504 0.123009 -0.134207
C5    C     C_1   0.065143 0.500770 0.500001 -0.158340
C6    C     C_1   0.934856 0.499230 0.499999 -0.158340
C7    C     C_1   0.227510 0.393029 0.900312 0.186482
C8    C     C_1   0.772490 0.606970 0.099688 0.186481
C9    C     C_1   0.271067 0.710197 0.084117 0.216105
C10   C     C_1   0.728933 0.289803 0.915882 0.216105
C11   C     C_1   0.552839 0.819038 0.910328 0.240382
C12   C     C_R   0.781937 0.499458 0.499993 0.929831
C13   C     C_1   0.447161 0.180962 0.089672 0.240382
C14   C     C_R   0.496376 0.500067 0.257198 0.886155
C15   C     C_R   0.503624 0.499933 0.742802 0.886156
C16   C     C_3   0.390002 0.600679 0.038529 -0.070459
C17   C     C_3   0.609998 0.399321 0.961471 -0.070459
C18   C     C_3   0.525097 0.653498 0.959759 -0.040267
C19   C     C_3   0.474902 0.346501 0.040241 -0.040267
C20   C     C_3   0.368721 0.447966 0.955481 -0.067884
N1    N     N_1   0.500000 0.073640 0.500000 -0.018864
N2    N     N_1   0.500000 0.926360 0.500000 -0.018864
N3    N     N_1   0.116655 0.350230 0.855743 -0.181112
N4    N     N_1   0.883345 0.649770 0.144257 -0.181112
N5    N     N_1   0.177991 0.797348 0.120157 -0.156470
N6    N     N_1   0.822009 0.202652 0.879843 -0.156470
N7    N     N_1   0.574063 0.948597 0.869470 -0.184803
N8    N     N_1   0.425936 0.051403 0.130530 -0.184803
O1    O     O_R   0.285350 0.636850 0.500000 -0.614172
O2    O     O_R   0.714650 0.363150 0.500000 -0.614173
O3    O     O_R   0.714650 0.636850 0.500000 -0.613371
O4    O     O_R   0.285350 0.363150 0.500000 -0.613370
O5    O     O_R   0.499970 0.636850 0.313950 -0.612855
O6    O     O_R   0.500030 0.363150 0.686050 -0.612855
O7    O     O_R   0.500030 0.636850 0.686050 -0.625063
O8    O     O_R   0.499970 0.363150 0.313950 -0.625063
Zn1   Zn    Zn3+2 0.500000 0.682780 0.500000 1.018912
Zn2   Zn    Zn3+2 0.500000 0.317220 0.500000 1.018912

loop_
_geom_bond_atom_site_label_1
_geom_bond_atom_site_label_2
_ccdc_geom_bond_type
C4    C16   S    
C2    C4    S    
C13   N8    T    
C8    N4    T    
O4    Zn2   S    
C2    C18   S    
C15   O6    A    
C19   C20   S    
C11   N7    T    
C16   C20   S    
C10   N6    T    
C14   O5    A    
C1    O1    A    
C9    N5    T    
C3    C20   S    
C11   C18   S    
N1    N2    T    
C2    C17   S    
C6    C12   S    
N2    Zn1   S    
C1    C5    S    
C2    C8    S    
O8    Zn2   S    
O7    Zn1   S    
C9    C16   S    
C3    C17   S    
C12   O3    A    
C4    C14   S    
C5    C6    T    
C7    N3    T    
C13   C19   S    
C10   C17   S    
C3    C15   S    
O2    Zn2   S    
C3    C18   S    
C16   C18   S    
C7    C20   S    
O1    Zn1   S    
C15   O7    A    
C17   C19   S    
C14   O8    A    
C12   O2    A    
O6    Zn2   S    
C4    C19   S    
C1    O4    A    
O5    Zn1   S    
N1    Zn2   S    
O3    Zn1   S    
