data_mof_unit_23011.cif
_audit_creation_date              2013-03-05T16:19:41-0500
_audit_creation_method            fapswitch 2.2
_symmetry_space_group_name_H-M    P1
_symmetry_Int_Tables_number       1
_space_group_crystal_system       triclinic
_cell_length_a                    10.711485
_cell_length_b                    9.984656
_cell_length_c                    26.710409
_cell_angle_alpha                 91.637695
_cell_angle_beta                  87.25763
_cell_angle_gamma                 90.224499
_cell_volume                      2852.24498451

loop_
_atom_site_label
_atom_site_type_symbol
_atom_site_description
_atom_site_fract_x
_atom_site_fract_y
_atom_site_fract_z
_atom_type_partial_charge
O1    O     O_R   0.314910 0.616040 0.499990 -0.615205
O2    O     O_R   0.314910 0.383960 0.499990 -0.603577
C1    C     C_R   0.258528 0.500181 0.502132 0.829251
O3    O     O_R   0.500140 0.616020 0.428740 -0.583023
O4    O     O_R   0.500140 0.383980 0.428740 -0.544230
C2    C     C_R   0.503573 0.498350 0.405691 0.949120
Zn1   Zn    Zn3+2 0.500150 0.654960 0.499980 0.966936
Zn2   Zn    Zn3+2 0.500150 0.345040 0.499980 0.995228
O5    O     O_R   0.685320 0.616040 0.499970 -0.649523
O6    O     O_R   0.685320 0.383960 0.499970 -0.605128
O7    O     O_R   0.500090 0.616050 0.571230 -0.566013
O8    O     O_R   0.500090 0.383950 0.571230 -0.587151
C3    C     C_R   0.741964 0.500643 0.500088 0.825801
C4    C     C_R   0.502525 0.502128 0.594360 0.874286
C5    C     C_R   0.651910 0.632973 0.179630 0.550239
O9    O     O_2   0.594487 0.731555 0.207422 -0.524030
N1    N     N_R   0.672745 0.514042 0.201568 -0.342619
C6    C     C_R   0.731449 0.409769 0.176457 0.592618
C7    C     C_R   0.707152 0.550038 0.291002 0.188653
C8    C     C_R   0.661470 0.548139 0.340589 -0.174069
C9    C     C_R   0.469473 0.439812 0.315523 0.209599
C10   C     C_R   0.513771 0.443209 0.265158 0.281318
C11   C     C_R   0.631974 0.499675 0.253034 0.178022
C12   C     C_R   0.739477 0.539638 0.100714 -0.111414
C13   C     C_R   0.687362 0.650806 0.128658 -0.024790
C14   C     C_R   0.670568 0.773767 0.104356 0.156352
C15   C     C_R   0.767201 0.419564 0.125252 -0.100962
C16   C     C_R   0.543036 0.495751 0.352865 -0.153127
C17   C     C_R   0.540727 0.509490 0.646207 -0.035591
C18   C     C_R   0.744774 0.669612 0.970121 0.056318
C19   C     C_R   0.797575 0.429407 0.966697 0.066956
C20   C     C_R   0.765990 0.548006 0.942314 0.085737
C21   C     C_R   0.726453 0.787856 0.943357 -0.203492
C22   C     C_R   0.711480 0.782881 0.892006 -0.114727
C23   C     C_R   0.716913 0.660558 0.865402 -0.028114
C24   C     C_R   0.749949 0.543828 0.889901 -0.049371
C25   C     C_R   0.761565 0.421902 0.862292 -0.024606
C26   C     C_R   0.730799 0.417173 0.811832 0.569915
N2    N     N_R   0.688333 0.529616 0.790176 -0.345208
C27   C     C_R   0.685626 0.651092 0.815122 0.549710
C28   C     C_R   0.518256 0.464978 0.735231 0.320877
C29   C     C_R   0.467880 0.460800 0.687347 0.081944
C30   C     C_R   0.657785 0.567440 0.653765 -0.245071
C31   C     C_R   0.706888 0.571095 0.700786 -0.141555
C32   C     C_R   0.638507 0.519030 0.741461 0.213617
O10   O     O_2   0.648755 0.761342 0.791785 -0.518182
C33   C     C_R   0.735455 0.667220 0.023364 0.018622
C34   C     C_R   0.760491 0.546888 0.047897 0.081168
C35   C     C_R   0.802266 0.431829 0.019712 0.006514
C36   C     C_R   0.694833 0.779627 0.052680 -0.168436
H1    H     H_    0.691861 0.875154 0.873514 0.196426
H2    H     H_    0.721485 0.886235 0.960905 0.142713
H3    H     H_    0.674916 0.873277 0.035889 0.144854
O11   O     O_2   0.751148 0.296618 0.201170 -0.464136
C37   C     C_R   0.827656 0.313863 0.097368 0.333459
H4    H     H_    0.718761 0.587066 0.370044 0.142621
C38   C     C_R   0.814908 0.309860 0.937379 -0.199144
C39   C     C_R   0.797252 0.306530 0.886169 -0.110473
O12   O     O_2   0.739656 0.300734 0.784984 -0.524149
C40   C     C_R   0.843820 0.321049 0.045638 -0.247712
H5    H     H_    0.835117 0.214826 0.953271 0.144701
H6    H     H_    0.711516 0.609988 0.622823 0.148350
H7    H     H_    0.807246 0.211587 0.865710 0.193101
H8    H     H_    0.798005 0.615531 0.705808 0.165231
H9    H     H_    0.890900 0.237844 0.026444 0.173320
C41   C     C_3   0.065284 0.618031 0.539319 0.037386
C42   C     C_3   0.066155 0.362277 0.519845 0.002022
H10   H     H_    0.085162 0.713717 0.519853 0.173608
H11   H     H_    0.109043 0.282321 0.494675 0.175304
C43   C     C_3   0.921920 0.600765 0.543590 -0.407016
C44   C     C_3   0.926351 0.360924 0.511774 -0.397993
H12   H     H_    0.892122 0.559254 0.580368 0.168316
H13   H     H_    0.874610 0.322173 0.545303 0.184122
H14   H     H_    0.877923 0.700731 0.541804 0.163236
H15   H     H_    0.908969 0.294525 0.478787 0.201501
H16   H     H_    0.126873 0.619945 0.435157 0.197410
H17   H     H_    0.109853 0.442998 0.424448 0.221979
H18   H     H_    0.915978 0.651579 0.443592 0.186887
H19   H     H_    0.900193 0.483354 0.418994 0.198534
C45   C     C_3   0.080915 0.528191 0.450159 -0.480247
C46   C     C_3   0.121462 0.501559 0.504300 0.124955
C47   C     C_3   0.878973 0.502774 0.501343 0.116696
C48   C     C_3   0.938018 0.545152 0.450173 -0.440099
C49   C     C_3   0.390003 0.076629 0.473937 -0.309890
C50   C     C_3   0.378804 0.918632 0.482799 -0.297981
H20   H     H_    0.396822 0.096584 0.433224 0.232525
H21   H     H_    0.345379 0.864410 0.449184 0.212185
H22   H     H_    0.301792 0.126094 0.487527 0.209583
H23   H     H_    0.301272 0.900742 0.510985 0.211744
C51   C     C_3   0.618164 0.077611 0.473986 0.443757
C52   C     C_3   0.597664 0.920366 0.461536 0.393848
C53   C     C_3   0.491623 0.084942 0.551025 0.167095
C54   C     C_3   0.509538 0.925318 0.550701 0.136220
N3    N     N_3   0.499750 0.138610 0.498940 -0.121520
N4    N     N_3   0.499750 0.861390 0.498940 -0.118278
H24   H     H_    0.563494 0.130645 0.574558 0.139448
H25   H     H_    0.601230 0.899013 0.564971 0.101145
Br1   Br    Br    0.308175 0.364443 0.333333 -0.423847
C55   C     C_3   0.835156 0.606684 0.278747 -0.749653
H26   H     H_    0.883038 0.638530 0.313130 0.232848
H27   H     H_    0.893846 0.529558 0.258327 0.255261
H28   H     H_    0.827609 0.695340 0.254958 0.259734
Br2   Br    Br    0.893545 0.154530 0.125449 -0.408390
C56   C     C_3   0.120360 0.637976 0.591511 -0.853087
H29   H     H_    0.077461 0.571883 0.620076 0.238589
H30   H     H_    0.222537 0.621629 0.590151 0.268663
H31   H     H_    0.102506 0.742438 0.605360 0.271253
C57   C     C_3   0.089424 0.323964 0.573939 -0.802247
H32   H     H_    0.181997 0.359489 0.584479 0.270008
H33   H     H_    0.018891 0.366918 0.601508 0.234984
H34   H     H_    0.083314 0.213443 0.576981 0.270259
Br3   Br    Br    0.412954 0.374982 0.212368 -0.344977
Br4   Br    Br    0.670807 0.172177 0.412805 -0.413405
Br5   Br    Br    0.547109 0.890358 0.390405 -0.424875
Br6   Br    Br    0.341664 0.150642 0.588519 -0.510717
Br7   Br    Br    0.393333 0.849779 0.602249 -0.436253
C58   C     C_3   0.734217 0.097403 0.507481 -0.966244
H35   H     H_    0.823541 0.096735 0.484832 0.261289
H36   H     H_    0.727030 0.187268 0.531298 0.266744
H37   H     H_    0.745601 0.019830 0.535252 0.186879
C59   C     C_3   0.724476 0.847903 0.457644 -0.773114
H38   H     H_    0.719317 0.753332 0.435316 0.264349
H39   H     H_    0.794474 0.907349 0.435682 0.239240
H40   H     H_    0.762239 0.831938 0.494650 0.214500
C60   C     C_3   0.626598 0.901501 0.131542 -0.633303
H41   H     H_    0.629284 0.989033 0.106744 0.216652
H42   H     H_    0.528242 0.890266 0.145867 0.270442
H43   H     H_    0.688420 0.926496 0.162697 0.288128
C61   C     C_3   0.335854 0.412557 0.681787 -0.742339
H44   H     H_    0.328545 0.304945 0.690860 0.295757
H45   H     H_    0.271137 0.471494 0.707487 0.256421
H46   H     H_    0.304708 0.426021 0.643562 0.212174
Br8   Br    Br    0.421785 0.403205 0.792955 -0.446955

loop_
_geom_bond_atom_site_label_1
_geom_bond_atom_site_label_2
_geom_bond_distance
_ccdc_geom_bond_type
C41   H10   1.115641 S    
C17   C29   1.413577 A    
C28   C29   1.411226 A    
C7    C8    1.390480 A    
C12   C15   1.421783 A    
C8    H4    1.083262 S    
C28   Br8   1.929342 S    
C38   C39   1.389215 A    
C31   H8    1.083111 S    
C21   H2    1.076627 S    
C27   O10   1.350001 S    
C22   H1    1.083694 S    
N1    C11   1.433309 S    
C35   C40   1.406510 A    
O4    C2    1.312286 A    
C20   C24   1.418036 A    
C24   C25   1.407985 A    
C49   H20   1.110063 S    
C58   H36   1.085799 S    
C26   N2    1.366851 A    
O7    C4    1.310778 A    
C15   C37   1.414989 A    
C42   C57   1.537170 S    
C5    C13   1.411899 A    
C5    O9    1.348151 S    
C37   Br2   1.928527 S    
C53   H24   1.105962 S    
C57   H32   1.098451 S    
Zn1   O5    2.022635 S    
C22   C23   1.395360 A    
C51   Br4   1.968727 S    
O5    C3    1.304446 A    
C59   H40   1.101737 S    
H18   C48   1.110154 S    
C2    C16   1.452995 S    
C19   C20   1.417460 A    
H19   C48   1.113308 S    
C43   H14   1.108694 S    
C60   H43   1.110343 S    
C51   N3    1.525116 S    
C18   C20   1.418464 A    
C25   C39   1.395936 A    
N2    C32   1.430840 S    
C44   C47   1.543645 S    
C54   N4    1.514186 S    
C37   C40   1.388169 A    
C17   C30   1.399849 A    
C19   C35   1.418846 A    
C45   C48   1.540626 S    
C56   H30   1.105935 S    
C56   H29   1.105283 S    
C21   C22   1.388016 A    
C33   C36   1.408239 A    
C50   H21   1.108555 S    
C36   H3    1.075024 S    
C12   C34   1.421790 A    
C51   C58   1.574535 S    
C41   C56   1.546934 S    
C18   C33   1.421743 A    
Zn2   N3    2.060517 S    
C12   C13   1.420702 A    
O3    C2    1.310557 A    
C58   H37   1.098763 S    
N2    C27   1.366807 A    
C44   H13   1.108845 S    
C7    C55   1.506164 S    
C8    C16   1.398316 A    
O3    Zn1   1.931252 S    
C13   C14   1.421076 A    
C3    C47   1.469609 S    
O1    C1    1.304315 A    
C14   C60   1.514845 S    
C49   H22   1.108644 S    
C7    C11   1.405569 A    
C30   C31   1.384156 A    
C1    C46   1.466652 S    
C25   C26   1.402204 A    
Zn1   O7    1.953187 S    
C55   H26   1.111169 S    
Zn2   O8    1.931430 S    
C53   N3    1.503620 S    
N1    C6    1.361649 A    
C49   N3    1.502238 S    
C49   C50   1.605056 S    
C59   H38   1.104947 S    
C34   C35   1.417446 A    
C55   H27   1.110269 S    
C9    C16   1.402724 A    
O8    C4    1.316931 A    
C40   H9    1.077739 S    
C42   C46   1.568563 S    
C10   Br3   1.924445 S    
C60   H41   1.111054 S    
C4    C17   1.462498 S    
C54   H25   1.105649 S    
C31   C32   1.392927 A    
C61   H44   1.109844 S    
H17   C45   1.113360 S    
C39   H7    1.083666 S    
C5    N1    1.362960 A    
C50   H23   1.111366 S    
C18   C21   1.416654 A    
O1    Zn1   2.020385 S    
O2    Zn2   2.023371 S    
C6    C15   1.408562 A    
H16   C45   1.113906 S    
C45   C46   1.560003 S    
C33   C34   1.417461 A    
O6    C3    1.311448 A    
O4    Zn2   1.953026 S    
C52   Br5   2.014302 S    
C38   H5    1.077435 S    
Zn1   N4    2.062138 S    
C57   H34   1.110260 S    
C61   H46   1.101203 S    
C14   C36   1.395111 A    
O2    C1    1.308811 A    
C58   H35   1.107201 S    
C41   C46   1.574438 S    
C44   H15   1.109904 S    
C9    Br1   1.925960 S    
C50   N4    1.504735 S    
C19   C38   1.416638 A    
C51   C52   1.611914 S    
C41   C43   1.543763 S    
C53   C54   1.605777 S    
C57   H33   1.108256 S    
C23   C27   1.400158 A    
C29   C61   1.504894 S    
C42   C44   1.523077 S    
C43   C47   1.557340 S    
C53   Br6   1.957093 S    
C59   H39   1.110368 S    
C6    O11   1.347015 S    
C52   N4    1.540598 S    
C26   O12   1.349664 S    
C55   H28   1.109740 S    
Zn2   O6    2.019649 S    
C47   C48   1.547689 S    
C52   C59   1.539234 S    
C60   H42   1.109903 S    
C28   C32   1.409967 A    
C10   C11   1.411176 A    
C43   H12   1.109482 S    
C23   C24   1.407422 A    
C42   H11   1.114901 S    
C9    C10   1.406220 A    
C54   Br7   1.975341 S    
C56   H31   1.110878 S    
C30   H6    1.080470 S    
C61   H45   1.110233 S    
